data_mof_unit_28474.cif
_audit_creation_date              2012-12-10T17:40:26-0500
_audit_creation_method            fapswitch 2.2
_symmetry_space_group_name_H-M    P1
_symmetry_Int_Tables_number       1
_space_group_crystal_system       triclinic
_cell_length_a                    13.694006
_cell_length_b                    15.064949
_cell_length_c                    15.841336
_cell_angle_alpha                 89.643998
_cell_angle_beta                  69.323185
_cell_angle_gamma                 90.197493
_cell_volume                      3057.43956762

loop_
_atom_site_label
_atom_site_type_symbol
_atom_type_description
_atom_site_fract_x
_atom_site_fract_y
_atom_site_fract_z
_atom_type_partial_charge
C1    C     C_R   0.497947 0.670946 0.505748 0.803562
C2    C     C_R   0.501794 0.329003 0.495026 0.803702
C3    C     C_R   0.382271 0.532876 0.095564 -0.215002
C4    C     C_R   0.617652 0.457343 0.906509 -0.212786
C5    C     C_R   0.310932 0.544696 0.052618 -0.217056
C6    C     C_R   0.686438 0.439822 0.950814 -0.218067
C7    C     C_R   0.535933 0.187999 0.553265 -0.270397
C8    C     C_R   0.462405 0.812122 0.449018 -0.268610
C9    C     C_R   0.503160 0.232522 0.490632 -0.093729
C10   C     C_R   0.496436 0.767444 0.510794 -0.096734
C11   C     C_R   0.472662 0.185056 0.426670 0.038732
C12   C     C_R   0.528441 0.814821 0.574061 0.037938
C13   C     C_R   0.468319 0.090835 0.432690 0.092095
C14   C     C_R   0.531563 0.909136 0.568763 0.093011
C15   C     C_R   0.500559 0.046816 0.497977 0.039837
C16   C     C_R   0.498432 0.953203 0.504020 0.039898
C17   C     C_R   0.535552 0.096074 0.557054 0.109669
C18   C     C_R   0.463095 0.904008 0.445127 0.108726
C19   C     C_R   0.432435 0.039036 0.375538 -0.223232
C20   C     C_R   0.567546 0.961010 0.625836 -0.223894
C21   C     C_R   0.430038 0.947076 0.381786 -0.200160
C22   C     C_R   0.568920 0.053013 0.620204 -0.199740
C23   C     C_R   0.435849 0.502334 0.672987 0.787107
C24   C     C_R   0.563819 0.495663 0.327459 0.788956
C25   C     C_R   0.229965 0.557678 0.444740 0.015488
C26   C     C_R   0.770124 0.442048 0.554983 0.008589
C27   C     C_R   0.184255 0.442295 0.554553 0.017601
C28   C     C_R   0.815241 0.558855 0.446794 0.038094
C29   C     C_R   0.080811 0.441490 0.556079 -0.071628
C30   C     C_R   0.918653 0.559707 0.445330 -0.066566
C31   C     C_R   0.052047 0.500243 0.499565 0.036495
C32   C     C_R   0.947568 0.500535 0.501400 0.036727
C33   C     C_R   0.127813 0.558457 0.441256 -0.101021
C34   C     C_R   0.871968 0.441860 0.559211 -0.101186
C35   C     C_R   0.005879 0.383781 0.613653 -0.203602
C36   C     C_R   0.993556 0.617495 0.387822 -0.212897
C37   C     C_R   0.901879 0.384237 0.617436 0.400431
C38   C     C_R   0.097821 0.616257 0.383250 0.397566
C39   C     C_R   0.395821 0.509082 0.772809 -0.078667
C40   C     C_R   0.603245 0.484509 0.228600 -0.080565
C41   C     C_R   0.265950 0.544025 0.918877 -0.221454
C42   C     C_R   0.726819 0.432180 0.086531 -0.224930
C43   C     C_R   0.291664 0.532961 0.825739 0.091028
C44   C     C_R   0.698960 0.442113 0.179855 0.092035
C45   C     C_R   0.468061 0.493980 0.815746 -0.299683
C46   C     C_R   0.537391 0.511731 0.182967 -0.293699
C47   C     C_R   0.442479 0.504496 0.909172 0.085098
C48   C     C_R   0.559580 0.492413 0.091373 0.084254
C49   C     C_R   0.339861 0.531271 0.960207 0.133170
C50   C     C_R   0.658085 0.455650 0.042661 0.128625
C51   C     C_R   0.516048 0.489972 0.953101 0.071203
C52   C     C_R   0.486113 0.506654 0.047442 0.072827
Cu1   Cu    Cu3+1 0.402580 0.500010 0.499990 0.923175
Cu2   Cu    Cu3+1 0.597420 0.499990 0.500010 0.921652
H1    H     H_    0.231997 0.564277 0.092444 0.153186
H2    H     H_    0.762263 0.412359 0.912805 0.155201
H3    H     H_    0.289433 0.603327 0.404692 0.133223
H4    H     H_    0.710863 0.395935 0.594427 0.133624
H5    H     H_    0.207420 0.397488 0.597693 0.124318
H6    H     H_    0.791795 0.604418 0.404469 0.122273
H7    H     H_    0.027582 0.338989 0.657810 0.158143
H8    H     H_    0.971784 0.662428 0.343823 0.160332
H9    H     H_    0.468064 0.547381 0.221289 0.149787
H10   H     H_    0.545587 0.475878 0.773625 0.155706
H11   H     H_    0.187429 0.563801 0.959761 0.128864
H12   H     H_    0.800883 0.401730 0.048439 0.132784
H13   H     H_    0.351908 0.542187 0.167474 0.138474
H14   H     H_    0.646492 0.441391 0.835976 0.136872
H15   H     H_    0.560508 0.225666 0.600591 0.150266
H16   H     H_    0.437171 0.774583 0.402002 0.150929
H17   H     H_    0.405741 0.068097 0.325159 0.158587
H18   H     H_    0.595069 0.931992 0.675728 0.159335
H19   H     H_    0.402527 0.909406 0.336408 0.151873
H20   H     H_    0.596351 0.090706 0.665617 0.151872
N1    N     N_R   0.256170 0.500070 0.500040 -0.179806
N2    N     N_R   0.743830 0.499930 0.499960 -0.181790
O1    O     O_R   0.417730 0.629750 0.499970 -0.581622
O2    O     O_R   0.582270 0.370250 0.500030 -0.584550
O3    O     O_R   0.582270 0.629730 0.499980 -0.589779
O4    O     O_R   0.417730 0.370270 0.500020 -0.588978
O5    O     O_R   0.371590 0.500020 0.629830 -0.582789
O6    O     O_R   0.628410 0.499980 0.370170 -0.581666
O7    O     O_R   0.536130 0.499990 0.629840 -0.591846
O8    O     O_R   0.463870 0.500010 0.370160 -0.589737
O9    O     O_3   0.833276 0.327439 0.679049 -0.741758
H21   H     H_    0.762739 0.353554 0.699455 0.299574
O10   O     O_3   0.166679 0.672444 0.321097 -0.740263
H22   H     H_    0.236661 0.645221 0.299723 0.300029
C53   C     C_3   0.770707 0.401079 0.223298 -0.396935
C54   C     C_3   0.858940 0.465338 0.220126 -0.322550
C55   C     C_3   0.934423 0.422460 0.259500 -0.831195
H23   H     H_    0.892640 0.401792 0.330643 0.266175
H24   H     H_    0.971480 0.363419 0.219474 0.249273
H25   H     H_    0.996674 0.470745 0.257424 0.242728
H26   H     H_    0.903060 0.485154 0.149038 0.208910
H27   H     H_    0.825872 0.526183 0.258629 0.225331
H28   H     H_    0.727381 0.378165 0.293235 0.211655
H29   H     H_    0.805454 0.339646 0.186340 0.183160
C56   C     C_3   0.205513 0.548225 0.787750 -0.387334
C57   C     C_3   0.214947 0.640068 0.742976 -0.332546
C58   C     C_3   0.127474 0.655367 0.705951 -0.805659
H30   H     H_    0.050252 0.651671 0.761264 0.244029
H31   H     H_    0.136655 0.722158 0.673951 0.242569
H32   H     H_    0.130447 0.604953 0.654394 0.263850
H33   H     H_    0.210594 0.692137 0.793592 0.206518
H34   H     H_    0.290848 0.647297 0.686777 0.232217
H35   H     H_    0.203397 0.494205 0.741221 0.209940
H36   H     H_    0.128019 0.544308 0.842980 0.180612
C59   C     C_3   0.450717 0.233383 0.350077 -0.414948
C60   C     C_3   0.540787 0.221605 0.259693 -0.374232
C61   C     C_3   0.511685 0.257024 0.181299 -0.815134
H37   H     H_    0.447802 0.216232 0.173383 0.248753
H38   H     H_    0.485524 0.326898 0.193357 0.265633
H39   H     H_    0.580547 0.254034 0.117862 0.248502
H40   H     H_    0.610418 0.258225 0.261781 0.213644
H41   H     H_    0.562526 0.150715 0.247081 0.230227
H42   H     H_    0.375409 0.210081 0.346266 0.198594
H43   H     H_    0.440349 0.305542 0.360876 0.220134
C62   C     C_3   0.555191 0.766368 0.648259 -0.417165
C63   C     C_3   0.468252 0.776213 0.740834 -0.374163
C64   C     C_3   0.502988 0.741504 0.816412 -0.815463
H44   H     H_    0.531360 0.672313 0.802695 0.263938
H45   H     H_    0.566739 0.783942 0.822315 0.248315
H46   H     H_    0.436185 0.742619 0.881473 0.248807
H47   H     H_    0.444280 0.846476 0.754838 0.229855
H48   H     H_    0.398896 0.737803 0.741314 0.209863
H49   H     H_    0.566829 0.694473 0.636451 0.222332
H50   H     H_    0.631251 0.790816 0.649499 0.199106

loop_
_geom_bond_atom_site_label_1
_geom_bond_atom_site_label_2
_ccdc_geom_bond_type
O10   H22   S    
C58   H30   S    
C27   C29   A    
C34   C37   A    
C1    O1    A    
C19   H17   S    
C61   H37   S    
C59   H42   S    
C54   H26   S    
C47   C49   A    
Cu1   Cu2   S    
C40   C46   A    
C56   H36   S    
C57   H33   S    
C23   O7    A    
Cu1   O8    S    
C37   O9    S    
C35   C37   A    
C43   C56   S    
C20   C22   A    
C36   H8    S    
C11   C59   S    
C15   C16   A    
C18   C21   A    
C21   H19   S    
Cu1   O5    S    
C45   C47   A    
C24   O6    A    
C60   C61   S    
C64   H46   S    
C26   C34   A    
C56   C57   S    
C7    C17   A    
C26   N2    A    
C31   C33   A    
C39   C45   A    
C62   H50   S    
C48   C50   A    
C58   H31   S    
C41   C43   A    
C5    C49   A    
Cu1   N1    S    
C42   C44   A    
C27   N1    A    
C41   C49   A    
Cu2   O7    S    
C59   H43   S    
C28   H6    S    
C46   C48   A    
C13   C19   A    
C4    C51   A    
C51   C52   A    
C25   H3    S    
C14   C20   A    
Cu1   O4    S    
C35   H7    S    
C55   H23   S    
C4    H14   S    
C63   H47   S    
C39   C43   A    
O9    H21   S    
C53   H29   S    
C8    C18   A    
C53   H28   S    
C25   N1    A    
C32   C34   A    
Cu1   O1    S    
C2    O2    A    
C55   H24   S    
C12   C62   S    
C26   H4    S    
C31   C32   A    
C40   C44   A    
C62   C63   S    
C61   H38   S    
C16   C18   A    
C6    C50   A    
C9    C11   A    
C64   H44   S    
C10   C12   A    
C42   C50   A    
Cu2   N2    S    
C4    C6    A    
C12   C14   A    
C58   H32   S    
C13   C15   A    
C1    O3    A    
C14   C16   A    
C22   H20   S    
C28   N2    A    
C60   H41   S    
Cu2   O6    S    
C63   C64   S    
Cu2   O3    S    
C15   C17   A    
C23   O5    A    
C19   C21   A    
C8    H16   S    
C5    H1    S    
C3    H13   S    
C1    C10   S    
C33   C38   A    
C6    H2    S    
C3    C5    A    
C7    H15   S    
C47   C51   A    
C3    C52   A    
C54   H27   S    
C56   H35   S    
C29   C35   A    
C45   H10   S    
C57   H34   S    
C17   C22   A    
C30   C36   A    
C38   O10   S    
C28   C30   A    
C24   O8    A    
C29   C31   A    
C27   H5    S    
C59   C60   S    
C55   H25   S    
C30   C32   A    
C11   C13   A    
C54   C55   S    
C46   H9    S    
C23   C39   S    
C36   C38   A    
C57   C58   S    
C24   C40   S    
C61   H39   S    
C63   H48   S    
C41   H11   S    
C64   H45   S    
C2    O4    A    
C7    C9    A    
C48   C52   A    
C8    C10   A    
C42   H12   S    
C20   H18   S    
C53   C54   S    
C2    C9    S    
C60   H40   S    
C44   C53   S    
C25   C33   A    
Cu2   O2    S    
C62   H49   S    
