data_mof_unit_18866.cif
_audit_creation_date              2012-12-10T17:18:20-0500
_audit_creation_method            fapswitch 2.2
_symmetry_space_group_name_H-M    P1
_symmetry_Int_Tables_number       1
_space_group_crystal_system       triclinic
_cell_length_a                    10.128839
_cell_length_b                    10.778851
_cell_length_c                    14.997193
_cell_angle_alpha                 89.902793
_cell_angle_beta                  80.864645
_cell_angle_gamma                 96.959326
_cell_volume                      1604.30767859

loop_
_atom_site_label
_atom_site_type_symbol
_atom_type_description
_atom_site_fract_x
_atom_site_fract_y
_atom_site_fract_z
_atom_type_partial_charge
C1    C     C_R   0.558982 0.733410 0.489541 0.916967
C2    C     C_2   0.070232 0.483560 0.498316 0.664672
C3    C     C_R   0.499797 0.498554 0.673192 0.911186
C4    C     C_R   0.500211 0.501456 0.326806 0.910223
C5    C     C_R   0.588973 0.435655 0.176305 -0.254701
C6    C     C_R   0.411104 0.564430 0.823685 -0.258009
C7    C     C_R   0.500195 0.503447 0.231019 -0.226072
C8    C     C_R   0.499859 0.496615 0.768974 -0.224183
C9    C     C_R   0.411665 0.571915 0.194517 0.663834
C10   C     C_R   0.588444 0.428202 0.805469 0.667016
C11   C     C_R   0.410380 0.571060 0.101830 -0.159105
C12   C     C_R   0.441013 0.266595 0.510480 0.917901
C13   C     C_R   0.589758 0.429090 0.898152 -0.160034
C14   C     C_R   0.499937 0.501275 0.046503 -0.052311
C15   C     C_R   0.500201 0.498874 0.953479 -0.052377
C16   C     C_R   0.589419 0.433842 0.084154 0.059805
C17   C     C_R   0.410705 0.566291 0.915830 0.060730
C18   C     C_R   0.321981 0.637912 0.063081 0.700783
C19   C     C_R   0.678174 0.362256 0.936899 0.699823
C20   C     C_3   0.251607 0.081022 0.520884 -0.413332
C21   C     C_3   0.165779 0.114815 0.609595 -0.352928
C22   C     C_3   0.017811 0.063126 0.613478 -0.733566
C23   C     C_R   0.322507 0.635170 0.970523 -0.269969
C24   C     C_3   0.748346 0.919008 0.479228 -0.420047
C25   C     C_3   0.834132 0.885399 0.390451 -0.358158
C26   C     C_3   0.982059 0.937306 0.386483 -0.732188
C27   C     C_R   0.677636 0.364985 0.029459 -0.269069
C28   C     C_2   0.600172 0.868043 0.482440 -0.155721
C29   C     C_2   0.399790 0.131975 0.517661 -0.157342
C30   C     C_2   0.501685 0.939453 0.478135 0.478391
C31   C     C_2   0.498249 0.060557 0.522020 0.474715
C32   C     C_2   0.926463 0.506418 0.509503 0.670717
F1    F     F_    0.329493 0.640858 0.249122 -0.566980
F2    F     F_    0.887273 0.368284 0.400806 -0.542964
F3    F     F_    0.670634 0.359274 0.750864 -0.566865
F4    F     F_    0.234612 0.705660 0.114035 -0.588074
F5    F     F_    0.765554 0.294519 0.885944 -0.589122
F6    F     F_    0.599516 0.104983 0.567807 -0.655420
F7    F     F_    0.400398 0.895045 0.432358 -0.651667
F8    F     F_    0.112535 0.387797 0.446963 -0.636758
F9    F     F_    0.879697 0.589140 0.571419 -0.626494
F10   F     F_    0.119307 0.650551 0.583090 -0.545495
H1    H     H_    0.656462 0.382683 0.205753 0.206009
H2    H     H_    0.214171 0.119142 0.461997 0.252642
H3    H     H_    0.235636 0.977966 0.518563 0.285213
H4    H     H_    0.993099 0.040763 0.391211 0.272556
H5    H     H_    0.023764 0.896565 0.442482 0.278319
H6    H     H_    0.040751 0.912366 0.321430 0.288653
H7    H     H_    0.828623 0.782758 0.382585 0.261530
H8    H     H_    0.795784 0.925005 0.332427 0.243454
H9    H     H_    0.764295 0.022052 0.481668 0.283646
H10   H     H_    0.785836 0.880760 0.538049 0.248880
H11   H     H_    0.343594 0.617379 0.794239 0.203867
H12   H     H_    0.253800 0.687051 0.941550 0.187352
H13   H     H_    0.746340 0.313100 0.058433 0.187883
H14   H     H_    0.976281 0.103938 0.557428 0.278046
H15   H     H_    0.006603 0.959665 0.608774 0.272816
H16   H     H_    0.959088 0.088169 0.678492 0.287428
H17   H     H_    0.203959 0.075175 0.667678 0.241675
H18   H     H_    0.171435 0.217466 0.617425 0.262227
N1    N     N_2   0.842700 0.448880 0.462930 0.100527
N2    N     N_2   0.157300 0.551120 0.537070 0.103034
O1    O     O_R   0.431060 0.692470 0.507460 -0.524925
O2    O     O_R   0.568940 0.307530 0.492540 -0.533392
O3    O     O_R   0.651120 0.659650 0.483670 -0.627529
O4    O     O_R   0.348880 0.340350 0.516330 -0.620085
O5    O     O_R   0.389960 0.516440 0.644050 -0.629274
O6    O     O_R   0.610040 0.483560 0.355950 -0.620827
O7    O     O_R   0.610030 0.483620 0.620260 -0.517368
O8    O     O_R   0.389970 0.516380 0.379740 -0.523783
Zn1   Zn    Zn3+2 0.353060 0.521920 0.515880 1.137318
Zn2   Zn    Zn3+2 0.646940 0.478080 0.484120 1.136292

loop_
_geom_bond_atom_site_label_1
_geom_bond_atom_site_label_2
_ccdc_geom_bond_type
C24   H10   S    
O7    Zn2   S    
C22   H14   S    
C32   F9    S    
C5    C7    A    
C11   C18   A    
C22   H16   S    
C10   F3    S    
C2    F8    S    
C12   C29   S    
C1    C28   S    
O3    Zn2   S    
C19   C27   A    
F10   N2    S    
C27   H13   S    
C1    O3    A    
C20   H3    S    
C14   C15   A    
C31   F6    S    
C26   H6    S    
O6    Zn2   S    
C24   H9    S    
C4    O8    A    
C5    H1    S    
N2    Zn1   S    
C29   C31   D    
C21   C22   S    
C24   C25   S    
C9    F1    S    
C2    N2    D    
C9    C11   A    
C21   H18   S    
C17   C23   A    
C12   O4    A    
C26   H5    S    
C16   C27   A    
C4    C7    S    
C1    O1    A    
N1    Zn2   S    
C28   C30   D    
C20   H2    S    
O1    Zn1   S    
C30   F7    S    
C21   H17   S    
O5    Zn1   S    
C20   C29   S    
O2    Zn2   S    
C13   C15   A    
C30   C31   S    
C12   O2    A    
C11   C14   A    
C14   C16   A    
F2    N1    S    
C26   H4    S    
C6    H11   S    
C18   C23   A    
C7    C9    A    
O8    Zn1   S    
C20   C21   S    
C23   H12   S    
C2    C32   S    
C3    C8    S    
C22   H15   S    
C4    O6    A    
C6    C17   A    
C13   C19   A    
C25   H8    S    
C5    C16   A    
C6    C8    A    
C19   F5    S    
C3    O7    A    
C25   C26   S    
C15   C17   A    
C18   F4    S    
C10   C13   A    
C8    C10   A    
C3    O5    A    
C32   N1    D    
O4    Zn1   S    
C24   C28   S    
C25   H7    S    
