data_mof_unit_11070.cif
_audit_creation_date              2012-12-10T17:47:38-0500
_audit_creation_method            fapswitch 2.2
_symmetry_space_group_name_H-M    P1
_symmetry_Int_Tables_number       1
_space_group_crystal_system       triclinic
_cell_length_a                    10.62826
_cell_length_b                    10.608354
_cell_length_c                    9.955536
_cell_angle_alpha                 90.906058
_cell_angle_beta                  90.167724
_cell_angle_gamma                 93.196842
_cell_volume                      1120.57517303

loop_
_atom_site_label
_atom_site_type_symbol
_atom_type_description
_atom_site_fract_x
_atom_site_fract_y
_atom_site_fract_z
_atom_type_partial_charge
C1    C     C_R   0.517497 0.262563 0.499426 0.908564
C2    C     C_3   0.878590 0.510770 0.500613 0.085435
C3    C     C_3   0.929696 0.547704 0.359770 -0.443680
C4    C     C_3   0.920654 0.378529 0.537423 -0.415783
C5    C     C_R   0.671545 0.143734 0.710444 -0.186719
C6    C     C_R   0.730860 0.082307 0.813703 -0.129831
C7    C     C_R   0.730429 0.951265 0.813365 -0.118334
C8    C     C_R   0.669971 0.880915 0.710250 -0.174210
C9    C     C_R   0.605079 0.941041 0.607005 0.111370
C10   C     C_R   0.607006 0.074143 0.606368 0.110127
C11   C     C_R   0.549697 0.132498 0.496573 -0.131868
C12   C     C_R   0.258291 0.505568 0.500016 0.939872
C13   C     C_R   0.520271 0.063595 0.379517 -0.182791
C14   C     C_R   0.511253 0.935452 0.382687 -0.160574
C15   C     C_R   0.542464 0.873753 0.499798 -0.126907
C16   C     C_R   0.283986 0.389748 0.127929 0.191598
C17   C     C_R   0.175070 0.371922 0.048814 -0.195007
C18   C     C_R   0.187389 0.352631 0.912275 -0.224586
C19   C     C_R   0.304313 0.373942 0.853649 -0.125936
C20   C     C_R   0.402265 0.438710 0.925105 0.147954
C21   C     C_R   0.398316 0.441358 0.069268 0.128434
C22   C     C_R   0.596185 0.555667 0.072745 -0.111406
C23   C     C_R   0.513463 0.739944 0.500831 0.905413
C24   C     C_R   0.595501 0.556713 0.930014 -0.114369
C25   C     C_R   0.742057 0.506405 0.500251 0.825310
C26   C     C_3   0.077256 0.604611 0.611438 0.066904
C27   C     C_3   0.932835 0.610063 0.604762 -0.446716
C28   C     C_3   0.072975 0.550331 0.360241 0.519663
C29   C     C_3   0.064321 0.377405 0.531071 -0.565680
C30   C     C_3   0.121728 0.511399 0.500346 -0.017770
H1    H     H_    0.877839 0.305432 0.467018 0.183482
H2    H     H_    0.101659 0.482002 0.282862 0.088596
H3    H     H_    0.893544 0.478020 0.281972 0.147631
H4    H     H_    0.494923 0.107662 0.287125 0.202004
H5    H     H_    0.682763 0.245444 0.710484 0.162682
H6    H     H_    0.780592 0.136774 0.892134 0.137384
H7    H     H_    0.779913 0.903969 0.891462 0.140438
H8    H     H_    0.680579 0.780391 0.709817 0.145449
H9    H     H_    0.474004 0.885385 0.294169 0.197378
H10   H     H_    0.674657 0.601766 0.127022 0.140658
H11   H     H_    0.102260 0.567821 0.711643 0.149740
H12   H     H_    0.085346 0.342344 0.093177 0.154167
H13   H     H_    0.108349 0.312157 0.854594 0.154561
H14   H     H_    0.316617 0.338351 0.753676 0.205763
H15   H     H_    0.673567 0.603576 0.877906 0.129292
H16   H     H_    0.893253 0.591645 0.706440 0.167874
H17   H     H_    0.905727 0.705704 0.575739 0.192808
H18   H     H_    0.897296 0.641815 0.331565 0.208229
H19   H     H_    0.090031 0.308940 0.452164 0.220337
H20   H     H_    0.101208 0.343262 0.627396 0.198799
H21   H     H_    0.888816 0.353974 0.640664 0.188165
N1    N     N_R   0.498810 0.498800 0.142780 -0.111820
N2    N     N_R   0.498760 0.498720 0.857170 -0.116889
O1    O     O_R   0.500000 0.316780 0.614690 -0.644754
O2    O     O_R   0.499990 0.316750 0.385360 -0.596620
O3    O     O_R   0.314800 0.499990 0.614670 -0.640577
O4    O     O_R   0.314790 0.499970 0.385330 -0.583765
O5    O     O_R   0.500010 0.683250 0.614640 -0.605806
O6    O     O_R   0.500000 0.683220 0.385310 -0.606860
O7    O     O_R   0.685210 0.500030 0.614670 -0.653831
O8    O     O_R   0.685200 0.500010 0.385330 -0.637450
Zn1   Zn    Zn3+2 0.500010 0.500020 0.653130 0.936015
Zn2   Zn    Zn3+2 0.499990 0.499980 0.346870 0.979500
I1    I     I_    0.167734 0.792211 0.607730 -0.267102
I2    I     I_    0.267507 0.231254 0.253945 -0.403237
F1    F     F_    0.122625 0.668574 0.324344 -0.630721

loop_
_geom_bond_atom_site_label_1
_geom_bond_atom_site_label_2
_ccdc_geom_bond_type
O5    Zn1   S    
C23   O5    A    
C2    C4    S    
C1    O1    A    
O4    Zn2   S    
C16   C21   A    
C25   O7    A    
C26   I1    S    
C2    C25   S    
N2    Zn1   S    
O6    Zn2   S    
C19   C20   A    
C1    C11   S    
C28   H2    S    
C2    C27   S    
C22   H10   S    
C15   C23   S    
C17   C18   A    
C9    C15   A    
C13   H4    S    
C7    C8    A    
C25   O8    A    
C13   C14   A    
C19   H14   S    
C23   O6    A    
C11   C13   A    
C20   N2    A    
C26   C27   S    
C29   C30   S    
C8    H8    S    
C12   O4    A    
C5    H5    S    
C27   H16   S    
C28   C30   S    
C3    C28   S    
C12   O3    A    
C6    H6    S    
C26   C30   S    
C6    C7    A    
C2    C3    S    
C29   H20   S    
C1    O2    A    
C5    C6    A    
C22   C24   A    
C4    H1    S    
C10   C11   A    
C24   H15   S    
C4    H21   S    
C3    H18   S    
C5    C10   A    
C20   C21   A    
C24   N2    A    
O7    Zn1   S    
C18   C19   A    
C9    C10   A    
C17   H12   S    
C27   H17   S    
O8    Zn2   S    
C3    H3    S    
C28   F1    S    
C16   C17   A    
C29   H19   S    
C16   I2    S    
O1    Zn1   S    
C22   N1    A    
C14   H9    S    
C18   H13   S    
C12   C30   S    
O3    Zn1   S    
C21   N1    A    
C4    C29   S    
C14   C15   A    
C26   H11   S    
C8    C9    A    
C7    H7    S    
N1    Zn2   S    
O2    Zn2   S    
