data_mof_unit_47902.cif
_audit_creation_date              2012-12-11T16:07:26-0500
_audit_creation_method            fapswitch 2.2
_symmetry_space_group_name_H-M    P1
_symmetry_Int_Tables_number       1
_space_group_crystal_system       triclinic
_cell_length_a                    17.106922
_cell_length_b                    17.184101
_cell_length_c                    17.292463
_cell_angle_alpha                 90.000169
_cell_angle_beta                  90.000051
_cell_angle_gamma                 89.930307
_cell_volume                      5083.41101475

loop_
_atom_site_label
_atom_site_type_symbol
_atom_type_description
_atom_site_fract_x
_atom_site_fract_y
_atom_site_fract_z
_atom_type_partial_charge
C1    C     C_R   0.396106 0.695188 0.613770 -0.087417
C2    C     C_R   0.580242 0.673256 0.643403 -0.070689
C3    C     C_3   0.783576 0.210916 0.638713 -0.359031
C4    C     C_3   0.714153 0.820306 0.316846 -0.380939
C5    C     C_3   0.338292 0.234472 0.769755 -0.399290
C6    C     C_3   0.731157 0.261320 0.291156 -0.389857
C7    C     C_3   0.216449 0.789127 0.638706 -0.359026
C8    C     C_3   0.785845 0.679692 0.816849 -0.380928
C9    C     C_3   0.161693 0.265519 0.269771 -0.399261
C10   C     C_3   0.768805 0.238646 0.791169 -0.389848
C11   C     C_3   0.283541 0.710867 0.138708 -0.359035
C12   C     C_3   0.214164 0.320309 0.816862 -0.380944
C13   C     C_R   0.668603 0.424117 0.353461 -0.078946
C14   C     C_3   0.838306 0.734480 0.269770 -0.399267
C15   C     C_3   0.231160 0.761326 0.791155 -0.389858
C16   C     C_3   0.716455 0.289128 0.138708 -0.359031
C17   C     C_R   0.304253 0.602664 0.613902 -0.087930
C18   C     C_R   0.606194 0.698707 0.396173 -0.073974
C19   C     C_R   0.419754 0.326740 0.643400 -0.070705
C20   C     C_R   0.331396 0.575883 0.353462 -0.078938
C21   C     C_R   0.695743 0.397337 0.613911 -0.087932
C22   C     C_R   0.896106 0.195187 0.113771 -0.087409
C23   C     C_R   0.076056 0.832104 0.853124 -0.098244
C24   C     C_R   0.171591 0.079326 0.144778 -0.031543
C25   C     C_R   0.576056 0.332104 0.353124 -0.098240
C26   C     C_R   0.801238 0.892741 0.896180 -0.035856
C27   C     C_R   0.103895 0.804812 0.113770 -0.087412
C28   C     C_R   0.923945 0.167898 0.853126 -0.098221
C29   C     C_R   0.828409 0.920673 0.144778 -0.031543
C30   C     C_R   0.198763 0.107258 0.896182 -0.035850
C31   C     C_R   0.893805 0.801293 0.896174 -0.073973
C32   C     C_R   0.080242 0.173256 0.143403 -0.070689
C33   C     C_R   0.168602 0.924118 0.853461 -0.078941
C34   C     C_R   0.804253 0.102663 0.113903 -0.087940
C35   C     C_R   0.106196 0.198707 0.896176 -0.073965
C36   C     C_R   0.671590 0.579326 0.644779 -0.031532
C37   C     C_R   0.919757 0.826743 0.143402 -0.070683
C38   C     C_R   0.831401 0.075883 0.853458 -0.078968
C39   C     C_R   0.195747 0.897337 0.113902 -0.087934
C40   C     C_3   0.266324 0.263995 0.340154 -0.276914
C41   C     C_3   0.681015 0.681144 0.745948 -0.266587
C42   C     C_3   0.322296 0.676902 0.253286 -0.249040
C43   C     C_3   0.730572 0.272043 0.677523 -0.252612
C44   C     C_3   0.733676 0.736005 0.340155 -0.276919
C45   C     C_3   0.318980 0.318851 0.745943 -0.266595
C46   C     C_3   0.677703 0.323098 0.253286 -0.249041
C47   C     C_R   0.301238 0.392742 0.396179 -0.035854
C48   C     C_3   0.269416 0.727961 0.677506 -0.252606
C49   C     C_3   0.766323 0.763993 0.840158 -0.276920
C50   C     C_3   0.181015 0.181145 0.245946 -0.266589
C51   C     C_3   0.822301 0.176910 0.753290 -0.249045
C52   C     C_3   0.230585 0.772042 0.177508 -0.252606
C53   C     C_3   0.233678 0.236005 0.840159 -0.276911
C54   C     C_3   0.818984 0.818854 0.245946 -0.266591
C55   C     C_3   0.177701 0.823099 0.753285 -0.249039
C56   C     C_3   0.769416 0.227958 0.177509 -0.252608
C57   C     C_R   0.322581 0.675883 0.639029 0.207417
C58   C     C_R   0.603887 0.304816 0.613780 -0.087437
C59   C     C_R   0.633626 0.367114 0.309261 0.232886
C60   C     C_R   0.639830 0.640413 0.685721 0.203709
C61   C     C_R   0.317168 0.316173 0.380688 0.210999
C62   C     C_R   0.677408 0.324123 0.639047 0.207446
C63   C     C_R   0.366372 0.632886 0.309261 0.232886
C64   C     C_R   0.360165 0.359582 0.685717 0.203712
C65   C     C_R   0.682832 0.683828 0.380689 0.211005
C66   C     C_R   0.822581 0.175881 0.139031 0.207420
C67   C     C_R   0.133625 0.867115 0.809260 0.232889
C68   C     C_R   0.139830 0.140414 0.185721 0.203709
C69   C     C_R   0.423943 0.667896 0.353124 -0.098248
C70   C     C_R   0.817167 0.816171 0.880692 0.211004
C71   C     C_R   0.177419 0.824119 0.139030 0.207418
C72   C     C_R   0.866378 0.132888 0.809260 0.232898
C73   C     C_R   0.860169 0.859586 0.185720 0.203709
C74   C     C_R   0.182835 0.183829 0.880696 0.210996
C75   C     C_3   0.767130 0.702238 0.732800 0.448233
C76   C     C_3   0.180601 0.243255 0.354309 0.473739
C77   C     C_3   0.702687 0.212608 0.737288 0.446512
C78   C     C_3   0.350500 0.736447 0.193795 0.464031
C79   C     C_3   0.232860 0.297770 0.732808 0.448245
C80   C     C_R   0.328406 0.420671 0.644776 -0.031538
C81   C     C_3   0.819400 0.756744 0.354308 0.473743
C82   C     C_3   0.297306 0.787360 0.737305 0.446539
C83   C     C_3   0.649500 0.263547 0.193799 0.464020
C84   C     C_3   0.744325 0.348765 0.200088 0.463440
C85   C     C_3   0.202875 0.702181 0.730927 0.442386
C86   C     C_3   0.751876 0.714515 0.256306 0.461635
C87   C     C_3   0.301278 0.341307 0.829771 0.488070
C88   C     C_3   0.255670 0.651235 0.200092 0.463431
C89   C     C_3   0.797085 0.297827 0.730976 0.442421
C90   C     C_3   0.248122 0.285486 0.256306 0.461635
C91   C     C_R   0.698762 0.607258 0.396179 -0.035854
C92   C     C_3   0.698735 0.658680 0.829771 0.488075
C93   C     C_3   0.267130 0.202242 0.232795 0.448231
C94   C     C_3   0.680599 0.743254 0.854311 0.473732
C95   C     C_3   0.202694 0.712653 0.237315 0.446547
C96   C     C_3   0.850499 0.236502 0.693840 0.463976
C97   C     C_3   0.732869 0.797759 0.232797 0.448231
C98   C     C_3   0.319406 0.256729 0.854298 0.473743
C99   C     C_3   0.797306 0.287353 0.237311 0.446538
C100  C     C_3   0.149498 0.763544 0.693801 0.464022
C101  C     C_3   0.244319 0.848768 0.700082 0.463437
C102  C     C_R   0.393806 0.301293 0.396172 -0.073977
C103  C     C_3   0.702871 0.202180 0.230926 0.442393
C104  C     C_3   0.251858 0.214521 0.756306 0.461649
C105  C     C_3   0.801263 0.841318 0.329769 0.488063
C106  C     C_3   0.755711 0.151237 0.700055 0.463470
C107  C     C_3   0.297134 0.797820 0.230920 0.442388
C108  C     C_3   0.748124 0.785483 0.756309 0.461627
C109  C     C_3   0.198739 0.158681 0.329769 0.488059
C110  C     C_3   0.285847 0.179695 0.316844 -0.380941
C111  C     C_3   0.661693 0.765518 0.769772 -0.399279
C112  C     C_3   0.268847 0.738684 0.291155 -0.389861
Cl1   Cl    Cl    0.828756 0.678777 0.652714 -0.422799
Cl2   Cl    Cl    0.174241 0.605704 0.756172 -0.520731
Cl3   Cl    Cl    0.717351 0.631758 0.204520 -0.421886
Cl4   Cl    Cl    0.335984 0.427008 0.876217 -0.411405
Cl5   Cl    Cl    0.227219 0.554555 0.177135 -0.448216
Cl6   Cl    Cl    0.825664 0.394308 0.756265 -0.520715
Cl7   Cl    Cl    0.282645 0.368243 0.204520 -0.421897
Cl8   Cl    Cl    0.664050 0.572968 0.876216 -0.411355
Cl9   Cl    Cl    0.328754 0.178782 0.152708 -0.422796
Cl10  Cl    Cl    0.625366 0.771496 0.936965 -0.386011
Cl11  Cl    Cl    0.105429 0.696253 0.270781 -0.531878
Cl12  Cl    Cl    0.125370 0.271496 0.436964 -0.386040
Cl13  Cl    Cl    0.949342 0.250622 0.664656 -0.408981
Cl14  Cl    Cl    0.671243 0.821221 0.152711 -0.422792
Cl15  Cl    Cl    0.374649 0.228470 0.936937 -0.386046
Cl16  Cl    Cl    0.894572 0.303760 0.270772 -0.531891
Cl17  Cl    Cl    0.050656 0.749480 0.664585 -0.408905
Cl18  Cl    Cl    0.272754 0.945451 0.677117 -0.448204
Cl19  Cl    Cl    0.674231 0.105704 0.256165 -0.520718
Cl20  Cl    Cl    0.217313 0.131774 0.704520 -0.421890
Cl21  Cl    Cl    0.835947 0.927030 0.376214 -0.411381
Cl22  Cl    Cl    0.727326 0.054552 0.677040 -0.448087
Cl23  Cl    Cl    0.605418 0.196137 0.770710 -0.531907
Cl24  Cl    Cl    0.325781 0.894295 0.256154 -0.520724
Cl25  Cl    Cl    0.782650 0.868238 0.704523 -0.421879
Cl26  Cl    Cl    0.164056 0.072969 0.376213 -0.411413
Cl27  Cl    Cl    0.449341 0.750498 0.164570 -0.408890
Cl28  Cl    Cl    0.171225 0.321249 0.652737 -0.422787
Cl29  Cl    Cl    0.874633 0.728502 0.436962 -0.386010
Cl30  Cl    Cl    0.394572 0.803774 0.770762 -0.531891
Cl31  Cl    Cl    0.550658 0.249489 0.164578 -0.408909
Cl32  Cl    Cl    0.772769 0.445446 0.177125 -0.448191
H1    H     H_    0.422278 0.752411 0.613027 0.151847
H2    H     H_    0.546507 0.724481 0.657134 0.140844
H3    H     H_    0.719422 0.458286 0.338836 0.168009
H4    H     H_    0.247121 0.575958 0.612537 0.167329
H5    H     H_    0.577426 0.754770 0.396788 0.123474
H6    H     H_    0.453486 0.275514 0.657130 0.140844
H7    H     H_    0.280577 0.541714 0.338837 0.168011
H8    H     H_    0.752876 0.424041 0.612551 0.167306
H9    H     H_    0.922278 0.252410 0.113029 0.151847
H10   H     H_    0.042070 0.781423 0.837989 0.160389
H11   H     H_    0.221928 0.044866 0.160413 0.164171
H12   H     H_    0.542071 0.281423 0.337989 0.160388
H13   H     H_    0.744484 0.920563 0.896080 0.148101
H14   H     H_    0.077722 0.747589 0.113028 0.151842
H15   H     H_    0.957930 0.218581 0.837995 0.160402
H16   H     H_    0.778071 0.955133 0.160413 0.164171
H17   H     H_    0.255516 0.079436 0.896081 0.148113
H18   H     H_    0.922574 0.745229 0.896790 0.123475
H19   H     H_    0.046508 0.224482 0.157133 0.140842
H20   H     H_    0.219421 0.958287 0.838835 0.168007
H21   H     H_    0.747122 0.075957 0.112538 0.167329
H22   H     H_    0.077428 0.254771 0.896791 0.123481
H23   H     H_    0.721928 0.544867 0.660414 0.164172
H24   H     H_    0.953492 0.775518 0.157132 0.140842
H25   H     H_    0.780582 0.041714 0.838829 0.167996
H26   H     H_    0.252878 0.924043 0.112537 0.167332
H27   H     H_    0.336685 0.144801 0.336650 0.231308
H28   H     H_    0.611180 0.801526 0.751194 0.239430
H29   H     H_    0.262819 0.749909 0.354169 0.223602
H30   H     H_    0.788494 0.200869 0.575483 0.231276
H31   H     H_    0.663316 0.855200 0.336653 0.231309
H32   H     H_    0.388795 0.198459 0.751163 0.239433
H33   H     H_    0.737189 0.250100 0.354170 0.223603
H34   H     H_    0.244485 0.420563 0.396078 0.148108
H35   H     H_    0.211555 0.799203 0.575478 0.231276
H36   H     H_    0.836682 0.644798 0.836657 0.231312
H37   H     H_    0.111178 0.301526 0.251195 0.239432
H38   H     H_    0.762745 0.249834 0.854187 0.223601
H39   H     H_    0.288428 0.700784 0.075481 0.231274
H40   H     H_    0.163337 0.355208 0.836683 0.231312
H41   H     H_    0.888820 0.698472 0.251192 0.239431
H42   H     H_    0.237196 0.750107 0.854169 0.223601
H43   H     H_    0.711564 0.299206 0.075480 0.231275
H44   H     H_    0.577715 0.247593 0.613035 0.151870
H45   H     H_    0.457929 0.718577 0.337988 0.160386
H46   H     H_    0.278070 0.455132 0.660411 0.164177
H47   H     H_    0.755515 0.579437 0.396079 0.148106
H48   H     H_    0.422574 0.245230 0.396788 0.123475
N1    N     N_R   0.424590 0.632770 0.578330 -0.062031
N2    N     N_R   0.575410 0.632770 0.578330 -0.064860
N3    N     N_R   0.632770 0.424590 0.421670 -0.067874
N4    N     N_R   0.367230 0.575410 0.578330 -0.064887
N5    N     N_R   0.575410 0.632770 0.421670 -0.058831
N6    N     N_R   0.424590 0.367230 0.578330 -0.064859
N7    N     N_R   0.367230 0.575410 0.421670 -0.067875
N8    N     N_R   0.632770 0.424590 0.578330 -0.064885
N9    N     N_R   0.924590 0.132770 0.078330 -0.062031
N10   N     N_R   0.075410 0.867230 0.921670 -0.066400
N11   N     N_R   0.132770 0.075410 0.078330 -0.063896
N12   N     N_R   0.575410 0.367230 0.421670 -0.066398
N13   N     N_R   0.867230 0.924590 0.921670 -0.062443
N14   N     N_R   0.075410 0.867230 0.078330 -0.062030
N15   N     N_R   0.924590 0.132770 0.921670 -0.066403
N16   N     N_R   0.867230 0.924590 0.078330 -0.063896
N17   N     N_R   0.132770 0.075410 0.921670 -0.062447
N18   N     N_R   0.924590 0.867230 0.921670 -0.058831
N19   N     N_R   0.075410 0.132770 0.078330 -0.064862
N20   N     N_R   0.132770 0.924590 0.921670 -0.067875
N21   N     N_R   0.867230 0.075410 0.078330 -0.064886
N22   N     N_R   0.075410 0.132770 0.921670 -0.058832
N23   N     N_R   0.632770 0.575410 0.578330 -0.063897
N24   N     N_R   0.924590 0.867230 0.078330 -0.064861
N25   N     N_R   0.867230 0.075410 0.921670 -0.067873
N26   N     N_R   0.132770 0.924590 0.078330 -0.064887
N27   N     N_R   0.367230 0.424590 0.421670 -0.062447
N28   N     N_R   0.575410 0.367230 0.578330 -0.062033
N29   N     N_R   0.424590 0.632770 0.421670 -0.066399
N30   N     N_R   0.367230 0.424590 0.578330 -0.063899
N31   N     N_R   0.632770 0.575410 0.421670 -0.062447
N32   N     N_R   0.424590 0.367230 0.421670 -0.058831
Ni1   Ni    Ni4+2 0.500000 0.631570 0.500000 0.244964
Ni2   Ni    Ni4+2 0.500000 0.368430 0.500000 0.244966
Ni3   Ni    Ni4+2 0.631570 0.500000 0.500000 0.264035
Ni4   Ni    Ni4+2 0.368430 0.500000 0.500000 0.264034
Ni5   Ni    Ni4+2 1.000000 0.131570 0.000000 0.244966
Ni6   Ni    Ni4+2 0.000000 0.868430 0.000000 0.244964
Ni7   Ni    Ni4+2 0.131570 0.000000 0.000000 0.264037
Ni8   Ni    Ni4+2 0.868430 0.000000 0.000000 0.264033

loop_
_geom_bond_atom_site_label_1
_geom_bond_atom_site_label_2
_ccdc_geom_bond_type
C58   C62   A    
C41   C111  S    
N4    Ni4   S    
C35   C74   A    
C110  H27   S    
C46   C59   S    
N14   Ni6   S    
C107  C112  S    
C39   N26   A    
C1    H1    S    
C53   C74   S    
C83   Cl31  S    
C82   Cl30  S    
C25   N12   A    
C78   Cl27  S    
C19   H6    S    
C30   N17   A    
C102  N32   A    
C48   C57   S    
C24   N11   A    
N14   N26   A    
C18   C65   A    
C3    C43   S    
C43   C89   S    
C29   N16   A    
C83   C103  S    
C52   C95   S    
C43   C77   S    
N2    Ni1   S    
C85   Cl2   S    
N6    N30   A    
C90   Cl7   S    
C93   Cl9   S    
C55   C101  S    
C39   H26   S    
C7    C101  S    
C95   C112  S    
C36   N23   A    
C108  Cl25  S    
C30   C74   A    
C33   N20   A    
N31   Ni3   S    
C46   C83   S    
C29   C73   A    
C84   Cl32  S    
C53   C104  S    
C12   C79   S    
N29   Ni1   S    
C94   C111  S    
C16   C84   S    
C35   H22   S    
C36   H23   S    
C26   H13   S    
C111  H28   S    
N17   Ni7   S    
C21   H8    S    
C23   C67   A    
C86   C97   S    
C42   C112  S    
C22   C66   A    
C11   C52   S    
C41   C60   S    
C50   C68   S    
N27   N32   A    
C58   N28   A    
C52   C107  S    
C31   C70   A    
C63   C69   A    
C10   C89   S    
C76   C109  S    
C4    H31   S    
C55   C100  S    
N24   Ni6   S    
C56   C66   S    
C54   C97   S    
C3    C96   S    
C8    C92   S    
C9    C76   S    
C16   C83   S    
C49   C94   S    
C29   H16   S    
C18   H5    S    
N19   Ni5   S    
N7    Ni4   S    
C11   C88   S    
C37   N24   A    
C69   N29   A    
C12   C53   S    
C54   C105  S    
C24   H11   S    
C93   C110  S    
C32   C68   A    
C87   C98   S    
C32   H19   S    
N9    Ni5   S    
C79   Cl28  S    
C5    C104  S    
C75   C108  S    
N16   N24   A    
C4    C97   S    
C25   H12   S    
C64   C80   A    
C38   N25   A    
N11   N19   A    
C44   C65   S    
C28   C72   A    
C2    C60   A    
C44   C86   S    
C10   C51   S    
C14   C81   S    
C34   C66   A    
C8    C75   S    
C10   C77   S    
C15   C82   S    
C81   C105  S    
N25   Ni8   S    
C3    C106  S    
C37   H24   S    
C15   H42   S    
C38   C72   A    
N15   N25   A    
C7    C100  S    
C23   N10   A    
C58   H44   S    
C76   Cl12  S    
C33   H20   S    
C11   H39   S    
C14   C86   S    
C44   C81   S    
C69   H45   S    
N2    N23   A    
C47   N27   A    
N20   Ni7   S    
C24   C68   A    
C100  Cl17  S    
N15   Ni5   S    
C40   C110  S    
N3    N12   A    
C4    C44   S    
C36   C60   A    
C5    C45   S    
C16   H43   S    
C50   C109  S    
C15   C85   S    
C40   C76   S    
C14   H41   S    
C109  Cl26  S    
C27   H14   S    
N8    Ni3   S    
C15   C55   S    
N27   Ni4   S    
C1    N1    A    
C16   C56   S    
C20   N7    A    
C107  Cl24  S    
C11   C78   S    
C1    C57   A    
C41   C75   S    
C54   C73   S    
C8    H36   S    
C3    H30   S    
C102  H48   S    
N8    N28   A    
N30   Ni4   S    
C19   C64   A    
N1    N4    A    
C17   H4    S    
C18   N5    A    
C92   C94   S    
N18   Ni6   S    
N28   Ni2   S    
C45   C79   S    
C6    C103  S    
C89   Cl6   S    
N9    N21   A    
C87   Cl4   S    
N21   Ni8   S    
N16   Ni8   S    
N7    N29   A    
C94   Cl10  S    
C98   Cl15  S    
C14   C54   S    
C42   C78   S    
C49   C70   S    
C6    H33   S    
C104  Cl20  S    
C26   C70   A    
C5    H32   S    
C46   C84   S    
C79   C104  S    
C26   N13   A    
C42   C88   S    
C51   C72   S    
C13   H3    S    
C21   N8    A    
C91   N31   A    
C34   H21   S    
N5    Ni1   S    
C27   C71   A    
C33   C67   A    
C90   C93   S    
C105  Cl21  S    
C6    C99   S    
C95   Cl11  S    
C65   C91   A    
C37   C73   A    
C77   C106  S    
C19   N6    A    
C39   C71   A    
C6    C46   S    
C22   N9    A    
C45   C87   S    
C84   C99   S    
C80   H46   S    
C9    C50   S    
C56   C103  S    
N10   N20   A    
C97   Cl14  S    
N5    N31   A    
C34   N21   A    
N32   Ni2   S    
C9    C90   S    
C47   C61   A    
C55   C67   S    
C86   Cl3   S    
C20   H7    S    
C50   C93   S    
C99   Cl16  S    
C13   C59   A    
N3    Ni3   S    
C53   C98   S    
C2    H2    S    
C77   Cl23  S    
C4    C105  S    
C51   C96   S    
C45   C64   S    
N17   N22   A    
C30   H17   S    
C108  C111  S    
N10   Ni6   S    
C7    H35   S    
C27   N14   A    
C40   C90   S    
C7    C48   S    
C20   C63   A    
C61   C102  A    
C92   Cl8   S    
N1    Ni1   S    
C12   C87   S    
C52   C71   S    
C109  C110  S    
C32   N19   A    
N11   Ni7   S    
C12   H40   S    
C31   N18   A    
C103  Cl19  S    
N13   N18   A    
C89   C96   S    
C51   C106  S    
C10   H38   S    
C8    C49   S    
C81   Cl29  S    
C47   H34   S    
C82   C101  S    
C48   C82   S    
C96   Cl13  S    
C112  H29   S    
N23   Ni3   S    
C28   H15   S    
C91   H47   S    
C35   N22   A    
C49   C108  S    
N26   Ni7   S    
C88   C95   S    
C9    H37   S    
C40   C61   S    
C101  Cl18  S    
C80   N30   A    
C38   H25   S    
C106  Cl22  S    
C41   C92   S    
C5    C98   S    
C13   N3    A    
C23   H10   S    
C85   C100  S    
C28   N15   A    
C31   H18   S    
C48   C85   S    
C78   C107  S    
C17   N4    A    
N13   Ni8   S    
C25   C59   A    
C56   C99   S    
C2    N2    A    
C88   Cl5   S    
C21   C62   A    
N22   Ni5   S    
N12   Ni2   S    
C42   C63   S    
N6    Ni2   S    
C43   C62   S    
C17   C57   A    
C22   H9    S    
C75   Cl1   S    
