data_mof_unit_46362.cif
_audit_creation_date              2012-12-10T20:02:27-0500
_audit_creation_method            fapswitch 2.2
_symmetry_space_group_name_H-M    P1
_symmetry_Int_Tables_number       1
_space_group_crystal_system       triclinic
_cell_length_a                    18.325652
_cell_length_b                    18.428171
_cell_length_c                    18.462253
_cell_angle_alpha                 120.452693
_cell_angle_beta                  120.015985
_cell_angle_gamma                 89.831664
_cell_volume                      4383.79984096

loop_
_atom_site_label
_atom_site_type_symbol
_atom_type_description
_atom_site_fract_x
_atom_site_fract_y
_atom_site_fract_z
_atom_type_partial_charge
C1    C     C_R   0.138419 0.140552 0.780169 0.863304
C2    C     C_R   0.707766 0.769567 0.428228 0.027999
C3    C     C_R   0.787921 0.818205 0.757254 0.299788
C4    C     C_R   0.860242 0.860212 0.220240 0.854975
C5    C     C_R   0.827997 0.834234 0.854124 0.395082
C6    C     C_R   0.899646 0.804986 0.890868 -0.199567
C7    C     C_R   0.931222 0.758966 0.831521 -0.190799
C8    C     C_R   0.892078 0.742322 0.734970 0.398180
C9    C     C_R   0.820290 0.772274 0.697213 -0.062759
C10   C     C_R   0.720249 0.807097 0.052959 -0.079004
C11   C     C_R   0.806498 0.807832 0.109174 -0.113920
C12   C     C_R   0.598243 0.715184 0.243063 0.289718
C13   C     C_R   0.841956 0.758347 0.055442 -0.221718
C14   C     C_R   0.788053 0.701977 0.947822 0.373094
C15   C     C_R   0.697863 0.698524 0.891800 -0.125863
C16   C     C_R   0.859980 0.140028 0.499247 0.838185
C17   C     C_R   0.668214 0.758283 0.947511 -0.149905
C18   C     C_3   0.581975 0.756126 0.940771 0.670584
C19   C     C_3   0.642096 0.804420 0.059116 0.781323
C20   C     C_R   0.229293 0.782905 0.570218 -0.149810
C21   C     C_R   0.203778 0.811689 0.506629 -0.160913
C22   C     C_R   0.244646 0.796416 0.454485 0.531700
C23   C     C_R   0.536189 0.730305 0.172322 -0.130222
C24   C     C_R   0.296176 0.739926 0.453230 -0.291929
C25   C     C_R   0.311457 0.702534 0.507330 -0.068115
C26   C     C_R   0.282418 0.729719 0.570916 -0.092055
C27   C     C_3   0.235556 0.676174 0.584299 -0.429900
C28   C     C_R   0.140918 0.860824 0.500525 0.844268
C29   C     C_3   0.175759 0.734094 0.583180 0.881185
C30   C     C_R   0.219870 0.159545 0.945974 0.069576
C31   C     C_R   0.184734 0.197133 0.891922 -0.240220
C32   C     C_R   0.190645 0.287954 0.948056 0.276847
C33   C     C_R   0.242382 0.340606 0.056310 0.439331
C34   C     C_R   0.530011 0.815598 0.203336 0.599761
C35   C     C_R   0.291943 0.303823 0.108793 -0.307498
C36   C     C_R   0.272003 0.211417 0.051829 0.060647
C37   C     C_3   0.330710 0.155216 0.056538 0.301416
C38   C     C_3   0.273252 0.098078 0.939251 -0.507387
C39   C     C_R   0.234703 0.284744 0.570419 -0.054928
C40   C     C_R   0.138756 0.139836 0.498672 0.890850
C41   C     C_R   0.188682 0.194384 0.491988 -0.224334
C42   C     C_R   0.191624 0.158253 0.404978 0.430503
C43   C     C_R   0.241989 0.213833 0.402209 0.281798
C44   C     C_R   0.295238 0.303573 0.489640 -0.196082
C45   C     C_R   0.659068 0.712766 0.428894 -0.163502
C46   C     C_R   0.285533 0.336385 0.569346 -0.117665
C47   C     C_3   0.319680 0.416500 0.674309 0.176382
C48   C     C_3   0.260897 0.357127 0.675704 0.742789
C49   C     C_R   0.841153 0.287875 0.567179 -0.017186
C50   C     C_R   0.804811 0.195959 0.492018 -0.123509
C51   C     C_R   0.715448 0.159486 0.406719 -0.223209
C52   C     C_R   0.859026 0.863258 0.502588 0.865338
C53   C     C_R   0.660704 0.212538 0.404246 0.379449
C54   C     C_R   0.695489 0.303305 0.489889 -0.137980
C55   C     C_R   0.787487 0.340468 0.566715 -0.173454
C56   C     C_R   0.697162 0.705252 0.510424 -0.093901
C57   C     C_3   0.839695 0.398032 0.682986 0.886638
C58   C     C_3   0.899114 0.338792 0.681586 0.113253
C59   C     C_R   0.360390 0.640178 0.500464 0.824414
C60   C     C_R   0.639905 0.359590 0.498115 0.884937
C61   C     C_R   0.640248 0.639594 0.779997 0.870691
C62   C     C_R   0.358355 0.359752 0.219977 0.853428
C63   C     C_R   0.357559 0.359877 0.497204 0.882890
C64   C     C_R   0.588122 0.887019 0.309399 -0.276082
C65   C     C_R   0.640528 0.642325 0.502859 0.867925
C66   C     C_R   0.647614 0.871503 0.380780 -0.194512
C67   C     C_R   0.784488 0.762796 0.599502 0.045193
C68   C     C_R   0.654424 0.786078 0.348767 0.080918
C69   C     C_3   0.453703 0.906239 0.162000 -0.084520
C70   C     C_3   0.505441 0.782575 0.814756 -0.094784
C71   C     C_3   0.664998 0.683788 0.077580 -0.235639
C72   C     C_3   0.303032 0.895044 0.442364 -0.286899
C73   C     C_3   0.257535 0.858647 0.759870 -0.183737
C74   C     C_3   0.187411 0.438497 0.133889 -0.139977
C75   C     C_3   0.195774 0.017526 0.323159 -0.134866
C76   C     C_3   0.344075 0.407490 0.846970 -0.166184
C77   C     C_3   0.895877 0.513940 0.680746 -0.057534
C78   C     C_R   0.836076 0.818403 0.598755 0.403442
C79   C     C_3   0.837020 0.415925 0.816532 -0.163015
C80   C     C_R   0.800399 0.816236 0.509413 -0.182587
Cl1   Cl    Cl    0.936409 0.686891 0.664346 -0.521920
Cl2   Cl    Cl    0.164554 0.383439 0.670781 -0.413712
Cl3   Cl    Cl    0.549873 0.160507 0.292968 -0.555589
Cl4   Cl    Cl    0.602959 0.606123 0.196547 -0.635157
Cl5   Cl    Cl    0.010977 0.392927 0.733711 -0.402720
Cl6   Cl    Cl    0.940647 0.899130 0.715534 -0.504373
Cl7   Cl    Cl    0.700130 0.859257 0.713782 -0.574039
Cl8   Cl    Cl    0.791783 0.893600 0.932781 -0.511427
Cl9   Cl    Cl    0.835388 0.631246 0.889765 -0.593034
Cl10  Cl    Cl    0.503924 0.647795 0.870416 -0.568078
Cl11  Cl    Cl    0.642352 0.915306 0.133199 -0.502644
Cl12  Cl    Cl    0.062457 0.671055 0.472366 -0.521036
Cl13  Cl    Cl    0.137542 0.340602 0.888546 -0.476461
Cl14  Cl    Cl    0.317953 0.097647 0.105590 -0.439502
Cl15  Cl    Cl    0.230375 0.170637 0.285345 -0.467888
Cl16  Cl    Cl    0.283714 0.505491 0.669917 -0.440884
H1    H     H_    0.931389 0.818356 0.966055 0.217314
H2    H     H_    0.688009 0.926366 0.461937 0.170437
H3    H     H_    0.232806 0.029347 0.901584 0.256438
H4    H     H_    0.392990 0.435933 0.729676 0.132686
H5    H     H_    0.687269 0.089307 0.343317 0.220622
H6    H     H_    0.894804 0.296606 0.706887 0.097983
H7    H     H_    0.492706 0.675046 0.091471 0.205803
H8    H     H_    0.588935 0.675848 0.365734 0.204608
H9    H     H_    0.513731 0.960592 0.199499 0.205254
H10   H     H_    0.433444 0.921029 0.214364 0.128587
H11   H     H_    0.397998 0.902867 0.095179 0.225678
H12   H     H_    0.987281 0.737456 0.861614 0.206631
H13   H     H_    0.453013 0.715734 0.758154 0.215036
H14   H     H_    0.559157 0.782814 0.802894 0.165146
H15   H     H_    0.472995 0.829099 0.800307 0.159164
H16   H     H_    0.732937 0.708213 0.147694 0.178935
H17   H     H_    0.666399 0.651395 0.008905 0.149528
H18   H     H_    0.622503 0.630490 0.065306 0.239802
H19   H     H_    0.316098 0.956340 0.513338 0.155105
H20   H     H_    0.291316 0.911431 0.388262 0.179503
H21   H     H_    0.363301 0.874120 0.460606 0.162771
H22   H     H_    0.256015 0.912408 0.748367 0.152805
H23   H     H_    0.909741 0.758526 0.096779 0.201427
H24   H     H_    0.319565 0.841981 0.774626 0.142543
H25   H     H_    0.259352 0.884813 0.829873 0.216279
H26   H     H_    0.193790 0.510070 0.177131 0.189814
H27   H     H_    0.200262 0.416481 0.184035 0.122517
H28   H     H_    0.117703 0.400724 0.062925 0.166317
H29   H     H_    0.152749 0.946202 0.264849 0.199385
H30   H     H_    0.236084 0.028978 0.399650 0.114404
H31   H     H_    0.240889 0.029452 0.303897 0.183459
H32   H     H_    0.289897 0.413297 0.858668 0.246443
H33   H     H_    0.377587 0.471889 0.867810 0.167776
H34   H     H_    0.587645 0.954686 0.338809 0.149861
H35   H     H_    0.394773 0.394315 0.900843 0.195755
H36   H     H_    0.833694 0.522042 0.632803 0.183050
H37   H     H_    0.915691 0.465984 0.632373 0.179856
H38   H     H_    0.950415 0.578932 0.735788 0.213528
H39   H     H_    0.898639 0.474509 0.867832 0.230052
H40   H     H_    0.855220 0.360204 0.821165 0.131230
H41   H     H_    0.795737 0.435938 0.846705 0.201275
H42   H     H_    0.321010 0.722823 0.406307 0.192840
H43   H     H_    0.200619 0.604833 0.516828 0.223799
H44   H     H_    0.279887 0.686256 0.659535 0.227689
H45   H     H_    0.401128 0.191405 0.093675 0.123018
H46   H     H_    0.309777 0.102172 0.907453 0.161789
O1    O     O_3   1.000000 0.000000 0.500000 -0.541026
O2    O     O_R   0.384160 0.323450 0.268320 -0.590412
O3    O     O_R   0.384130 0.444860 0.560610 -0.598858
O4    O     O_R   0.115780 0.055050 0.731580 -0.629193
O5    O     O_R   0.555060 0.615780 0.439210 -0.634530
O6    O     O_R   0.384140 0.323430 0.439180 -0.592303
O7    O     O_R   0.676490 0.615760 0.560640 -0.656014
O8    O     O_R   0.676470 0.615740 0.731500 -0.586801
O9    O     O_R   0.384180 0.444900 0.268330 -0.595102
O10   O     O_R   0.384150 0.615750 0.560620 -0.650324
O11   O     O_R   0.555030 0.323430 0.439190 -0.585956
O12   O     O_R   0.823480 0.055090 0.439280 -0.642343
O13   O     O_R   0.823490 0.884220 0.268410 -0.604181
O14   O     O_R   0.944920 0.176520 0.560720 -0.578485
O15   O     O_R   0.115810 0.884200 0.439290 -0.602063
O16   O     O_R   0.115820 0.176530 0.560730 -0.585350
O17   O     O_R   0.944890 0.884180 0.560700 -0.551203
O18   O     O_R   0.115830 0.055100 0.439300 -0.626628
O19   O     O_R   0.823460 0.884190 0.439270 -0.654928
O20   O     O_3   0.467908 0.823288 0.125442 -0.578616
O21   O     O_3   0.540510 0.813363 0.916682 -0.573551
O22   O     O_3   0.628520 0.753981 0.092568 -0.598562
O23   O     O_R   0.115790 0.884180 0.560710 -0.621241
O24   O     O_3   0.225899 0.826903 0.394432 -0.575326
O25   O     O_3   0.179442 0.782952 0.675246 -0.531826
O26   O     O_3   0.250225 0.429883 0.109725 -0.539215
O27   O     O_3   0.140346 0.070816 0.319681 -0.541069
O28   O     O_3   0.310627 0.335065 0.745339 -0.661549
O29   O     O_3   0.886359 0.490577 0.738393 -0.570025
O30   O     O_3   0.785081 0.386677 0.712709 -0.639699
O31   O     O_R   0.115790 0.176500 0.731590 -0.577930
O32   O     O_R   0.944940 0.884220 0.268420 -0.632956
O33   O     O_3   0.499960 0.499960 0.499910 -0.531876
O34   O     O_R   0.384170 0.615770 0.439200 -0.644688
O35   O     O_R   0.676480 0.444870 0.560630 -0.633126
O36   O     O_R   0.555020 0.615730 0.731490 -0.640404
Zn1   Zn    Zn3+2 0.869870 0.956630 0.413250 1.017795
Zn2   Zn    Zn3+2 0.043380 0.130130 0.586750 1.088230
Zn3   Zn    Zn3+2 0.043390 0.956630 0.413260 1.015629
Zn4   Zn    Zn3+2 0.043360 0.956610 0.586740 1.049548
Zn5   Zn    Zn3+2 0.630090 0.543330 0.586660 1.024459
Zn6   Zn    Zn3+2 0.456570 0.543320 0.586650 1.012952
Zn7   Zn    Zn3+2 0.456580 0.369830 0.413160 1.083382
Zn8   Zn    Zn3+2 0.456590 0.543350 0.413170 1.009748

loop_
_geom_bond_atom_site_label_1
_geom_bond_atom_site_label_2
_ccdc_geom_bond_type
O9    Zn8   S    
C66   C68   A    
C27   C29   S    
O14   Zn2   S    
C41   C42   A    
C63   O6    A    
C74   H28   S    
C35   C36   A    
C73   O25   S    
C70   O21   S    
C74   O26   S    
C69   H11   S    
C7    C8    A    
C39   C41   A    
C54   C60   S    
C53   C54   A    
C79   H40   S    
C12   C68   A    
C12   C23   A    
C1    O31   A    
C26   C27   S    
C77   H37   S    
O23   Zn4   S    
O1    Zn3   S    
C40   O16   A    
C36   C37   S    
C45   H8    S    
C16   C50   S    
C2    C68   S    
C30   C31   A    
C76   H35   S    
C78   C80   A    
C10   C17   A    
C56   C65   S    
C1    C31   S    
C71   H17   S    
C18   C19   S    
C76   H33   S    
O16   Zn2   S    
C60   O11   A    
C70   H14   S    
C13   C14   A    
C46   C47   S    
C5    Cl8   S    
C23   H7    S    
C47   C48   S    
C45   C56   A    
O13   Zn1   S    
C8    C9    A    
C72   H21   S    
C16   O14   A    
C43   Cl15  S    
C47   Cl16  S    
C58   H6    S    
O1    Zn1   S    
O10   Zn6   S    
C61   O8    A    
C52   O19   A    
O2    Zn7   S    
C57   O30   S    
C78   Cl6   S    
C52   O17   A    
C74   H27   S    
C61   O36   A    
O5    Zn8   S    
C73   H24   S    
C4    O32   A    
O12   Zn1   S    
C38   H46   S    
C1    O4    A    
C67   C78   A    
O15   Zn3   S    
O32   Zn3   S    
C13   H23   S    
C44   C46   A    
C50   C51   A    
C57   C58   S    
C20   C29   S    
C44   C63   S    
C71   O22   S    
O4    Zn4   S    
C3    Cl7   S    
C8    Cl1   S    
C18   Cl10  S    
C6    H1    S    
C19   Cl11  S    
C69   O20   S    
C59   O34   A    
C62   O9    A    
C69   H9    S    
C60   O35   A    
C12   Cl4   S    
C3    C5    A    
O6    Zn7   S    
C49   C55   A    
C27   H43   S    
C47   H4    S    
C71   H18   S    
C75   H29   S    
C77   H36   S    
C64   C66   A    
C79   O30   S    
C43   C44   A    
C9    C67   S    
C14   Cl9   S    
C75   O27   S    
C37   C38   S    
C3    C9    A    
C70   H13   S    
O33   Zn7   S    
C18   O21   S    
C31   C32   A    
O3    Zn6   S    
C10   C19   S    
C77   O29   S    
C42   O27   S    
C71   H16   S    
C34   C64   A    
C17   C18   S    
C15   C61   S    
O1    Zn2   S    
C24   C25   A    
C4    C11   S    
C76   O28   S    
O11   Zn7   S    
C6    C7    A    
C37   H45   S    
C28   O23   A    
C39   C46   A    
C48   O28   S    
C40   C41   S    
C79   H41   S    
C21   C28   S    
C64   H34   S    
C73   H25   S    
C10   C11   A    
C55   C57   S    
C16   O12   A    
C76   H32   S    
C22   C24   A    
C33   O26   S    
O19   Zn1   S    
C42   C43   A    
C58   Cl5   S    
O18   Zn3   S    
O33   Zn5   S    
C15   C17   A    
C54   C55   A    
C23   C34   A    
C73   H22   S    
C74   H26   S    
C7    H12   S    
C72   O24   S    
C40   O18   A    
C62   O2    A    
C38   H3    S    
C34   O20   S    
C65   O5    A    
C69   H10   S    
O34   Zn8   S    
O8    Zn5   S    
C51   H5    S    
C56   C67   A    
C79   H39   S    
C72   H20   S    
C27   H44   S    
O31   Zn2   S    
C30   C36   A    
C53   Cl3   S    
C75   H30   S    
C24   H42   S    
C32   C33   A    
C66   H2    S    
C25   C26   A    
C52   C80   S    
O33   Zn8   S    
C11   C13   A    
C29   O25   S    
O1    Zn4   S    
C5    C6    A    
C20   C26   A    
C28   O15   A    
C33   C35   A    
C48   Cl2   S    
C37   Cl14  S    
C32   Cl13  S    
C35   C62   S    
C75   H31   S    
C19   O22   S    
O17   Zn4   S    
C65   O7    A    
C59   O10   A    
C2    C80   A    
C2    C45   A    
C49   C58   S    
C22   O24   S    
C4    O13   A    
C20   C21   A    
C49   C50   A    
C77   H38   S    
O7    Zn5   S    
C14   C15   A    
O33   Zn6   S    
O35   Zn5   S    
C25   C59   S    
C30   C38   S    
C51   C53   A    
C21   C22   A    
C63   O3    A    
C29   Cl12  S    
O36   Zn6   S    
C72   H19   S    
C39   C48   S    
C57   O29   S    
C70   H15   S    
