data_mof_unit_61175.cif
_audit_creation_date              2012-10-26T19:36:46-0400
_audit_creation_method            fapswitch 2.2
_symmetry_space_group_name_H-M    P1
_symmetry_Int_Tables_number       1
_space_group_crystal_system       triclinic
_cell_length_a                    17.721939
_cell_length_b                    16.439256
_cell_length_c                    10.745456
_cell_angle_alpha                 90.001897
_cell_angle_beta                  90.187926
_cell_angle_gamma                 90.000042
_cell_volume                      3130.51587021

loop_
_atom_site_label
_atom_site_type_symbol
_atom_type_description
_atom_site_fract_x
_atom_site_fract_y
_atom_site_fract_z
_atom_type_partial_charge
Br1   Br    Br    0.665656 0.500182 0.863790 -0.574812
Br2   Br    Br    0.334295 0.500114 0.862230 -0.557378
C1    C     C_R   0.355208 0.500001 0.500166 0.572183
C2    C     C_1   0.033830 0.500029 0.505671 -0.019417
C3    C     C_R   0.153636 0.573762 0.503975 -0.101007
C4    C     C_R   0.153625 0.426276 0.504103 -0.100655
C5    C     C_R   0.232280 0.573854 0.502320 -0.109896
C6    C     C_R   0.232270 0.426169 0.502447 -0.108673
C7    C     C_R   0.272276 0.500007 0.501461 0.033580
C8    C     C_R   0.499961 0.499881 0.259381 0.538358
C9    C     C_R   0.114420 0.500023 0.504823 0.043162
C10   C     C_R   0.547349 0.828862 0.580423 -0.138869
C11   C     C_R   0.546728 0.171144 0.581408 -0.138600
C12   C     C_3   0.499984 0.410717 0.929084 -0.211760
C13   C     C_R   0.546508 0.743016 0.578955 0.042807
C14   C     C_R   0.545902 0.256988 0.579914 0.042931
C15   C     C_R   0.453430 0.743053 0.421043 0.044499
C16   C     C_R   0.454035 0.256944 0.420084 0.043835
C17   C     C_R   0.452602 0.828899 0.419658 -0.137765
C18   C     C_R   0.453224 0.171099 0.418674 -0.137584
C19   C     C_R   0.499981 0.873053 0.500058 0.024763
C20   C     C_R   0.499981 0.126949 0.500058 0.024858
C21   C     C_1   0.499989 0.962698 0.500083 -0.023063
C22   C     C_1   0.499990 0.037304 0.500083 -0.023040
C23   C     C_R   0.846356 0.573763 0.504802 -0.100857
C24   C     C_R   0.644775 0.500001 0.500482 0.572987
C25   C     C_R   0.499998 0.499882 0.740523 0.628277
C26   C     C_3   0.571373 0.543416 0.072723 -0.212036
C27   C     C_3   0.428639 0.543530 0.071967 -0.216975
C28   C     C_3   0.571202 0.544618 0.928779 -0.004073
C29   C     C_3   0.428769 0.544629 0.928025 0.000429
C30   C     C_3   0.499911 0.410903 0.071466 -0.234883
C31   C     C_3   0.499972 0.499516 0.121713 -0.004979
C32   C     C_3   0.499986 0.499439 0.878250 0.059285
C33   C     C_R   0.846368 0.426276 0.504857 -0.100508
C34   C     C_R   0.767705 0.573854 0.503207 -0.109730
C35   C     C_R   0.767716 0.426169 0.503262 -0.108551
C36   C     C_R   0.727708 0.500008 0.502161 0.034212
C37   C     C_R   0.885576 0.500023 0.505476 0.043220
C38   C     C_1   0.966170 0.500029 0.505880 -0.019405
Cu1   Cu    Cu3+1 0.499980 0.580420 0.499990 0.953898
Cu2   Cu    Cu3+1 0.499980 0.419580 0.499990 0.957798
H1    H     H_    0.622641 0.512227 0.108956 0.168885
H2    H     H_    0.417677 0.290083 0.356887 0.115798
H3    H     H_    0.415157 0.860491 0.356141 0.098514
H4    H     H_    0.416270 0.139504 0.354380 0.098730
H5    H     H_    0.573118 0.607065 0.107979 0.118699
H6    H     H_    0.427019 0.607207 0.107127 0.109951
H7    H     H_    0.569450 0.609144 0.897417 0.131574
H8    H     H_    0.430492 0.609134 0.896599 0.138922
H9    H     H_    0.550572 0.377633 0.105945 0.145526
H10   H     H_    0.449158 0.377740 0.105297 0.135975
H11   H     H_    0.550339 0.376934 0.895442 0.160703
H12   H     H_    0.377327 0.512477 0.107752 0.164774
H13   H     H_    0.449674 0.376910 0.894792 0.169211
H14   H     H_    0.876550 0.631083 0.505286 0.113649
H15   H     H_    0.876570 0.368961 0.505384 0.113861
H16   H     H_    0.738319 0.631620 0.502695 0.127568
H17   H     H_    0.738339 0.368398 0.502794 0.128211
H18   H     H_    0.123444 0.631083 0.504460 0.113759
H19   H     H_    0.123425 0.368961 0.504688 0.113984
H20   H     H_    0.261661 0.631621 0.501703 0.128556
H21   H     H_    0.261642 0.368397 0.501933 0.129317
H22   H     H_    0.584796 0.860425 0.643974 0.100267
H23   H     H_    0.583684 0.139585 0.645736 0.100568
H24   H     H_    0.583325 0.709839 0.641389 0.128792
H25   H     H_    0.582248 0.290168 0.643093 0.130117
H26   H     H_    0.416600 0.709909 0.358592 0.115741
N1    N     N_R   0.499970 0.701220 0.499970 -0.220597
N2    N     N_R   0.499970 0.298780 0.499970 -0.221096
O1    O     O_R   0.391240 0.567930 0.499990 -0.501900
O2    O     O_R   0.391240 0.432070 0.499990 -0.500815
O3    O     O_R   0.499970 0.567910 0.317690 -0.514222
O4    O     O_R   0.499970 0.432090 0.317690 -0.514630
O5    O     O_R   0.608730 0.567880 0.500000 -0.503202
O6    O     O_R   0.608730 0.432120 0.500000 -0.502323
O7    O     O_R   0.500000 0.567910 0.682300 -0.499883
O8    O     O_R   0.500000 0.432090 0.682300 -0.489548

loop_
_geom_bond_atom_site_label_1
_geom_bond_atom_site_label_2
_ccdc_geom_bond_type
C16   N2    A    
C26   H5    S    
C15   N1    A    
Cu1   Cu2   S    
C1    O1    A    
C23   H14   S    
C25   O8    A    
C30   H9    S    
C11   H23   S    
C4    H19   S    
C33   C35   A    
C3    C9    A    
C34   H16   S    
Cu1   O7    S    
C10   H22   S    
C8    O3    A    
C27   H12   S    
C27   C31   S    
Cu2   N2    S    
C30   H10   S    
C2    C38   T    
C6    C7    A    
C24   O6    A    
C21   C22   T    
Cu1   O1    S    
C12   H13   S    
C25   C32   S    
C13   N1    A    
Cu2   O4    S    
C28   C32   S    
C27   H6    S    
C14   N2    A    
C37   C38   S    
C3    C5    A    
C24   C36   S    
C4    C6    A    
C23   C34   A    
C13   H24   S    
C10   C19   A    
Br2   C29   S    
C33   C37   A    
C5    H20   S    
C35   C36   A    
C1    C7    S    
C16   H2    S    
Cu1   O5    S    
C10   C13   A    
Cu2   O2    S    
C24   O5    A    
C29   C32   S    
C14   H25   S    
C2    C9    S    
C35   H17   S    
C28   H7    S    
C18   C20   A    
C26   C31   S    
Cu2   O8    S    
C19   C21   S    
C20   C22   S    
C29   H8    S    
C4    C9    A    
Cu1   N1    S    
C5    C7    A    
C15   H26   S    
C3    H18   S    
C17   C19   A    
C12   C30   S    
C25   O7    A    
C12   C32   S    
C17   H3    S    
C26   H1    S    
Cu2   O6    S    
C33   H15   S    
C30   C31   S    
C26   C28   S    
C1    O2    A    
C27   C29   S    
C23   C37   A    
C8    O4    A    
C34   C36   A    
Br1   C28   S    
C15   C17   A    
C11   C20   A    
C8    C31   S    
C16   C18   A    
C6    H21   S    
Cu1   O3    S    
C12   H11   S    
C11   C14   A    
C18   H4    S    
