data_mof_unit_58622.cif
_audit_creation_date              2012-12-10T17:24:12-0500
_audit_creation_method            fapswitch 2.2
_symmetry_space_group_name_H-M    P1
_symmetry_Int_Tables_number       1
_space_group_crystal_system       triclinic
_cell_length_a                    19.329744
_cell_length_b                    10.86171
_cell_length_c                    9.571682
_cell_angle_alpha                 90.507552
_cell_angle_beta                  89.847416
_cell_angle_gamma                 92.686012
_cell_volume                      2007.32191155

loop_
_atom_site_label
_atom_site_type_symbol
_atom_type_description
_atom_site_fract_x
_atom_site_fract_y
_atom_site_fract_z
_atom_type_partial_charge
C1    C     C_R   0.505918 0.263266 0.500076 0.790812
C2    C     C_R   0.291388 0.502220 0.500896 -0.038926
C3    C     C_R   0.929636 0.507308 0.502353 0.501945
C4    C     C_R   0.069804 0.509511 0.503175 0.399350
C5    C     C_R   0.817157 0.570840 0.598993 0.269932
C6    C     C_R   0.745233 0.565454 0.598150 -0.190890
C7    C     C_R   0.708246 0.493957 0.498897 -0.203777
C8    C     C_R   0.744024 0.423416 0.399259 -0.087042
C9    C     C_R   0.817257 0.427113 0.401294 0.263186
C10   C     C_R   0.853680 0.502275 0.500383 -0.118147
C11   C     C_R   0.549607 0.124916 0.751781 -0.138810
C12   C     C_R   0.367442 0.500126 0.500234 0.798392
C13   C     C_R   0.543346 0.067831 0.881175 -0.121035
C14   C     C_R   0.509368 0.952841 0.890884 -0.156595
C15   C     C_R   0.488233 0.889640 0.769769 -0.164219
C16   C     C_R   0.501487 0.940649 0.635644 0.099188
C17   C     C_R   0.522061 0.066617 0.629574 0.091479
C18   C     C_R   0.513121 0.129771 0.502188 -0.122007
C19   C     C_R   0.501530 0.062927 0.378235 -0.199414
C20   C     C_R   0.495720 0.935709 0.380297 -0.213977
C21   C     C_R   0.495139 0.872713 0.507474 -0.111579
C22   C     C_R   0.592144 0.664548 0.145166 -0.247216
C23   C     C_R   0.496789 0.737803 0.501752 0.783410
C24   C     C_R   0.637031 0.746425 0.073787 -0.028344
C25   C     C_R   0.636786 0.745081 0.929008 -0.150135
C26   C     C_R   0.591986 0.664091 0.856744 -0.201323
C27   C     C_R   0.545246 0.580821 0.925675 0.209272
C28   C     C_R   0.545295 0.580866 0.075262 0.222632
C29   C     C_R   0.457155 0.422712 0.073441 -0.069291
C30   C     C_R   0.457171 0.422747 0.925351 -0.068342
C31   C     C_R   0.632316 0.497540 0.499650 0.772686
C32   C     C_R   0.254337 0.488897 0.626653 -0.182060
C33   C     C_R   0.182315 0.491398 0.627440 -0.136916
C34   C     C_R   0.146016 0.508016 0.502607 0.059750
C35   C     C_R   0.183164 0.521836 0.376929 -0.136757
C36   C     C_R   0.255157 0.518565 0.376021 -0.183568
Cu1   Cu    Cu3+1 0.500000 0.499990 0.640660 0.930430
Cu2   Cu    Cu3+1 0.500000 0.500010 0.359340 0.935455
H1    H     H_    0.280915 0.476064 0.724564 0.151600
H2    H     H_    0.577198 0.213730 0.748652 0.172256
H3    H     H_    0.562919 0.114538 0.974391 0.156289
H4    H     H_    0.500612 0.911234 0.992179 0.136793
H5    H     H_    0.459282 0.803573 0.784901 0.172593
H6    H     H_    0.490173 0.886756 0.281542 0.161361
H7    H     H_    0.422082 0.359426 0.128442 0.139055
H8    H     H_    0.596159 0.670462 0.255327 0.197059
H9    H     H_    0.671101 0.807573 0.870721 0.201903
H10   H     H_    0.595948 0.672113 0.746732 0.205551
H11   H     H_    0.155177 0.480693 0.726017 0.163373
H12   H     H_    0.422119 0.359455 0.869406 0.143939
H13   H     H_    0.156670 0.534347 0.278900 0.163649
H14   H     H_    0.282389 0.529407 0.277530 0.154084
H15   H     H_    0.718023 0.620342 0.673563 0.172956
H16   H     H_    0.496578 0.108909 0.279010 0.163084
N1    N     N_R   0.035020 0.540989 0.386728 -0.210869
N2    N     N_R   0.966193 0.540052 0.386334 -0.161876
N3    N     N_R   0.964172 0.476390 0.619067 -0.156837
N4    N     N_R   0.033020 0.477678 0.619498 -0.209993
N5    N     N_R   0.500660 0.501210 0.147910 -0.192331
N6    N     N_R   0.500680 0.501290 0.852040 -0.199323
O1    O     O_R   0.499990 0.319640 0.618810 -0.585097
O2    O     O_R   0.500000 0.319660 0.381240 -0.582868
O3    O     O_R   0.400140 0.499970 0.618820 -0.581600
O4    O     O_R   0.400150 0.500000 0.381250 -0.578603
O5    O     O_R   0.500000 0.680340 0.618760 -0.612534
O6    O     O_R   0.500010 0.680360 0.381190 -0.598578
O7    O     O_R   0.599850 0.500000 0.618750 -0.584692
O8    O     O_R   0.599860 0.500030 0.381180 -0.598138
C37   C     C_2   0.683813 0.833370 0.152855 0.427133
H17   H     H_    0.683439 0.832935 0.266293 0.054893
O9    O     O_2   0.723141 0.906616 0.092690 -0.479194
Br1   Br    Br    0.862902 0.678176 0.733945 -0.393433
C38   C     C_2   0.704537 0.341416 0.299587 0.494408
H18   H     H_    0.656841 0.293550 0.332837 0.042457
O10   O     O_2   0.723235 0.329967 0.178471 -0.469322
Br2   Br    Br    0.867921 0.319089 0.280519 -0.336697

loop_
_geom_bond_atom_site_label_1
_geom_bond_atom_site_label_2
_ccdc_geom_bond_type
N1    N2    A    
C16   C21   A    
C38   H18   S    
C35   C36   A    
C2    C12   S    
C1    O2    A    
C13   H3    S    
C7    C8    A    
C31   O7    A    
C26   C27   A    
Cu1   Cu2   S    
C23   O6    A    
C34   C35   A    
C5    Br1   S    
C27   N6    A    
C5    C6    A    
C12   O4    A    
C33   H11   S    
C15   C16   A    
C2    C32   A    
C18   C19   A    
C32   H1    S    
C37   O9    D    
C20   H6    S    
Cu2   O6    S    
C8    C9    A    
C30   N6    A    
C9    Br2   S    
C9    C10   A    
C25   H9    S    
C36   H14   S    
C26   H10   S    
C14   H4    S    
C30   H12   S    
C22   C28   A    
C13   C14   A    
C38   O10   D    
C37   H17   S    
Cu1   O3    S    
C24   C37   S    
C33   C34   A    
Cu2   O4    S    
C31   O8    A    
C4    C34   S    
C7    C31   S    
C29   N5    A    
C24   C25   A    
C12   O3    A    
C16   C17   A    
C25   C26   A    
C29   H7    S    
C29   C30   A    
C3    N2    A    
C17   C18   A    
C1    C18   S    
C3    N3    A    
C19   H16   S    
Cu1   O5    S    
C22   H8    S    
Cu2   O8    S    
C21   C23   S    
C4    N1    A    
C35   H13   S    
C22   C24   A    
C6    H15   S    
C28   N5    A    
C2    C36   A    
C11   C17   A    
C1    O1    A    
Cu1   O1    S    
C6    C7    A    
C32   C33   A    
C23   O5    A    
C19   C20   A    
C15   H5    S    
C5    C10   A    
C3    C10   S    
C11   C13   A    
N3    N4    A    
Cu1   O7    S    
C8    C38   S    
C11   H2    S    
Cu1   N6    S    
Cu2   N5    S    
C20   C21   A    
C4    N4    A    
C27   C28   A    
C14   C15   A    
Cu2   O2    S    
