data_mof_unit_67384.cif
_audit_creation_date              2013-03-05T16:11:00-0500
_audit_creation_method            fapswitch 2.2
_symmetry_space_group_name_H-M    P1
_symmetry_Int_Tables_number       1
_space_group_crystal_system       triclinic
_cell_length_a                    16.764175
_cell_length_b                    27.807962
_cell_length_c                    8.510208
_cell_angle_alpha                 89.900386
_cell_angle_beta                  103.836408
_cell_angle_gamma                 90.023536
_cell_volume                      3852.1418661

loop_
_atom_site_label
_atom_site_type_symbol
_atom_site_description
_atom_site_fract_x
_atom_site_fract_y
_atom_site_fract_z
_atom_type_partial_charge
P1    P     P_3+3 0.171820 0.553000 0.158080 0.546199
P2    P     P_3+3 0.171820 0.447000 0.658080 0.545695
P3    P     P_3+3 0.671820 0.053000 0.158080 0.548704
P4    P     P_3+3 0.671820 0.947000 0.658080 0.547816
O1    O     O_2   0.163830 0.569270 0.980510 -0.315649
O2    O     O_2   0.163830 0.430730 0.480510 -0.312774
O3    O     O_2   0.663830 0.069270 0.980510 -0.313515
O4    O     O_2   0.663830 0.930730 0.480510 -0.314094
O5    O     O_3   0.095420 0.524330 0.188510 -0.414111
O6    O     O_3   0.095420 0.475670 0.688510 -0.416246
O7    O     O_3   0.595420 0.024330 0.188510 -0.419255
O8    O     O_3   0.595420 0.975670 0.688510 -0.421409
O9    O     O_3   0.028940 0.612400 0.656050 -0.353322
O10   O     O_3   0.028940 0.387600 0.156050 -0.352851
O11   O     O_3   0.528940 0.112400 0.656050 -0.307756
O12   O     O_3   0.528940 0.887600 0.156050 -0.361502
O13   O     O_2   0.157391 0.651873 0.847799 -0.334508
O14   O     O_2   0.158501 0.348319 0.350151 -0.342012
O15   O     O_2   0.669123 0.144296 0.840952 -0.324117
O16   O     O_2   0.659675 0.851586 0.345828 -0.251495
O17   O     O_3   0.258205 0.515716 0.200042 -0.504028
O18   O     O_3   0.258104 0.484333 0.699245 -0.506902
O19   O     O_3   0.758295 0.015753 0.199808 -0.501261
O20   O     O_3   0.757818 0.984699 0.697434 -0.505291
O21   O     O_3   0.056360 0.714392 0.683694 -0.520751
O22   O     O_3   0.058745 0.285972 0.180884 -0.532939
O23   O     O_3   0.568482 0.212248 0.724790 -0.485858
O24   O     O_3   0.560484 0.786054 0.201948 -0.489966
C1    C     C_3   0.979221 0.772253 0.492499 -0.105384
C2    C     C_3   0.986774 0.228968 0.981700 -0.106857
C3    C     C_3   0.488758 0.282679 0.616779 -0.051364
C4    C     C_3   0.495115 0.719959 0.039878 -0.150618
H1    H     H_    0.955377 0.797006 0.572624 0.225007
H2    H     H_    0.964812 0.202908 0.060928 0.218482
H3    H     H_    0.462800 0.280654 0.725264 0.218830
H4    H     H_    0.492823 0.700081 0.151919 0.229790
P5    P     P_3+3 0.829210 0.554130 0.532500 0.516424
P6    P     P_3+3 0.829210 0.445870 0.032500 0.515230
P7    P     P_3+3 0.329210 0.054130 0.532500 0.524383
P8    P     P_3+3 0.329210 0.945870 0.032500 0.507074
P9    P     P_3+3 0.894698 0.655399 0.020479 0.529105
P10   P     P_3+3 0.892599 0.345193 0.519382 0.527123
P11   P     P_3+3 0.394420 0.155703 0.007990 0.558663
P12   P     P_3+3 0.395369 0.844427 0.520264 0.545098
O25   O     O_2   0.837400 0.570350 0.710350 -0.312738
O26   O     O_2   0.837400 0.429650 0.210350 -0.321200
O27   O     O_2   0.337400 0.070350 0.710350 -0.335121
O28   O     O_2   0.337400 0.929650 0.210350 -0.321236
O29   O     O_3   0.972820 0.612580 0.035550 -0.391045
O30   O     O_3   0.972820 0.387420 0.535550 -0.389609
O31   O     O_3   0.472820 0.112580 0.035550 -0.362877
O32   O     O_3   0.472820 0.887420 0.535550 -0.358826
O33   O     O_2   0.823692 0.641334 0.876168 -0.280682
O34   O     O_2   0.823122 0.359276 0.372503 -0.290184
O35   O     O_2   0.339415 0.148569 0.836638 -0.290276
O36   O     O_2   0.327820 0.856772 0.367940 -0.282916
O37   O     O_3   0.743999 0.516588 0.517186 -0.592345
O38   O     O_3   0.743614 0.483084 0.017104 -0.589816
O39   O     O_3   0.246230 0.015065 0.521462 -0.594412
O40   O     O_3   0.243080 0.982684 0.017210 -0.590394
O41   O     O_3   0.926734 0.711802 0.967749 -0.469076
O42   O     O_3   0.922561 0.288153 0.468037 -0.472143
O43   O     O_3   0.439171 0.211913 0.990175 -0.467285
O44   O     O_3   0.434239 0.789554 0.472123 -0.446313
C5    C     C_3   0.008249 0.719605 0.053476 0.432798
C6    C     C_3   0.005191 0.280777 0.547321 0.433976
C7    C     C_3   0.488338 0.225303 0.141508 0.284952
C8    C     C_3   0.484502 0.769687 0.613429 0.377616
H5    H     H_    0.050379 0.696754 0.002912 0.072094
H6    H     H_    0.045367 0.303890 0.492400 0.077681
H7    H     H_    0.531062 0.195864 0.196200 0.022511
H8    H     H_    0.527919 0.796732 0.683301 0.040914
H9    H     H_    0.016640 0.710775 0.183858 -0.042591
H10   H     H_    0.015989 0.289726 0.677823 -0.036590
H11   H     H_    0.448174 0.235370 0.222371 0.024793
H12   H     H_    0.445237 0.755218 0.690728 -0.114944
C9    C     C_3   0.030743 0.772551 0.038247 0.743758
C10   C     C_3   0.028217 0.228015 0.530850 0.739111
C11   C     C_3   0.539658 0.269612 0.124267 0.704473
C12   C     C_3   0.534842 0.728344 0.567446 0.701827
C13   C     C_3   0.733286 0.513407 0.883681 0.137267
C14   C     C_3   0.735109 0.485225 0.386966 0.129299
C15   C     C_3   0.237365 0.016498 0.894584 0.129712
C16   C     C_3   0.235908 0.984444 0.389027 0.132574
H13   H     H_    0.772634 0.545452 0.920340 0.155356
H14   H     H_    0.773682 0.453102 0.428329 0.154724
H15   H     H_    0.280287 0.046498 0.940380 0.132794
H16   H     H_    0.275208 0.952416 0.427072 0.155877
H17   H     H_    0.748494 0.494460 0.780719 0.127186
H18   H     H_    0.752518 0.503053 0.284117 0.128900
H19   H     H_    0.251265 0.999404 0.787673 0.141908
H20   H     H_    0.251275 0.002923 0.285152 0.122505
C17   C     C_3   0.643305 0.528988 0.834771 -0.039212
C18   C     C_3   0.644847 0.470273 0.334502 -0.032328
C19   C     C_3   0.149291 0.035477 0.848727 -0.039281
C20   C     C_3   0.145846 0.968936 0.340866 -0.039830
H21   H     H_    0.623946 0.543317 0.941830 0.155672
H22   H     H_    0.622452 0.458960 0.441845 0.164963
H23   H     H_    0.131280 0.048741 0.958552 0.146888
H24   H     H_    0.125791 0.956273 0.449382 0.155836
H25   H     H_    0.604501 0.497120 0.789520 0.187275
H26   H     H_    0.607658 0.501735 0.278575 0.174959
H27   H     H_    0.107166 0.005551 0.796819 0.182417
H28   H     H_    0.107375 0.000487 0.290205 0.173658
Ba1   Ba    Ba6+2 0.000400 0.534870 0.845190 1.653816
Ba2   Ba    Ba6+2 0.000400 0.465130 0.345190 1.651650
Ba3   Ba    Ba6+2 0.500400 0.034870 0.845190 1.683262
Ba4   Ba    Ba6+2 0.500400 0.965130 0.345190 1.682776
C21   C     C_3   0.242061 0.472236 0.116911 0.312661
C22   C     C_3   0.241154 0.528243 0.618630 0.315526
C23   C     C_3   0.741833 0.972243 0.116782 0.312572
C24   C     C_3   0.739931 0.028489 0.615968 0.316745
H29   H     H_    0.217098 0.478675 0.985974 0.022269
H30   H     H_    0.215543 0.522454 0.487596 0.020882
H31   H     H_    0.716359 0.978650 0.985957 0.018612
H32   H     H_    0.713621 0.022440 0.485371 0.014767
H33   H     H_    0.197546 0.450698 0.165860 0.053264
H34   H     H_    0.196904 0.549265 0.669736 0.056884
H35   H     H_    0.697563 0.950715 0.166461 0.053367
H36   H     H_    0.695734 0.049344 0.667701 0.052428
C25   C     C_3   0.322999 0.444367 0.141559 0.547331
C26   C     C_3   0.321798 0.556355 0.642942 0.558415
C27   C     C_3   0.822595 0.944283 0.139944 0.552045
C28   C     C_3   0.819921 0.057260 0.637739 0.547546
H37   H     H_    0.309769 0.409040 0.080836 -0.112618
H38   H     H_    0.308197 0.591746 0.582412 -0.137264
H39   H     H_    0.808907 0.909010 0.079276 -0.104712
H40   H     H_    0.804833 0.092983 0.580032 -0.118532
O45   O     O_3   0.904940 0.476110 0.001150 -0.401963
O46   O     O_3   0.904940 0.523890 0.501150 -0.406900
O47   O     O_3   0.404940 0.976110 0.001150 -0.414028
O48   O     O_3   0.404940 0.023890 0.501150 -0.399655
P13   P     P_3+3 0.104097 0.342890 0.177044 0.516087
P14   P     P_3+3 0.102560 0.657879 0.675463 0.522265
P15   P     P_3+3 0.603051 0.842670 0.177171 0.587255
P16   P     P_3+3 0.607144 0.156136 0.681073 0.580084
C29   C     C_3   0.985319 0.720005 0.556266 0.704148
C30   C     C_3   0.989572 0.280514 0.049365 0.711160
C31   C     C_3   0.520065 0.232738 0.582343 0.637980
C32   C     C_3   0.493304 0.774494 0.072269 0.739030
H41   H     H_    0.986694 0.696482 0.451065 -0.119465
H42   H     H_    0.991301 0.305331 0.947210 -0.117324
H43   H     H_    0.556922 0.236789 0.490403 -0.116156
H44   H     H_    0.495264 0.793990 0.958887 -0.145295
H45   H     H_    0.935624 0.773254 0.371939 0.111845
H46   H     H_    0.942961 0.228326 0.861631 0.139605
H47   H     H_    0.438558 0.294007 0.512706 0.115211
H48   H     H_    0.440623 0.709534 0.943657 0.114665
H49   H     H_    0.096469 0.777472 0.102870 0.019512
H50   H     H_    0.094303 0.223335 0.593383 0.018353
H51   H     H_    0.576066 0.280189 0.246928 -0.002183
H52   H     H_    0.563617 0.706942 0.676203 0.083527
C33   C     C_2   0.855305 0.385960 0.780968 -0.466484
C34   C     C_2   0.861853 0.615371 0.288124 -0.451481
C35   C     C_2   0.366176 0.879590 0.800428 -0.432977
C36   C     C_2   0.337382 0.108213 0.244653 -0.381288
C37   C     C_R   0.141223 0.619328 0.397443 -0.562247
C38   C     C_R   0.141642 0.381119 0.897754 -0.555911
C39   C     C_R   0.639246 0.120025 0.392342 -0.493054
C40   C     C_R   0.640668 0.880384 0.895889 -0.579510
C41   C     C_2   0.754319 0.357311 0.927482 -0.170460
C42   C     C_2   0.745807 0.639109 0.402490 -0.256102
C43   C     C_2   0.247327 0.859492 0.912285 -0.292525
C44   C     C_2   0.249616 0.141741 0.412552 -0.225380
C45   C     C_2   0.812204 0.391629 0.910237 0.275091
C46   C     C_2   0.811249 0.607639 0.404817 0.330875
C47   C     C_2   0.312744 0.890575 0.910632 0.339506
C48   C     C_2   0.304242 0.105679 0.391657 0.304575
C49   C     C_2   0.845569 0.345587 0.693229 0.139055
C50   C     C_2   0.851430 0.655604 0.198745 0.184323
C51   C     C_2   0.345338 0.844121 0.690721 0.051374
C52   C     C_2   0.330252 0.149598 0.157958 0.173352
C53   C     C_3   0.801438 0.305073 0.739488 -0.068732
C54   C     C_3   0.801811 0.694153 0.239158 -0.163049
C55   C     C_3   0.270167 0.817447 0.679747 0.030744
C56   C     C_3   0.293874 0.191020 0.217214 0.069265
C57   C     C_3   0.735492 0.318262 0.816570 0.341767
C58   C     C_3   0.727936 0.676405 0.283190 0.231342
C59   C     C_3   0.241733 0.814542 0.829384 0.314867
C60   C     C_3   0.226788 0.178563 0.292742 0.219845
C61   C     C_2   0.767934 0.269639 0.606687 -0.159840
C62   C     C_2   0.780458 0.734144 0.116273 -0.184676
C63   C     C_2   0.261813 0.771480 0.580583 -0.088015
C64   C     C_2   0.269252 0.231071 0.096616 -0.171328
C65   C     C_2   0.259218 0.726313 0.637626 0.469088
C66   C     C_2   0.263961 0.276775 0.144827 0.549509
C67   C     C_2   0.763339 0.222638 0.640257 0.572919
C68   C     C_2   0.766247 0.780023 0.156057 0.563367
C69   C     C_R   0.280363 0.677515 0.396826 0.032958
C70   C     C_R   0.280724 0.322901 0.897936 0.084548
C71   C     C_R   0.774156 0.180724 0.384881 0.183361
C72   C     C_R   0.781443 0.823080 0.901711 0.140916
C73   C     C_R   0.234690 0.685796 0.521301 -0.226500
C74   C     C_R   0.235500 0.315137 0.022750 -0.220637
C75   C     C_R   0.728725 0.188424 0.508897 -0.370257
C76   C     C_R   0.736014 0.815712 0.026579 -0.133995
C77   C     C_R   0.259952 0.636885 0.282610 0.227811
C78   C     C_R   0.260487 0.363439 0.783713 0.187248
C79   C     C_R   0.757776 0.138679 0.277020 0.175031
C80   C     C_R   0.760988 0.863141 0.785179 0.182231
C81   C     C_R   0.192265 0.609472 0.279864 0.123814
C82   C     C_R   0.192593 0.390747 0.780025 0.135012
C83   C     C_R   0.691268 0.110109 0.276161 0.112975
C84   C     C_R   0.692777 0.890487 0.780187 0.143196
C85   C     C_R   0.163913 0.653625 0.521189 0.233607
C86   C     C_R   0.165172 0.347416 0.023089 0.219298
C87   C     C_R   0.660824 0.155014 0.513939 0.169825
C88   C     C_R   0.663626 0.846683 0.021648 0.204270
H53   H     H_    0.718854 0.361961 0.017427 0.217310
H54   H     H_    0.704875 0.633237 0.481682 0.206439
H55   H     H_    0.204940 0.867270 0.987110 0.202786
H56   H     H_    0.222612 0.141345 0.516123 0.204207
H57   H     H_    0.890935 0.415809 0.751396 0.171663
H58   H     H_    0.900560 0.586378 0.263833 0.162881
H59   H     H_    0.418171 0.902819 0.799938 0.159814
H60   H     H_    0.372020 0.078037 0.214620 0.148733
H61   H     H_    0.088284 0.596753 0.394408 0.182862
H62   H     H_    0.088457 0.403528 0.894002 0.184041
H63   H     H_    0.588485 0.096104 0.393618 0.192610
H64   H     H_    0.587059 0.902549 0.890620 0.181125
H65   H     H_    0.741722 0.282739 0.484771 0.155105
H66   H     H_    0.767491 0.724603 0.988941 0.213075
H67   H     H_    0.251247 0.776531 0.450649 0.186443
H68   H     H_    0.253152 0.222345 0.968580 0.184087
N1    N     N_R   0.912764 0.707897 0.615706 0.207786
O49   O     O_R   0.864022 0.740697 0.649333 -0.392419
O50   O     O_R   0.902146 0.663824 0.654691 -0.331298
N2    N     N_R   0.915158 0.290515 0.104973 0.213917
O51   O     O_R   0.859199 0.257967 0.104487 -0.363707
O52   O     O_R   0.906080 0.332621 0.162605 -0.333063
N3    N     N_R   0.449483 0.202146 0.519250 0.191841
O53   O     O_R   0.390601 0.199409 0.594379 -0.362068
O54   O     O_R   0.456968 0.168584 0.418483 -0.521938
N4    N     N_R   0.416940 0.786974 0.116830 0.220306
O55   O     O_R   0.362761 0.754667 0.130913 -0.368016
O56   O     O_R   0.404422 0.831237 0.150488 -0.332690
N5    N     N_R   0.631086 0.565978 0.709693 0.256700
O57   O     O_R   0.659001 0.609208 0.745584 -0.351344
O58   O     O_R   0.585858 0.557238 0.565771 -0.319797
N6    N     N_R   0.633958 0.430613 0.219533 0.252234
O59   O     O_R   0.656537 0.387435 0.270026 -0.373548
O60   O     O_R   0.592363 0.436952 0.071083 -0.316319
N7    N     N_R   0.141346 0.074530 0.731553 0.250317
O61   O     O_R   0.172259 0.116542 0.777441 -0.377446
O62   O     O_R   0.096119 0.069088 0.585525 -0.348490
N8    N     N_R   0.133880 0.930331 0.221807 0.251083
O63   O     O_R   0.159290 0.887096 0.266113 -0.371320
O64   O     O_R   0.089731 0.937606 0.075829 -0.336507
N9    N     N_R   0.381952 0.470746 0.072058 0.255408
O65   O     O_R   0.412625 0.511357 0.134460 -0.230998
O66   O     O_R   0.409671 0.451672 0.956385 -0.280349
N10   N     N_R   0.380715 0.530265 0.572836 0.255324
O67   O     O_R   0.412528 0.489929 0.635993 -0.224305
O68   O     O_R   0.406500 0.549090 0.454235 -0.286348
N11   N     N_R   0.881153 0.970562 0.069096 0.252835
O69   O     O_R   0.913113 0.010787 0.132502 -0.233298
O70   O     O_R   0.906846 0.951875 0.950278 -0.293505
N12   N     N_R   0.878092 0.032390 0.562386 0.254547
O71   O     O_R   0.909812 0.991401 0.619490 -0.231514
O72   O     O_R   0.905512 0.053637 0.449702 -0.299770
O73   O     O_3   0.356210 0.436840 0.307179 -0.639363
H69   H     H_    0.402372 0.413845 0.315827 0.349956
O74   O     O_3   0.355195 0.563693 0.808524 -0.642762
H70   H     H_    0.401166 0.586827 0.816986 0.344877
O75   O     O_3   0.856499 0.936642 0.305260 -0.629065
H71   H     H_    0.902447 0.913550 0.312899 0.355281
O76   O     O_3   0.855360 0.063746 0.802900 -0.639343
H72   H     H_    0.900697 0.087273 0.810412 0.346224
N13   N     N_R   0.318929 0.624886 0.190904 0.281963
O77   O     O_R   0.396879 0.629396 0.256622 -0.291589
O78   O     O_R   0.296526 0.618415 0.035824 -0.315944
N14   N     N_R   0.321031 0.375874 0.696359 0.274230
O79   O     O_R   0.398258 0.368849 0.764013 -0.284247
O80   O     O_R   0.300412 0.384927 0.542472 -0.314520
N15   N     N_R   0.821041 0.126896 0.194874 0.286049
O81   O     O_R   0.895907 0.141208 0.255845 -0.303419
O82   O     O_R   0.804457 0.108238 0.051333 -0.280965
N16   N     N_R   0.821469 0.874829 0.696468 0.283420
O83   O     O_R   0.898541 0.866110 0.761585 -0.301871
O84   O     O_R   0.800355 0.884225 0.542793 -0.259459
O85   O     O_3   0.279939 0.718015 0.801952 -0.720205
H73   H     H_    0.291565 0.683218 0.817837 0.360721
O86   O     O_3   0.288517 0.287560 0.307371 -0.725948
H74   H     H_    0.296723 0.322805 0.316299 0.354211
O87   O     O_3   0.794393 0.206537 0.796332 -0.698135
H75   H     H_    0.802282 0.171295 0.791575 0.353631
O88   O     O_3   0.778917 0.795652 0.314083 -0.688533
H76   H     H_    0.783870 0.767896 0.387893 0.349230
N17   N     N_R   0.058368 0.790067 0.476796 0.271281
O89   O     O_R   0.084012 0.832238 0.532963 -0.358787
O90   O     O_R   0.099516 0.766122 0.392032 -0.485120
N18   N     N_R   0.066627 0.213365 0.962942 0.256901
O91   O     O_R   0.090432 0.169355 0.998741 -0.369545
O92   O     O_R   0.107021 0.240155 0.883966 -0.497255
N19   N     N_R   0.553073 0.319012 0.640515 0.252631
O93   O     O_R   0.564891 0.346938 0.766393 -0.301685
O94   O     O_R   0.586216 0.330217 0.521894 -0.424423
N20   N     N_R   0.568536 0.705204 0.990056 0.225847
O95   O     O_R   0.582615 0.659665 0.975104 -0.359950
O96   O     O_R   0.614285 0.736761 0.941018 -0.512498
O97   O     O_3   0.020537 0.784865 0.875253 -0.687242
H77   H     H_    0.051564 0.815187 0.872684 0.336255
O98   O     O_3   0.016755 0.216146 0.367403 -0.689021
H78   H     H_    0.048197 0.186111 0.363308 0.334050
O99   O     O_3   0.592839 0.259473 0.023968 -0.665107
H79   H     H_    0.638201 0.239569 0.088597 0.303145
O100  O     O_3   0.597076 0.747143 0.501237 -0.671323
H80   H     H_    0.632697 0.719677 0.488283 0.333842
O101  O     O_3   0.979873 0.801657 0.107166 -0.721705
H81   H     H_    0.004364 0.834344 0.117415 0.365838
O102  O     O_3   0.978704 0.198332 0.601399 -0.722214
H82   H     H_    0.004167 0.165904 0.611775 0.366052
O103  O     O_3   0.487239 0.307506 0.057783 -0.683886
H83   H     H_    0.522037 0.336730 0.067182 0.397431
O104  O     O_3   0.484122 0.698151 0.454967 -0.673227
H84   H     H_    0.452913 0.678403 0.517126 0.315107

loop_
_geom_bond_atom_site_label_1
_geom_bond_atom_site_label_2
_geom_bond_distance
_ccdc_geom_bond_type
N11   O70   1.299355 A    
C14   C18   1.529356 S    
C15   H15   1.110000 S    
P2    C82   1.862046 S    
P9    O41   1.749869 S    
C22   H34   1.112080 S    
C33   H57   1.086196 S    
C61   C67   1.343479 D    
P11   O43   1.755465 S    
O1    Ba1   2.870570 S    
O97   H77   0.993508 S    
P12   O44   1.746872 S    
C2    C30   1.542182 S    
O23   P16   1.763940 S    
C55   C63   1.520789 S    
C24   C28   1.534082 S    
C19   H23   1.112221 S    
C1    H1    1.109388 S    
C34   C50   1.339567 D    
O14   P13   1.543659 D    
P8    O28   1.552861 D    
Ba4   O47   2.997126 S    
C19   H27   1.112623 S    
N14   O79   1.299639 A    
C36   H60   1.085714 S    
P4    O8    1.582176 S    
C3    H47   1.111135 S    
N4    O56   1.292762 A    
P9    O29   1.752094 S    
N2    O51   1.302593 A    
C70   C74   1.460782 S    
O43   C7    1.403681 S    
C5    C9    1.532639 S    
C61   H65   1.087676 S    
P6    O45   1.597003 S    
C44   C48   1.398265 A    
C37   C85   1.405315 A    
O39   C16   1.391096 S    
C17   H25   1.112512 S    
C24   H36   1.111927 S    
C2    H2    1.110010 S    
P14   C85   1.855285 S    
C42   H54   1.082790 S    
O15   P16   1.536798 D    
C11   O99   1.402829 S    
O98   H78   0.992924 S    
C68   O88   1.381272 S    
C8    H8    1.114922 S    
O2    Ba2   2.869986 S    
N13   O78   1.295724 A    
N20   O95   1.300260 A    
P5    O25   1.554358 D    
C12   O100  1.399634 S    
P7    O27   1.554358 D    
C50   C54   1.448515 A    
C69   C77   1.477438 S    
C56   C64   1.502636 S    
C4    N20   1.453858 S    
C16   H16   1.108868 S    
P16   C87   1.856407 S    
Ba1   O45   2.828207 S    
C39   C87   1.404476 A    
C15   H19   1.100480 S    
N18   O92   1.296469 A    
O85   H73   0.989802 S    
P2    O18   1.746569 S    
C21   C25   1.532899 S    
C6    H6    1.111014 S    
C44   H56   1.082941 S    
C25   N9    1.463617 S    
C36   C52   1.355734 D    
C72   C80   1.475110 S    
C77   N13   1.438111 S    
P3    O7    1.581194 S    
C66   O86   1.379080 S    
C26   N10   1.463501 S    
O41   C5    1.403631 S    
C18   H26   1.112528 S    
O31   Ba3   2.806984 S    
C31   N3    1.452215 S    
C22   C26   1.532168 S    
P1    Ba1   3.456331 S    
N10   O67   1.301070 A    
P6    C45   1.817190 S    
C79   N15   1.441054 S    
P6    Ba2   3.457619 S    
P8    O40   1.749477 S    
O24   P15   1.761329 S    
Ba1   Ba2   4.679274 S    
C43   C47   1.398763 A    
O20   C24   1.396910 S    
C54   C62   1.508537 S    
N19   O94   1.300722 A    
C25   H37   1.108168 S    
N9    O65   1.301047 A    
O44   C8    1.405263 S    
O73   H69   0.993066 S    
C36   C48   1.486879 S    
C6    H10   1.110352 S    
C23   H35   1.112091 S    
C29   N1    1.463581 S    
C31   H43   1.112439 S    
C17   N5    1.457777 S    
C78   C82   1.362595 D    
Ba3   Ba4   4.679274 S    
P10   O42   1.751319 S    
C78   N14   1.436000 S    
P12   O32   1.746587 S    
C42   C46   1.400049 A    
N5    O57   1.299956 A    
O25   Ba1   2.873255 S    
C73   C85   1.485519 S    
O42   C6    1.403173 S    
C35   C47   1.475917 S    
Ba2   O46   2.831632 S    
O11   P16   1.763333 S    
P13   C86   1.849784 S    
P2    Ba2   3.455323 S    
O23   C31   1.407250 S    
C76   C88   1.480708 S    
O21   C29   1.414416 S    
P5    Ba1   3.456550 S    
C40   C88   1.404137 A    
C27   H39   1.107349 S    
C80   C84   1.365662 D    
N17   O89   1.300672 A    
C62   C68   1.356260 D    
P9    O33   1.542797 D    
P10   O30   1.765538 S    
P11   O35   1.540716 D    
P8    O47   1.597003 S    
C80   N16   1.438254 S    
C43   C59   1.428385 A    
O3    Ba3   2.870570 S    
C7    H11   1.108027 S    
C17   H21   1.112189 S    
C24   H32   1.106427 S    
N8    O63   1.300430 A    
C42   C58   1.430838 A    
C33   C45   1.462210 S    
C66   C74   1.484739 S    
Ba3   O48   2.998029 S    
O17   C21   1.395283 S    
O76   H72   0.993109 S    
C4    H4    1.109892 S    
Ba1   O46   2.998029 S    
O10   P13   1.748727 S    
C8    H12   1.110811 S    
O19   C23   1.395972 S    
P8    Ba4   3.457619 S    
N12   O71   1.301191 A    
C40   H64   1.081985 S    
O26   Ba2   2.873856 S    
N6    O59   1.300157 A    
N1    O50   1.292460 A    
C9    O97   1.398390 S    
C71   C75   1.457794 S    
Ba4   O48   2.831632 S    
C28   N12   1.463454 S    
C69   C73   1.466412 S    
C56   C60   1.463768 A    
C37   C81   1.489700 S    
C63   H67   1.086100 S    
O7    Ba4   2.833994 S    
C49   C53   1.452105 A    
N16   O83   1.300997 A    
C16   H20   1.104133 S    
C65   O85   1.377005 S    
C13   H13   1.108425 S    
C52   C56   1.450055 A    
C79   C83   1.367388 D    
P3    C83   1.867221 S    
C9    O101  1.402789 S    
N15   O81   1.300629 A    
C34   H58   1.085806 S    
P1    C81   1.868953 S    
N2    O52   1.293250 A    
C21   H33   1.112024 S    
O74   H70   0.993060 S    
P4    Ba4   3.455323 S    
P1    O1    1.551482 D    
C72   C76   1.461986 S    
C4    C32   1.543424 S    
P3    O3    1.551482 D    
C1    H45   1.108538 S    
P4    O20   1.748908 S    
O40   C15   1.389685 S    
C26   O74   1.401538 S    
C18   H22   1.112363 S    
N7    O61   1.300080 A    
C12   H52   1.108284 S    
O11   Ba3   2.797026 S    
P7    C48   1.849661 S    
P8    C47   1.839674 S    
P6    O38   1.748701 S    
O18   C22   1.395149 S    
C54   C58   1.462392 A    
C27   N11   1.463629 S    
C44   C60   1.429882 A    
C28   H40   1.109542 S    
C13   H17   1.104057 S    
C53   C61   1.504494 S    
O104  H84   0.993105 S    
N13   O77   1.298738 A    
C32   N4    1.461557 S    
N20   O96   1.297570 A    
C20   N8    1.457983 S    
C3    N19   1.455924 S    
C10   O98   1.397981 S    
C6    C10   1.532446 S    
C62   H66   1.086345 S    
C23   C27   1.532677 S    
O100  H80   0.992095 S    
C38   C86   1.402582 A    
P1    O5    1.581194 S    
O9    Ba1   2.797026 S    
C30   H42   1.114815 S    
O38   C13   1.390325 S    
C9    H49   1.116048 S    
N19   O93   1.300439 A    
O29   Ba1   2.806984 S    
C14   H14   1.109293 S    
C41   H53   1.083593 S    
O87   H75   0.991149 S    
P10   C49   1.835365 S    
P12   O36   1.541827 D    
O88   H76   0.985194 S    
P7    O39   1.749484 S    
C37   H61   1.082120 S    
C7    C11   1.529294 S    
N3    O54   1.294793 A    
C35   H59   1.085503 S    
O21   P14   1.761181 S    
C18   N6    1.457757 S    
C39   H63   1.081972 S    
C41   C45   1.393121 A    
C3    H3    1.112148 S    
N4    O55   1.302870 A    
C1    N17   1.451822 S    
C70   C78   1.472911 S    
N10   O68   1.298547 A    
C29   H41   1.114400 S    
C32   H44   1.113269 S    
O22   C30   1.414270 S    
C40   C84   1.490567 S    
O8    Ba3   2.837447 S    
C4    H48   1.109921 S    
C1    C29   1.544901 S    
P9    C50   1.831403 S    
C28   O76   1.400883 S    
C14   H18   1.103444 S    
P12   C51   1.841124 S    
P10   O34   1.541022 D    
P11   O31   1.753077 S    
O103  H83   0.992287 S    
O28   Ba4   2.873856 S    
C5    H5    1.111067 S    
C64   C66   1.345648 D    
C7    H7    1.113348 S    
O10   Ba2   2.801636 S    
C75   C87   1.477545 S    
O99   H79   0.993168 S    
C33   C49   1.337566 D    
O13   P14   1.542156 D    
O30   Ba2   2.802351 S    
C34   C46   1.467716 S    
C11   O103  1.401287 S    
C8    C12   1.532108 S    
Ba2   O45   2.997126 S    
O102  H82   0.992578 S    
P1    O17   1.747074 S    
O9    P14   1.746952 S    
P3    O19   1.747637 S    
O24   C32   1.412827 S    
P4    O4    1.552983 D    
O101  H81   0.992568 S    
P7    Ba3   3.456550 S    
N18   O91   1.300296 A    
N15   O82   1.295526 A    
C12   O104  1.398955 S    
C71   C79   1.472379 S    
C63   C65   1.350209 D    
P4    C84   1.868985 S    
P7    O48   1.598040 S    
C20   H24   1.112270 S    
C5    H9    1.111601 S    
P5    O46   1.598040 S    
C16   C20   1.528929 S    
C25   O73   1.401462 S    
N7    O62   1.300768 A    
C77   C81   1.362323 D    
O75   H71   0.993089 S    
C38   H62   1.082169 S    
P2    O2    1.552983 D    
O4    Ba4   2.869986 S    
C2    H46   1.106784 S    
C74   C86   1.482646 S    
N8    O64   1.300573 A    
N9    O66   1.298903 A    
P6    O26   1.552861 D    
Ba3   O47   2.828207 S    
C43   H55   1.083600 S    
C55   C59   1.464699 A    
P3    Ba3   3.456331 S    
O5    Ba2   2.833994 S    
C51   C55   1.445731 A    
C26   H38   1.108204 S    
N12   O72   1.299490 A    
C13   C17   1.528404 S    
C27   O75   1.401455 S    
C39   C83   1.492561 S    
C53   C57   1.461190 A    
C15   C19   1.528123 S    
N6    O60   1.300512 A    
N1    O49   1.301883 A    
C30   N2    1.463093 S    
C68   C76   1.478317 S    
N14   O80   1.296280 A    
O27   Ba3   2.873255 S    
N5    O58   1.300306 A    
C38   C82   1.487691 S    
N16   O84   1.296690 A    
C3    C31   1.538060 S    
N11   O69   1.301076 A    
P2    O6    1.582176 S    
O86   H74   0.990176 S    
C10   H50   1.115995 S    
C11   H51   1.115754 S    
C64   H68   1.085899 S    
C22   H30   1.106954 S    
C67   C75   1.478026 S    
O37   C14   1.391103 S    
C65   C73   1.492418 S    
P11   C52   1.862956 S    
P5    O37   1.748617 S    
P5    C46   1.823106 S    
C21   H29   1.106886 S    
C20   H28   1.112532 S    
O22   P13   1.759240 S    
C67   O87   1.379516 S    
N17   O90   1.295995 A    
O16   P15   1.540138 D    
O12   Ba4   2.801636 S    
C35   C51   1.346642 D    
O32   Ba4   2.802351 S    
C10   O102  1.402437 S    
N3    O53   1.300242 A    
O6    Ba1   2.837447 S    
C23   H31   1.107078 S    
C2    N18   1.452130 S    
O12   P15   1.740865 S    
C41   C57   1.424956 A    
C19   N7    1.457493 S    
P15   C88   1.854094 S    
