data_mof_unit_12305.cif
_audit_creation_date              2012-12-10T16:57:08-0500
_audit_creation_method            fapswitch 2.2
_symmetry_space_group_name_H-M    P1
_symmetry_Int_Tables_number       1
_space_group_crystal_system       triclinic
_cell_length_a                    7.762072
_cell_length_b                    8.579265
_cell_length_c                    16.542559
_cell_angle_alpha                 91.718991
_cell_angle_beta                  80.649549
_cell_angle_gamma                 93.729352
_cell_volume                      1084.46642194

loop_
_atom_site_label
_atom_site_type_symbol
_atom_type_description
_atom_site_fract_x
_atom_site_fract_y
_atom_site_fract_z
_atom_type_partial_charge
C1    C     C_R   0.546230 0.794847 0.497962 0.968058
C2    C     C_R   0.405028 0.532210 0.213691 0.180805
C3    C     C_R   0.602321 0.569970 0.864390 -0.145166
C4    C     C_R   0.428088 0.599010 0.136509 -0.146701
C5    C     C_R   0.493217 0.690735 0.894542 0.152181
C6    C     C_R   0.586639 0.680490 0.104338 0.154775
C7    C     C_R   0.370258 0.737233 0.848950 -0.188988
C8    C     C_R   0.725534 0.688990 0.148350 -0.189131
C9    C     C_R   0.361136 0.669504 0.772509 -0.242004
C10   C     C_R   0.704963 0.622975 0.225010 -0.241718
C11   C     C_2   0.486571 0.750739 0.978794 -0.228247
C12   C     C_R   0.453761 0.205159 0.502132 0.973002
C13   C     C_2   0.619069 0.733487 0.019495 -0.228451
C14   C     C_3   0.712610 0.370462 0.758212 -0.893204
C15   C     C_3   0.233264 0.444206 0.244642 -0.909097
C16   C     C_2   0.570614 0.958273 0.496846 -0.380814
C17   C     C_2   0.429362 0.041729 0.503397 -0.387898
C18   C     C_R   0.478356 0.506649 0.654827 0.867605
C19   C     C_R   0.523382 0.502623 0.345055 0.868354
C20   C     C_R   0.474693 0.553571 0.740509 -0.048997
C21   C     C_R   0.544743 0.546754 0.259128 -0.049600
C22   C     C_R   0.595044 0.501022 0.787479 0.167753
H1    H     H_    0.813825 0.636138 0.258693 0.171574
H2    H     H_    0.296008 0.990610 0.509650 0.179831
H3    H     H_    0.022821 0.380009 0.439413 0.191681
H4    H     H_    0.977119 0.619794 0.560695 0.189825
H5    H     H_    0.776505 0.328445 0.808197 0.230991
H6    H     H_    0.635054 0.269719 0.735731 0.237122
H7    H     H_    0.817735 0.411715 0.708416 0.261456
H8    H     H_    0.152306 0.422734 0.195412 0.231226
H9    H     H_    0.257249 0.328793 0.267905 0.236328
H10   H     H_    0.156282 0.512871 0.294085 0.257707
H11   H     H_    0.268678 0.712045 0.737127 0.166479
H12   H     H_    0.750866 0.724962 0.985995 0.149100
H13   H     H_    0.359103 0.778235 0.011933 0.148552
H14   H     H_    0.281324 0.826195 0.872538 0.139001
H15   H     H_    0.850406 0.746468 0.123213 0.136705
H16   H     H_    0.323059 0.582733 0.100761 0.131335
H17   H     H_    0.690277 0.525594 0.901468 0.134836
H18   H     H_    0.703966 0.009388 0.490611 0.179983
N1    N     N_2   0.953500 0.457650 0.478520 -0.176849
N2    N     N_2   0.046500 0.542350 0.521480 -0.176378
O1    O     O_R   0.388470 0.738640 0.505270 -0.612110
O2    O     O_R   0.611530 0.261360 0.494730 -0.607344
O3    O     O_R   0.679650 0.711510 0.491500 -0.629639
O4    O     O_R   0.320350 0.288490 0.508500 -0.625753
O5    O     O_R   0.337210 0.515200 0.623500 -0.620030
O6    O     O_R   0.662790 0.484800 0.376500 -0.620707
O7    O     O_R   0.628380 0.488060 0.609730 -0.613591
O8    O     O_R   0.371620 0.511940 0.390270 -0.612348
Zn1   Zn    Zn3+2 0.305580 0.518120 0.509190 0.934142
Zn2   Zn    Zn3+2 0.694420 0.481880 0.490810 0.934361

loop_
_geom_bond_atom_site_label_1
_geom_bond_atom_site_label_2
_ccdc_geom_bond_type
C12   C17   S    
C2    C4    A    
C15   H9    S    
O2    Zn2   S    
C14   H5    S    
C7    H14   S    
N1    Zn2   S    
N2    Zn1   S    
O7    Zn2   S    
O1    Zn1   S    
C18   O5    A    
C14   C22   S    
C2    C21   A    
C11   H13   S    
O8    Zn1   S    
C3    H17   S    
C13   H12   S    
C12   O2    A    
C1    C16   S    
C6    C13   S    
C9    H11   S    
C2    C15   S    
C11   C13   D    
C19   O8    A    
C1    O3    A    
C16   H18   S    
C8    C10   A    
C19   C21   S    
C4    H16   S    
C5    C11   S    
C18   C20   S    
C10   C21   A    
C10   H1    S    
C17   H2    S    
C8    H15   S    
C14   H7    S    
C7    C9    A    
O6    Zn2   S    
H4    N2    S    
C15   H8    S    
C4    C6    A    
N1    N2    D    
H3    N1    S    
C5    C7    A    
C19   O6    A    
C3    C22   A    
C6    C8    A    
C9    C20   A    
O3    Zn2   S    
C14   H6    S    
O4    Zn1   S    
C1    O1    A    
O5    Zn1   S    
C18   O7    A    
C20   C22   A    
C16   C17   D    
C3    C5    A    
C12   O4    A    
C15   H10   S    
