data_mof_unit_33928.cif
_audit_creation_date              2012-10-26T18:50:05-0400
_audit_creation_method            fapswitch 2.2
_symmetry_space_group_name_H-M    P1
_symmetry_Int_Tables_number       1
_space_group_crystal_system       triclinic
_cell_length_a                    10.82865
_cell_length_b                    12.993543
_cell_length_c                    11.676511
_cell_angle_alpha                 99.703533
_cell_angle_beta                  93.449099
_cell_angle_gamma                 91.363458
_cell_volume                      1615.51451815

loop_
_atom_site_label
_atom_site_type_symbol
_atom_type_description
_atom_site_fract_x
_atom_site_fract_y
_atom_site_fract_z
_atom_type_partial_charge
C1    C     C_R   0.500418 0.299158 0.478698 0.580594
C2    C     C_R   0.498986 0.860775 0.433859 -0.111579
C3    C     C_R   0.501958 0.031220 0.555891 0.040684
C4    C     C_R   0.499778 0.968829 0.444201 0.042141
C5    C     C_R   0.387255 0.395883 0.021626 0.195385
C6    C     C_R   0.612728 0.604100 0.978374 0.193548
C7    C     C_R   0.398148 0.407152 0.144677 0.048084
C8    C     C_R   0.601881 0.592819 0.855326 0.045468
C9    C     C_R   0.547293 0.545401 0.157101 0.057933
C10   C     C_R   0.452635 0.454622 0.842871 0.057853
C11   C     C_R   0.540539 0.537910 0.034197 0.009127
C12   C     C_R   0.500258 0.700868 0.521343 0.582629
C13   C     C_R   0.459411 0.462084 0.965782 0.006395
C14   C     C_R   0.262674 0.494745 0.499935 0.581746
C15   C     C_R   0.737282 0.505730 0.499956 0.583526
C16   C     C_R   0.110259 0.300040 0.478462 0.244551
C17   C     C_R   0.888594 0.698370 0.503232 0.242761
C18   C     C_R   0.037278 0.211500 0.484882 -0.054646
C19   C     C_R   0.963107 0.789529 0.523621 -0.056613
C20   C     C_R   0.911029 0.218684 0.495216 -0.165473
C21   C     C_R   0.090593 0.784574 0.536533 -0.166064
C22   C     C_R   0.856214 0.314461 0.498330 -0.107330
C23   C     C_R   0.500404 0.814250 0.533640 0.025067
C24   C     C_R   0.145087 0.688239 0.528059 -0.107090
C25   C     C_R   0.927700 0.406925 0.495774 -0.028581
C26   C     C_R   0.072504 0.593862 0.510397 -0.028087
C27   C     C_R   0.057412 0.401055 0.490281 0.006579
C28   C     C_R   0.942062 0.598429 0.502412 0.006360
C29   C     C_R   0.870980 0.504222 0.497895 -0.008958
C30   C     C_R   0.128802 0.495812 0.500249 -0.007736
C31   C     C_R   0.500857 0.185789 0.466439 0.024502
C32   C     C_R   0.498378 0.015441 0.344600 -0.133983
C33   C     C_R   0.503226 0.984609 0.655488 -0.135666
C34   C     C_R   0.498799 0.123579 0.355654 -0.129499
C35   C     C_R   0.502484 0.876464 0.644424 -0.129933
C36   C     C_R   0.502659 0.139273 0.566232 -0.112298
Cu1   Cu    Cu3+1 0.509250 0.507730 0.615930 0.973019
Cu2   Cu    Cu3+1 0.490750 0.492270 0.384070 0.940873
H1    H     H_    0.147806 0.855648 0.550810 0.123185
H2    H     H_    0.497476 0.158368 0.277587 0.132369
H3    H     H_    0.496771 0.968407 0.258501 0.118496
H4    H     H_    0.504797 0.031642 0.741585 0.119075
H5    H     H_    0.390647 0.397296 0.788756 0.192053
H6    H     H_    0.609187 0.602790 0.211156 0.172515
H7    H     H_    0.656491 0.643133 0.811425 0.128421
H8    H     H_    0.343587 0.356807 0.188566 0.108463
H9    H     H_    0.264640 0.281959 0.008001 0.319332
H10   H     H_    0.735377 0.718003 0.992034 0.321558
H11   H     H_    0.240551 0.304039 0.378417 0.321616
H12   H     H_    0.854752 0.149284 0.498242 0.122329
H13   H     H_    0.747217 0.675056 0.397878 0.331776
H14   H     H_    0.078634 0.135790 0.478097 0.137581
H15   H     H_    0.921568 0.864832 0.526092 0.137303
H16   H     H_    0.757106 0.314875 0.503762 0.131119
H17   H     H_    0.244912 0.689058 0.536840 0.129603
H18   H     H_    0.497667 0.813151 0.348025 0.132622
H19   H     H_    0.504057 0.186890 0.652073 0.133963
H20   H     H_    0.503480 0.841676 0.722481 0.133191
N1    N     N_R   0.523180 0.519350 0.790130 -0.277221
N2    N     N_R   0.476820 0.480650 0.209870 -0.271713
O1    O     O_R   0.506570 0.354460 0.582000 -0.503593
O2    O     O_3   0.692387 0.678661 0.044592 -0.728988
O3    O     O_3   0.231288 0.283671 0.455611 -0.705376
O4    O     O_3   0.764957 0.710163 0.479583 -0.707503
O5    O     O_R   0.493430 0.645540 0.418000 -0.511559
O6    O     O_R   0.490940 0.341410 0.386200 -0.514510
O7    O     O_R   0.509060 0.658590 0.613800 -0.506165
O8    O     O_R   0.327470 0.506520 0.597900 -0.485477
O9    O     O_R   0.672530 0.493480 0.402100 -0.511556
O10   O     O_R   0.311840 0.493460 0.402100 -0.513788
O11   O     O_R   0.688160 0.506540 0.597900 -0.491549
O12   O     O_3   0.307604 0.321304 0.955429 -0.722860

loop_
_geom_bond_atom_site_label_1
_geom_bond_atom_site_label_2
_ccdc_geom_bond_type
Cu1   O1    S    
C32   H3    S    
Cu2   O10   S    
C26   C30   A    
Cu1   Cu2   S    
H11   O3    S    
C16   O3    S    
C25   C27   A    
C15   O11   A    
C12   O5    A    
C5    C13   A    
C21   H1    S    
Cu2   O5    S    
C9    C11   A    
C9    N2    A    
C6    O2    S    
C16   C27   A    
C6    C8    A    
C1    O6    A    
H10   O2    S    
Cu2   O9    S    
C18   H14   S    
Cu1   N1    S    
C22   H16   S    
C2    H18   S    
C26   C28   A    
C27   C30   A    
C14   O10   A    
C12   C23   S    
C19   H15   S    
C4    C32   A    
C2    C4    A    
C3    C36   A    
C14   C30   S    
C35   H20   S    
Cu2   N2    S    
C33   H4    S    
Cu1   O7    S    
C28   C29   A    
C17   C19   A    
C24   C26   A    
C15   C29   S    
C5    O12   S    
C23   C35   A    
Cu1   O11   S    
C8    N1    A    
C25   C29   A    
C15   O9    A    
C12   O7    A    
C34   H2    S    
H9    O12   S    
C31   C34   A    
C11   C13   A    
C3    C33   A    
C6    C11   A    
C3    C4    A    
C7    H8    S    
C7    N2    A    
C1    C31   S    
Cu1   O8    S    
C18   C20   A    
C16   C18   A    
C36   H19   S    
C21   C24   A    
C2    C23   A    
C5    C7    A    
C14   O8    A    
C31   C36   A    
C9    H6    S    
C20   H12   S    
C17   O4    S    
C19   C21   A    
C10   H5    S    
C8    H7    S    
C17   C28   A    
C10   N1    A    
C10   C13   A    
C33   C35   A    
H13   O4    S    
Cu2   O6    S    
C20   C22   A    
C32   C34   A    
C24   H17   S    
C22   C25   A    
C1    O1    A    
