data_mof_unit_62940.cif
_audit_creation_date              2012-12-10T19:48:24-0500
_audit_creation_method            fapswitch 2.2
_symmetry_space_group_name_H-M    P1
_symmetry_Int_Tables_number       1
_space_group_crystal_system       triclinic
_cell_length_a                    18.268899
_cell_length_b                    18.2689
_cell_length_c                    30.137223
_cell_angle_alpha                 89.996516
_cell_angle_beta                  90.001167
_cell_angle_gamma                 90.001168
_cell_volume                      10058.3791907

loop_
_atom_site_label
_atom_site_type_symbol
_atom_type_description
_atom_site_fract_x
_atom_site_fract_y
_atom_site_fract_z
_atom_type_partial_charge
C1    C     C_R   0.141259 0.500001 1.000000 0.931156
C2    C     C_1   0.500002 0.217769 0.000003 -0.173124
C3    C     C_R   0.095427 0.594727 0.773474 0.318749
C4    C     C_R   0.403244 0.906647 0.226572 0.318079
C5    C     C_R   0.904196 0.594351 0.226526 0.318665
C6    C     C_R   0.594725 0.095429 0.226521 0.318724
C7    C     C_R   0.095792 0.405635 0.226536 0.318754
C8    C     C_1   0.782231 0.499998 0.000001 -0.173149
C9    C     C_1   0.499998 0.782231 0.999997 -0.173178
C10   C     C_1   0.717769 0.000002 0.499999 -0.173255
C11   C     C_1   0.000002 0.717769 0.500002 -0.173229
C12   C     C_1   0.282231 0.999998 0.500001 -0.173041
C13   C     C_1   0.999998 0.282231 0.499997 -0.173094
C14   C     C_R   0.999999 0.499998 0.086905 0.884781
C15   C     C_R   0.500002 0.999991 0.086908 0.885129
C16   C     C_R   0.999991 0.500003 0.913091 0.885155
C17   C     C_R   0.500001 0.141259 0.000001 0.931240
C18   C     C_R   0.500001 0.000008 0.913091 0.885162
C19   C     C_R   0.499991 0.999996 0.586908 0.885149
C20   C     C_R   0.000002 0.499991 0.586909 0.885156
C21   C     C_R   0.499991 0.000003 0.413091 0.885130
C22   C     C_R   0.999999 0.500000 0.413095 0.884774
C23   C     C_1   0.282573 0.500001 0.999999 -0.164381
C24   C     C_1   0.500001 0.282573 0.000003 -0.164270
C25   C     C_1   0.717426 0.499999 0.000001 -0.164341
C26   C     C_1   0.499999 0.717426 0.999997 -0.164371
C27   C     C_1   0.782574 0.000001 0.499999 -0.164508
C28   C     C_R   0.858741 0.499999 0.000001 0.931104
C29   C     C_1   0.000001 0.782573 0.500003 -0.164479
C30   C     C_1   0.217426 0.999999 0.500001 -0.164126
C31   C     C_1   0.999999 0.217426 0.499997 -0.164238
C32   C     C_R   0.500000 0.359088 0.000001 0.919136
C33   C     C_R   0.640912 0.500000 0.000000 0.919088
C34   C     C_R   0.500000 0.640912 0.999999 0.919086
C35   C     C_R   0.359088 0.500000 1.000000 0.919129
C36   C     C_R   0.000000 0.859088 0.500001 0.919079
C37   C     C_R   0.140912 1.000000 0.500000 0.919143
C38   C     C_R   1.000000 0.140912 0.499999 0.919136
C39   C     C_R   0.499999 0.858741 0.999999 0.931227
C40   C     C_R   0.859088 0.000000 0.500000 0.919077
C41   C     C_R   0.047937 0.454118 0.342689 -0.146802
C42   C     C_R   0.545073 0.048696 0.342674 -0.146462
C43   C     C_R   0.952056 0.545875 0.342684 -0.146605
C44   C     C_R   0.455011 0.951209 0.342669 -0.146677
C45   C     C_R   0.048693 0.545075 0.657323 -0.146585
C46   C     C_R   0.545093 0.951325 0.657326 -0.146399
C47   C     C_R   0.951202 0.455018 0.657333 -0.146609
C48   C     C_R   0.454989 0.048769 0.657329 -0.146807
C49   C     C_R   0.548706 0.954942 0.842677 -0.146580
C50   C     C_R   0.641258 0.000001 0.500000 0.931261
C51   C     C_R   0.045076 0.548693 0.842674 -0.146397
C52   C     C_R   0.451180 0.044958 0.842665 -0.146612
C53   C     C_R   0.955009 0.451211 0.842669 -0.146798
C54   C     C_R   0.548690 0.045078 0.157323 -0.146463
C55   C     C_R   0.045853 0.452033 0.157317 -0.146609
C56   C     C_R   0.451204 0.955016 0.157333 -0.146677
C57   C     C_R   0.954137 0.547953 0.157312 -0.146789
C58   C     C_R   0.999998 0.499997 0.365339 -0.142561
C59   C     C_R   0.499958 0.000025 0.365330 -0.143294
C60   C     C_R   0.000021 0.499961 0.634670 -0.143285
C61   C     C_R   0.000001 0.641258 0.500001 0.931141
C62   C     C_R   0.499957 0.999974 0.634669 -0.143263
C63   C     C_R   0.500017 0.000036 0.865329 -0.143300
C64   C     C_R   0.999958 0.500025 0.865330 -0.143281
C65   C     C_R   0.500021 0.999961 0.134670 -0.143293
C66   C     C_R   0.999996 0.499994 0.134661 -0.142579
C67   C     C_R   0.952018 0.547282 0.296424 0.065573
C68   C     C_R   0.453189 0.951559 0.296420 0.065640
C69   C     C_R   0.047972 0.452706 0.296429 0.065549
C70   C     C_R   0.546646 0.048605 0.296419 0.065301
C71   C     C_R   0.951550 0.453198 0.703583 0.065647
C72   C     C_R   0.358741 0.999999 0.500000 0.931197
C73   C     C_R   0.453165 0.048417 0.703578 0.065625
C74   C     C_R   0.048600 0.546649 0.703578 0.065293
C75   C     C_R   0.546665 0.951416 0.703581 0.065321
C76   C     C_R   0.451527 0.046778 0.796415 0.065643
C77   C     C_R   0.953187 0.451561 0.796420 0.065621
C78   C     C_R   0.548614 0.953368 0.796422 0.065285
C79   C     C_R   0.046649 0.548602 0.796419 0.065322
C80   C     C_R   0.451552 0.953196 0.203583 0.065640
C81   C     C_R   0.952727 0.547990 0.203571 0.065544
C82   C     C_R   0.548598 0.046652 0.203578 0.065301
C83   C     C_R   0.999999 0.358741 0.499998 0.931116
C84   C     C_R   0.047261 0.451994 0.203576 0.065571
C85   C     C_R   0.999995 0.499993 0.273161 -0.102600
C86   C     C_R   0.499693 0.000305 0.273158 -0.102436
C87   C     C_R   0.000298 0.499699 0.726842 -0.102440
C88   C     C_R   0.499690 0.999692 0.726841 -0.102441
C89   C     C_R   0.500294 0.000298 0.773157 -0.102435
C90   C     C_R   0.999693 0.500305 0.773158 -0.102441
C91   C     C_R   0.500298 0.999700 0.226842 -0.102435
C92   C     C_R   0.999994 0.499992 0.226839 -0.102599
C93   C     C_R   0.905680 0.595834 0.273465 0.318752
C94   C     C_1   0.217769 0.500002 0.999999 -0.173176
C95   C     C_R   0.406639 0.903252 0.273433 0.318085
C96   C     C_R   0.094310 0.404154 0.273475 0.318663
C97   C     C_R   0.595422 0.094732 0.273474 0.318721
C98   C     C_R   0.903240 0.406651 0.726572 0.318131
C99   C     C_R   0.406592 0.096701 0.726564 0.318037
C100  C     C_R   0.094730 0.595424 0.726521 0.318650
C101  C     C_R   0.595462 0.905312 0.726527 0.318748
C102  C     C_R   0.403198 0.093303 0.773425 0.318124
C103  C     C_R   0.906635 0.403256 0.773433 0.318032
C104  C     C_R   0.594764 0.904614 0.773481 0.318653
H1    H     H_    0.084195 0.418816 0.361493 0.204046
H2    H     H_    0.079944 0.585376 0.861471 0.204447
H3    H     H_    0.414238 0.079564 0.861451 0.204596
H4    H     H_    0.920385 0.414286 0.861459 0.204584
H5    H     H_    0.585376 0.079944 0.138525 0.204455
H6    H     H_    0.081141 0.415761 0.138516 0.204058
H7    H     H_    0.414277 0.920393 0.138545 0.204591
H8    H     H_    0.918850 0.584226 0.138508 0.204064
H9    H     H_    0.856301 0.689555 0.279622 0.352836
H10   H     H_    0.357704 0.809180 0.278869 0.353255
H11   H     H_    0.143700 0.310437 0.279640 0.352849
H12   H     H_    0.579940 0.085380 0.361471 0.204455
H13   H     H_    0.689048 0.144223 0.279887 0.352823
H14   H     H_    0.809164 0.357723 0.721139 0.353222
H15   H     H_    0.357611 0.190748 0.721127 0.353232
H16   H     H_    0.144227 0.689047 0.720105 0.352828
H17   H     H_    0.689113 0.855872 0.720117 0.352814
H18   H     H_    0.309101 0.142186 0.778855 0.353217
H19   H     H_    0.857695 0.309187 0.778869 0.353232
H20   H     H_    0.644302 0.811013 0.779897 0.352828
H21   H     H_    0.189057 0.644211 0.779887 0.352816
H22   H     H_    0.309171 0.857715 0.221139 0.353251
H23   H     H_    0.915799 0.581179 0.361484 0.204050
H24   H     H_    0.810504 0.643788 0.220363 0.352859
H25   H     H_    0.644216 0.189056 0.220105 0.352822
H26   H     H_    0.189490 0.356209 0.220377 0.352837
H27   H     H_    0.420389 0.914282 0.361459 0.204591
H28   H     H_    0.085380 0.579940 0.638525 0.204450
H29   H     H_    0.579977 0.914657 0.638530 0.204436
H30   H     H_    0.914273 0.420397 0.638546 0.204586
H31   H     H_    0.420351 0.085680 0.638538 0.204569
H32   H     H_    0.585406 0.920093 0.861476 0.204464
O1    O     O_R   0.107310 0.560570 0.000010 -0.615890
O2    O     O_R   0.939430 0.607310 0.500010 -0.615912
O3    O     O_R   0.392690 0.939430 0.500010 -0.615896
O4    O     O_R   0.060570 0.392690 0.500010 -0.615896
O5    O     O_R   0.607310 0.939430 0.499990 -0.615893
O6    O     O_R   0.939430 0.392690 0.499990 -0.615914
O7    O     O_R   0.392690 0.060570 0.499990 -0.615899
O8    O     O_R   0.060570 0.607310 0.499990 -0.615884
O9    O     O_R   0.999950 0.560580 0.066080 -0.617738
O10   O     O_R   0.439420 0.999950 0.066080 -0.617977
O11   O     O_R   0.000050 0.439420 0.066080 -0.617711
O12   O     O_R   0.439430 0.107310 0.000010 -0.615924
O13   O     O_R   0.560580 0.000050 0.066080 -0.617933
O14   O     O_R   0.999950 0.439420 0.933920 -0.618024
O15   O     O_R   0.439420 0.000050 0.933920 -0.617994
O16   O     O_R   0.000050 0.560580 0.933920 -0.617949
O17   O     O_R   0.560580 0.999950 0.933920 -0.617990
O18   O     O_R   0.499950 0.060580 0.566080 -0.618015
O19   O     O_R   0.939420 0.499950 0.566080 -0.617979
O20   O     O_R   0.500050 0.939420 0.566080 -0.617948
O21   O     O_R   0.060580 0.500050 0.566080 -0.617997
O22   O     O_R   0.499950 0.939420 0.433920 -0.617962
O23   O     O_R   0.892690 0.439430 0.000010 -0.615906
O24   O     O_R   0.939420 0.500050 0.433920 -0.617699
O25   O     O_R   0.500050 0.060580 0.433920 -0.617948
O26   O     O_R   0.060580 0.499950 0.433920 -0.617739
O27   O     O_R   0.499980 0.392670 0.037330 -0.615037
O28   O     O_R   0.607330 0.499980 0.037330 -0.614949
O29   O     O_R   0.500020 0.607330 0.037330 -0.614491
O30   O     O_R   0.392670 0.500020 0.037330 -0.614686
O31   O     O_R   0.499980 0.607330 0.962670 -0.614981
O32   O     O_R   0.607330 0.500020 0.962670 -0.614486
O33   O     O_R   0.500020 0.392670 0.962670 -0.614256
O34   O     O_R   0.560570 0.892690 0.000010 -0.615866
O35   O     O_R   0.392670 0.499980 0.962670 -0.614724
O36   O     O_R   0.999980 0.892670 0.537330 -0.614947
O37   O     O_R   0.107330 0.999980 0.537330 -0.614561
O38   O     O_R   0.000020 0.107330 0.537330 -0.614262
O39   O     O_R   0.892670 0.000020 0.537330 -0.614671
O40   O     O_R   0.999980 0.107330 0.462670 -0.614993
O41   O     O_R   0.107330 0.000020 0.462670 -0.614576
O42   O     O_R   0.000020 0.892670 0.462670 -0.614641
O43   O     O_R   0.892670 0.999980 0.462670 -0.614953
O44   O     O_3   0.863888 0.644804 0.297588 -0.774518
O45   O     O_R   0.107310 0.439430 0.999990 -0.615921
O46   O     O_3   0.366015 0.853136 0.297427 -0.774396
O47   O     O_3   0.136103 0.355185 0.297603 -0.774544
O48   O     O_3   0.644025 0.136893 0.297638 -0.774570
O49   O     O_3   0.853122 0.366029 0.702580 -0.774413
O50   O     O_3   0.365945 0.146797 0.702568 -0.774436
O51   O     O_3   0.136894 0.644024 0.702354 -0.774610
O52   O     O_3   0.644085 0.863176 0.702365 -0.774584
O53   O     O_3   0.353063 0.133903 0.797415 -0.774416
O54   O     O_3   0.866008 0.353143 0.797428 -0.774436
O55   O     O_3   0.636946 0.856031 0.797648 -0.774602
O56   O     O_R   0.439430 0.892690 0.999990 -0.615914
O57   O     O_3   0.144032 0.636885 0.797638 -0.774588
O58   O     O_3   0.353128 0.866022 0.202580 -0.774397
O59   O     O_3   0.855246 0.636165 0.202398 -0.774540
O60   O     O_3   0.636886 0.144032 0.202354 -0.774568
O61   O     O_3   0.144743 0.363821 0.202413 -0.774526
O62   O     O_R   0.892690 0.560570 0.999990 -0.615886
O63   O     O_R   0.560570 0.107310 0.999990 -0.615871
O64   O     O_R   0.607310 0.060570 0.500010 -0.615892
Zn1   Zn    Zn3+2 0.000000 0.580890 0.000000 1.001892
Zn2   Zn    Zn3+2 0.500000 0.500000 0.950170 1.005473
Zn3   Zn    Zn3+2 1.000000 0.000000 0.549830 1.005483
Zn4   Zn    Zn3+2 1.000000 0.000000 0.450170 1.004771
Zn5   Zn    Zn3+2 0.419110 0.000000 0.000000 1.001550
Zn6   Zn    Zn3+2 0.000000 0.419110 0.000000 1.001686
Zn7   Zn    Zn3+2 0.580890 0.000000 0.000000 1.001866
Zn8   Zn    Zn3+2 0.500000 0.080890 0.500000 1.001656
Zn9   Zn    Zn3+2 0.919110 0.500000 0.500000 1.001785
Zn10  Zn    Zn3+2 0.500000 0.919110 0.500000 1.001756
Zn11  Zn    Zn3+2 0.080890 0.500000 0.500000 1.001790
Zn12  Zn    Zn3+2 0.500000 0.500000 0.049830 1.004767

loop_
_geom_bond_atom_site_label_1
_geom_bond_atom_site_label_2
_ccdc_geom_bond_type
C10   C27   T    
O22   Zn10  S    
C72   O7    A    
C32   O33   A    
C45   C60   A    
C49   C63   A    
C20   O19   A    
O42   Zn4   S    
O36   Zn3   S    
C68   C86   A    
O56   Zn5   S    
O40   Zn4   S    
C48   H31   S    
H24   O59   S    
C42   C70   A    
C57   C66   A    
C69   C96   A    
C3    C79   A    
C75   C101  A    
O13   Zn7   S    
C6    O60   S    
H13   O48   S    
C1    O1    A    
C54   C65   A    
C99   O50   S    
C44   H27   S    
C4    O58   S    
O24   Zn9   S    
C14   O9    A    
C3    O57   S    
C41   H1    S    
C97   O48   S    
C6    C82   A    
C15   O13   A    
C41   C58   A    
C4    C80   A    
C39   O34   A    
C86   C91   A    
C22   O26   A    
C53   C64   A    
C61   O2    A    
C38   O38   A    
C57   H8    S    
O26   Zn11  S    
C44   C59   A    
C56   C65   A    
C15   C65   S    
C32   O27   A    
C9    C39   S    
C35   O30   A    
C35   O35   A    
C49   C78   A    
C21   O22   A    
O31   Zn2   S    
C83   O4    A    
C79   C90   A    
C43   C58   A    
O30   Zn12  S    
O33   Zn2   S    
O17   Zn7   S    
C81   C92   A    
C38   O40   A    
C3    C100  A    
C26   C34   S    
C72   O3    A    
C30   C37   S    
C52   H3    S    
C1    C94   S    
C98   C103  A    
O25   Zn8   S    
C74   C87   A    
C20   C60   S    
C34   O29   A    
C56   H7    S    
C70   C97   A    
C76   C89   A    
C5    O59   S    
C82   C91   A    
C15   O10   A    
C7    C84   A    
C47   C60   A    
C78   C89   A    
H25   O60   S    
C2    C17   S    
C8    C25   T    
O10   Zn5   S    
C46   C75   A    
H14   O49   S    
C9    C26   T    
O23   Zn6   S    
O3    Zn10  S    
C76   C102  A    
C71   C98   A    
C77   C90   A    
C67   C85   A    
C68   C95   A    
C36   O36   A    
C95   O46   S    
O20   Zn10  S    
C6    C97   A    
O19   Zn9   S    
C33   O28   A    
C36   O42   A    
O14   Zn6   S    
C43   H23   S    
O35   Zn2   S    
C1    O45   A    
C43   C67   A    
C74   C100  A    
C52   C76   A    
C37   O37   A    
H10   O46   S    
C104  O55   S    
C78   C104  A    
C14   O11   A    
C28   O23   A    
C28   O62   A    
C85   C92   A    
C54   H5    S    
C45   C74   A    
C7    O61   S    
O11   Zn6   S    
C53   C77   A    
C24   C32   S    
C73   C88   A    
C7    C96   A    
C16   C64   S    
C83   O6    A    
C40   O43   A    
C5    C81   A    
H22   O58   S    
C61   O8    A    
C48   C62   A    
O7    Zn8   S    
C29   C36   S    
H21   O57   S    
C27   C40   S    
C17   O12   A    
O62   Zn1   S    
O63   Zn7   S    
C14   C66   S    
O41   Zn4   S    
C16   O16   A    
C103  O54   S    
O15   Zn5   S    
H19   O54   S    
C84   C92   A    
C47   C71   A    
C10   C50   S    
C18   O17   A    
O12   Zn5   S    
C71   C87   A    
C100  O51   S    
C42   H12   S    
C49   H32   S    
C46   C62   A    
O21   Zn11  S    
C101  C104  A    
C23   C35   S    
C20   O21   A    
C47   H30   S    
C2    C24   T    
C8    C28   S    
C57   C81   A    
O16   Zn1   S    
C44   C68   A    
C33   O32   A    
C4    C95   A    
C18   O15   A    
C101  O52   S    
H16   O51   S    
C54   C82   A    
C55   C66   A    
C69   C85   A    
O1    Zn1   S    
H18   O53   S    
C41   C69   A    
C102  O53   S    
C73   C99   A    
H26   O61   S    
C50   O64   A    
C12   C30   T    
C48   C73   A    
C13   C31   T    
C51   C64   A    
C11   C61   S    
C52   C63   A    
C42   C59   A    
C22   C58   S    
C40   O39   A    
C5    C93   A    
O27   Zn12  S    
C50   O5    A    
O29   Zn12  S    
C21   C59   S    
C98   O49   S    
C37   O41   A    
C13   C83   S    
O2    Zn9   S    
C56   C80   A    
C31   C38   S    
O37   Zn3   S    
C80   C91   A    
O45   Zn6   S    
H15   O50   S    
O39   Zn3   S    
O34   Zn7   S    
C55   H6    S    
H9    O44   S    
C46   H29   S    
O9    Zn1   S    
C39   O56   A    
C53   H4    S    
C22   O24   A    
O28   Zn12  S    
C51   H2    S    
O38   Zn3   S    
O32   Zn2   S    
C17   O63   A    
H20   O55   S    
C12   C72   S    
C18   C63   S    
C51   C79   A    
O43   Zn4   S    
C77   C103  A    
C93   O44   S    
C19   O20   A    
C23   C94   T    
C75   C88   A    
C99   C102  A    
C88   C89   A    
C11   C29   T    
C45   H28   S    
O64   Zn8   S    
C87   C90   A    
C67   C93   A    
C19   O18   A    
C16   O14   A    
C19   C62   S    
O6    Zn9   S    
C55   C84   A    
O5    Zn10  S    
O8    Zn11  S    
O18   Zn8   S    
H11   O47   S    
C34   O31   A    
O4    Zn11  S    
C25   C33   S    
C96   O47   S    
H17   O52   S    
C21   O25   A    
C70   C86   A    
