data_mof_unit_18041.cif
_audit_creation_date              2012-12-10T17:31:06-0500
_audit_creation_method            fapswitch 2.2
_symmetry_space_group_name_H-M    P1
_symmetry_Int_Tables_number       1
_space_group_crystal_system       triclinic
_cell_length_a                    11.99594
_cell_length_b                    12.852883
_cell_length_c                    15.623603
_cell_angle_alpha                 86.565364
_cell_angle_beta                  116.001447
_cell_angle_gamma                 94.600366
_cell_volume                      2157.26603359

loop_
_atom_site_label
_atom_site_type_symbol
_atom_type_description
_atom_site_fract_x
_atom_site_fract_y
_atom_site_fract_z
_atom_type_partial_charge
C1    C     C_R   0.474844 0.299347 0.496551 0.937510
C2    C     C_R   0.668336 0.972419 0.565358 0.515809
C3    C     C_R   0.339411 0.136069 0.440080 0.074567
C4    C     C_R   0.660589 0.863931 0.559914 0.074566
C5    C     C_R   0.563125 0.132153 0.538018 -0.251945
C6    C     C_R   0.436875 0.867847 0.461975 -0.251943
C7    C     C_R   0.558266 0.026305 0.526158 -0.047006
C8    C     C_R   0.441734 0.973695 0.473833 -0.047006
C9    C     C_R   0.003589 0.599282 0.410650 -0.399099
C10   C     C_R   0.996411 0.400719 0.589351 -0.399103
C11   C     C_R   0.125292 0.589671 0.417863 0.714319
C12   C     C_R   0.525156 0.700653 0.503449 0.937513
C13   C     C_R   0.874708 0.410330 0.582138 0.714335
C14   C     C_R   0.160248 0.457349 0.538905 -0.097673
C15   C     C_R   0.839752 0.542650 0.461094 -0.097674
C16   C     C_R   0.577004 0.496286 0.680041 0.877246
C17   C     C_R   0.422995 0.503713 0.319959 0.877243
C18   C     C_R   0.039486 0.464069 0.532410 0.048137
C19   C     C_R   0.960514 0.535930 0.467590 0.048135
C20   C     C_R   0.625004 0.493116 0.783255 -0.056796
C21   C     C_R   0.374994 0.506872 0.216745 -0.056793
C22   C     C_R   0.778549 0.449359 0.940988 -0.166217
C23   C     C_R   0.642374 0.471378 0.110708 -0.243314
C24   C     C_R   0.221444 0.550611 0.059008 -0.166209
C25   C     C_R   0.742870 0.459906 0.843397 -0.171169
C26   C     C_R   0.257126 0.540076 0.156600 -0.171173
C27   C     C_R   0.545575 0.518575 0.820868 -0.238816
C28   C     C_R   0.454421 0.481404 0.179134 -0.238812
C29   C     C_R   0.573004 0.497936 0.916351 0.079672
C30   C     C_R   0.426989 0.502030 0.083647 0.079673
C31   C     C_R   0.694181 0.466913 0.978463 0.113917
C32   C     C_R   0.305811 0.533050 0.021534 0.113917
C33   C     C_R   0.482569 0.507337 0.950740 0.035597
C34   C     C_R   0.357616 0.528574 0.889289 -0.243317
C35   C     C_R   0.517422 0.492621 0.049259 0.035597
C36   C     C_3   0.912997 0.299751 0.716798 -0.337512
C37   C     C_3   0.086997 0.700218 0.283186 -0.337506
C38   C     C_3   0.168034 0.943905 0.450716 -0.280005
C39   C     C_3   0.831958 0.056090 0.549258 -0.280042
C40   C     C_R   0.728209 0.455489 0.076183 0.122084
C41   C     C_R   0.271780 0.544466 0.923814 0.122085
C42   C     C_R   0.543560 0.812457 0.507346 -0.217795
C43   C     C_R   0.456440 0.187543 0.492650 -0.217791
C44   C     C_R   0.331664 0.027581 0.434632 0.515805
H1    H     H_    0.942133 0.655345 0.361950 0.149035
H2    H     H_    0.321657 0.532458 0.812964 0.167833
H3    H     H_    0.348451 0.827058 0.419494 0.242893
H4    H     H_    0.651549 0.172941 0.580499 0.242885
H5    H     H_    0.777821 0.597794 0.411216 0.152866
H6    H     H_    0.222178 0.402204 0.588783 0.152865
H7    H     H_    0.989416 0.355535 0.761432 0.185707
H8    H     H_    0.949296 0.233166 0.696745 0.185335
H9    H     H_    0.866262 0.267155 0.760876 0.208873
H10   H     H_    0.050669 0.766807 0.303206 0.185330
H11   H     H_    0.010598 0.644409 0.238567 0.185701
H12   H     H_    0.057871 0.344659 0.638054 0.149034
H13   H     H_    0.133733 0.732800 0.239104 0.208863
H14   H     H_    0.224965 0.884579 0.503210 0.167558
H15   H     H_    0.073159 0.907540 0.410924 0.190608
H16   H     H_    0.159758 0.011546 0.488469 0.171231
H17   H     H_    0.926839 0.092449 0.589044 0.190602
H18   H     H_    0.775028 0.115418 0.496768 0.167564
H19   H     H_    0.840220 0.988446 0.511503 0.171239
H20   H     H_    0.538218 0.445489 0.226770 0.160618
H21   H     H_    0.461780 0.554497 0.773235 0.160622
H22   H     H_    0.193404 0.558496 0.184855 0.188653
H23   H     H_    0.806592 0.441490 0.815141 0.188675
H24   H     H_    0.870996 0.424894 0.985759 0.180148
H25   H     H_    0.128996 0.575073 0.014236 0.180145
H26   H     H_    0.678333 0.467487 0.187033 0.167833
I1    I     I_    0.908364 0.415882 0.178567 -0.399974
I2    I     I_    0.091625 0.584069 0.821428 -0.399973
I3    I     I_    0.826787 0.784225 0.639703 -0.260318
I4    I     I_    0.173214 0.215776 0.360293 -0.260319
N1    N     N_R   0.799120 0.480200 0.517090 -0.130724
N2    N     N_R   0.200880 0.519800 0.482910 -0.130724
O1    O     O_R   0.580150 0.341050 0.504560 -0.584736
O2    O     O_3   0.175597 0.650541 0.364839 -0.596286
O3    O     O_3   0.217189 0.975355 0.385381 -0.595922
O4    O     O_3   0.782812 0.024647 0.614600 -0.595932
O5    O     O_R   0.419850 0.658950 0.495440 -0.584729
O6    O     O_R   0.388090 0.353760 0.493600 -0.601843
O7    O     O_R   0.611910 0.646240 0.506400 -0.601842
O8    O     O_R   0.650890 0.490020 0.640860 -0.563998
O9    O     O_R   0.349110 0.509980 0.359140 -0.564009
O10   O     O_R   0.458830 0.502730 0.629890 -0.642158
O11   O     O_R   0.541170 0.497270 0.370110 -0.642159
O12   O     O_3   0.824404 0.349469 0.635169 -0.596280
Zn1   Zn    Zn3+2 0.628240 0.491510 0.507320 1.013102
Zn2   Zn    Zn3+2 0.371760 0.508490 0.492680 1.013100

loop_
_geom_bond_atom_site_label_1
_geom_bond_atom_site_label_2
_ccdc_geom_bond_type
C15   N1    A    
C21   C26   A    
C9    H1    S    
C40   I1    S    
C27   C29   A    
C1    O1    A    
C14   C18   A    
C2    C7    A    
C25   H23   S    
C7    C8    A    
C36   O12   S    
C15   C19   A    
C3    C43   A    
C30   C35   A    
C17   O9    A    
C24   C26   A    
C11   N2    A    
C38   O3    S    
C23   C40   A    
C29   C33   A    
C16   O8    A    
C31   C40   A    
C18   C19   A    
C3    I4    S    
C12   C42   S    
C36   H9    S    
C38   H14   S    
C1    C43   S    
C13   N1    A    
C22   C25   A    
C32   C41   A    
C34   H2    S    
C10   H12   S    
C36   H8    S    
C5    C43   A    
C16   O10   A    
C23   H26   S    
C34   C41   A    
C39   H17   S    
C9    C19   A    
C24   H25   S    
O7    Zn1   S    
C5    H4    S    
C3    C44   A    
C6    H3    S    
C26   H22   S    
O10   Zn2   S    
C5    C7    A    
C6    C8    A    
C1    O6    A    
C17   C21   S    
C12   O7    A    
C14   N2    A    
C2    C4    A    
C24   C32   A    
C27   H21   S    
C11   O2    S    
C16   C20   S    
O1    Zn1   S    
C22   C31   A    
C33   C34   A    
C9    C11   A    
C22   H24   S    
C4    I3    S    
C36   H7    S    
C41   I2    S    
C38   H16   S    
C37   H10   S    
C28   H20   S    
C21   C28   A    
C23   C35   A    
O11   Zn1   S    
C6    C42   A    
O8    Zn1   S    
O5    Zn2   S    
C39   H18   S    
C17   O11   A    
C44   O3    S    
C8    C44   A    
C10   C13   A    
O9    Zn2   S    
C20   C27   A    
C39   H19   S    
C37   O2    S    
O6    Zn2   S    
C39   O4    S    
C28   C30   A    
C29   C31   A    
C30   C32   A    
C14   H6    S    
C4    C42   A    
C10   C18   A    
C13   O12   S    
C33   C35   A    
C12   O5    A    
C15   H5    S    
C2    O4    S    
N1    Zn1   S    
C38   H15   S    
C37   H11   S    
C20   C25   A    
C37   H13   S    
N2    Zn2   S    
