data_mof_unit_28838.cif
_audit_creation_date              2012-12-10T19:13:01-0500
_audit_creation_method            fapswitch 2.2
_symmetry_space_group_name_H-M    P1
_symmetry_Int_Tables_number       1
_space_group_crystal_system       triclinic
_cell_length_a                    8.741114
_cell_length_b                    15.991902
_cell_length_c                    14.771779
_cell_angle_alpha                 89.369801
_cell_angle_beta                  97.98456
_cell_angle_gamma                 89.882312
_cell_volume                      2044.74804174

loop_
_atom_site_label
_atom_site_type_symbol
_atom_type_description
_atom_site_fract_x
_atom_site_fract_y
_atom_site_fract_z
_atom_type_partial_charge
C1    C     C_R   0.500352 0.340912 0.500504 0.826179
C2    C     C_R   0.499648 0.659088 0.499496 0.826179
C3    C     C_R   0.504398 0.498871 0.903220 -0.018476
C4    C     C_R   0.495602 0.501129 0.096780 -0.018476
C5    C     C_R   0.372915 0.472293 0.940475 -0.223661
C6    C     C_R   0.627085 0.527706 0.059525 -0.223661
C7    C     C_1   0.501410 0.499634 0.802736 0.110585
C8    C     C_1   0.498590 0.500366 0.197264 0.110584
C9    C     C_R   0.203149 0.499974 0.476783 0.882386
C10   C     C_R   0.796851 0.500026 0.523217 0.882387
C11   C     C_2   0.037703 0.499869 0.463734 -0.369177
C12   C     C_2   0.962297 0.500131 0.536265 -0.369177
C13   C     C_R   0.535965 0.955622 0.583633 0.014325
C14   C     C_R   0.464024 0.044378 0.416366 0.014328
C15   C     C_R   0.504606 0.912641 0.500227 0.091308
C16   C     C_R   0.495383 0.087359 0.499772 0.091308
C17   C     C_R   0.469798 0.956858 0.417641 -0.242482
C18   C     C_R   0.530190 0.043142 0.582358 -0.242479
C19   C     C_1   0.501744 0.823053 0.498314 -0.058222
C20   C     C_1   0.498250 0.176946 0.501686 -0.058226
C21   C     C_1   0.499699 0.251926 0.501637 -0.171961
C22   C     C_1   0.500298 0.748074 0.498362 -0.171958
C23   C     C_R   0.634234 0.526217 0.964179 0.035925
C24   C     C_R   0.365766 0.473782 0.035821 0.035925
Cu1   Cu    Cu3+1 0.500040 0.500000 0.589220 0.970009
Cu2   Cu    Cu3+1 0.499960 0.500000 0.410780 0.970007
H1    H     H_    0.977716 0.499547 0.394133 0.171063
H2    H     H_    0.022283 0.500453 0.605867 0.171063
H3    H     H_    0.555304 0.077035 0.645878 0.145900
H4    H     H_    0.444684 0.922964 0.354121 0.145898
H5    H     H_    0.726223 0.548953 0.105543 0.137546
H6    H     H_    0.273777 0.451047 0.894457 0.137546
N1    N     N_1   0.500050 0.499980 0.276720 -0.156154
N2    N     N_1   0.499950 0.500020 0.723280 -0.156154
O1    O     O_R   0.500070 0.380310 0.575330 -0.578121
O2    O     O_R   0.499930 0.619690 0.424670 -0.578122
O3    O     O_R   0.500000 0.380310 0.424640 -0.565044
O4    O     O_R   0.500000 0.619690 0.575360 -0.565042
O5    O     O_R   0.274870 0.500000 0.557960 -0.575496
O6    O     O_R   0.725130 0.500000 0.442040 -0.575496
O7    O     O_R   0.274790 0.500000 0.407270 -0.582583
O8    O     O_R   0.725210 0.500000 0.592730 -0.582583
C25   C     C_R   0.573926 0.910713 0.672497 0.115626
C26   C     C_R   0.487215 0.925635 0.744037 -0.156264
C27   C     C_R   0.521244 0.882466 0.827293 -0.141654
C28   C     C_R   0.642324 0.824453 0.839968 -0.106613
C29   C     C_R   0.730202 0.809824 0.769590 -0.124446
C30   C     C_R   0.696824 0.852975 0.686319 -0.135974
H7    H     H_    0.392208 0.969894 0.734953 0.125035
H8    H     H_    0.453419 0.893833 0.881926 0.124491
H9    H     H_    0.668212 0.791032 0.904380 0.121361
H10   H     H_    0.824324 0.765125 0.779534 0.141855
H11   H     H_    0.766855 0.841466 0.632718 0.126158
C31   C     C_R   0.426072 0.089287 0.327501 0.115628
C32   C     C_R   0.512776 0.074353 0.255960 -0.156265
C33   C     C_R   0.478759 0.117522 0.172703 -0.141654
C34   C     C_R   0.357697 0.175546 0.160029 -0.106616
C35   C     C_R   0.269824 0.190186 0.230407 -0.124448
C36   C     C_R   0.303191 0.147035 0.313678 -0.135972
H12   H     H_    0.607771 0.030086 0.265043 0.125034
H13   H     H_    0.546579 0.106146 0.118070 0.124491
H14   H     H_    0.331817 0.208967 0.095616 0.121361
H15   H     H_    0.175716 0.234893 0.220463 0.141863
H16   H     H_    0.233164 0.158553 0.367280 0.126159
C37   C     C_R   0.779282 0.553135 0.930641 0.113984
C38   C     C_R   0.850538 0.628623 0.960548 -0.163400
C39   C     C_R   0.987013 0.654058 0.929152 -0.152138
C40   C     C_R   0.053311 0.604679 0.867458 -0.111380
C41   C     C_R   0.984257 0.529264 0.837919 -0.132285
C42   C     C_R   0.849210 0.502942 0.870219 -0.102102
H17   H     H_    0.799747 0.668207 0.007485 0.115453
H18   H     H_    0.040773 0.712395 0.952184 0.126498
H19   H     H_    0.158569 0.624624 0.842871 0.133656
H20   H     H_    0.035985 0.490815 0.790424 0.118599
H21   H     H_    0.799787 0.443249 0.848334 0.119687
C43   C     C_R   0.220718 0.446864 0.069359 0.113983
C44   C     C_R   0.149463 0.371376 0.039452 -0.163404
C45   C     C_R   0.012988 0.345940 0.070847 -0.152139
C46   C     C_R   0.946689 0.395320 0.132541 -0.111381
C47   C     C_R   0.015743 0.470735 0.162081 -0.132287
C48   C     C_R   0.150790 0.497057 0.129781 -0.102103
H22   H     H_    0.200254 0.331792 0.992515 0.115455
H23   H     H_    0.959228 0.287604 0.047815 0.126501
H24   H     H_    0.841431 0.375374 0.157129 0.133657
H25   H     H_    0.964015 0.509184 0.209575 0.118599
H26   H     H_    0.200212 0.556750 0.151666 0.119687

loop_
_geom_bond_atom_site_label_1
_geom_bond_atom_site_label_2
_ccdc_geom_bond_type
C26   H7    S    
C32   C33   A    
C1    C21   S    
C10   O8    A    
C3    C23   A    
C4    C8    S    
C34   H14   S    
C44   C45   A    
C15   C19   S    
C36   H16   S    
C13   C18   A    
C12   H2    S    
C27   H8    S    
C3    C7    S    
C46   H24   S    
C4    C24   A    
C37   C42   A    
C9    O5    A    
C33   C34   A    
C10   O6    A    
C39   H18   S    
C28   C29   A    
C45   H23   S    
C29   C30   A    
C40   C41   A    
C2    C22   S    
C25   C30   A    
C48   H26   S    
C1    O3    A    
Cu1   N2    S    
C5    H6    S    
C38   C39   A    
C32   H12   S    
C17   H4    S    
C14   C17   A    
Cu1   Cu2   S    
C31   C36   A    
C30   H11   S    
C39   C40   A    
C19   C22   T    
C43   C44   A    
C4    C6    A    
C45   C46   A    
C24   C43   S    
C35   C36   A    
C27   C28   A    
C28   H9    S    
C43   C48   A    
C25   C26   A    
C47   H25   S    
Cu1   O4    S    
C2    O4    A    
Cu2   N1    S    
C38   H17   S    
C11   H1    S    
C16   C20   S    
C41   H20   S    
C18   H3    S    
C9    C11   S    
C10   C12   S    
Cu1   O1    S    
Cu2   O2    S    
C14   C31   S    
C13   C15   A    
C7    N2    T    
C14   C16   A    
C13   C25   S    
C26   C27   A    
C1    O1    A    
C2    O2    A    
C35   H15   S    
C15   C17   A    
C31   C32   A    
C47   C48   A    
C3    C5    A    
Cu1   O8    S    
C11   C12   D    
Cu2   O3    S    
C29   H10   S    
C9    O7    A    
C23   C37   S    
C40   H19   S    
Cu1   O5    S    
Cu2   O6    S    
C34   C35   A    
C5    C24   A    
C44   H22   S    
C6    C23   A    
C6    H5    S    
C8    N1    T    
C41   C42   A    
C46   C47   A    
C20   C21   T    
C16   C18   A    
C37   C38   A    
C42   H21   S    
C33   H13   S    
Cu2   O7    S    
