data_mof_unit_44127.cif
_audit_creation_date              2013-03-05T16:23:13-0500
_audit_creation_method            fapswitch 2.2
_symmetry_space_group_name_H-M    P1
_symmetry_Int_Tables_number       1
_space_group_crystal_system       triclinic
_cell_length_a                    27.532752
_cell_length_b                    10.559005
_cell_length_c                    9.819092
_cell_angle_alpha                 92.049128
_cell_angle_beta                  90.198377
_cell_angle_gamma                 90.820485
_cell_volume                      2852.45089264

loop_
_atom_site_label
_atom_site_type_symbol
_atom_site_description
_atom_site_fract_x
_atom_site_fract_y
_atom_site_fract_z
_atom_type_partial_charge
O1    O     O_R   0.500000 0.313960 0.616610 -0.609302
O2    O     O_R   0.500000 0.686040 0.383390 -0.614633
O3    O     O_R   0.500020 0.313950 0.383350 -0.606963
O4    O     O_R   0.499980 0.686050 0.616650 -0.604177
C1    C     C_R   0.498549 0.257922 0.498010 0.990636
C2    C     C_R   0.500733 0.742084 0.501869 1.001170
O5    O     O_R   0.428750 0.500030 0.616610 -0.621928
O6    O     O_R   0.571250 0.499970 0.383390 -0.622078
O7    O     O_R   0.428770 0.500020 0.383360 -0.595028
O8    O     O_R   0.571230 0.499980 0.616640 -0.582844
C3    C     C_R   0.406359 0.500167 0.499894 0.953171
C4    C     C_R   0.593624 0.500613 0.500262 0.968321
Zn1   Zn    Zn3+2 0.499990 0.500010 0.655740 1.011446
Zn2   Zn    Zn3+2 0.500010 0.499990 0.344260 1.013124
C5    C     C_R   0.178585 0.553356 0.621293 0.489103
C6    C     C_R   0.820890 0.511577 0.379018 0.577962
O9    O     O_2   0.203703 0.542606 0.738576 -0.542453
O10   O     O_2   0.794337 0.548744 0.272072 -0.554709
N1    N     N_R   0.202755 0.565459 0.501357 -0.346527
N2    N     N_R   0.798203 0.465467 0.490461 -0.340245
C7    C     C_R   0.178903 0.581709 0.381188 0.615100
C8    C     C_R   0.823488 0.422465 0.598860 0.535330
C9    C     C_R   0.284958 0.641335 0.554389 -0.141807
C10   C     C_R   0.717453 0.369563 0.468431 -0.142493
C11   C     C_R   0.334619 0.622402 0.556116 -0.201375
C12   C     C_R   0.667425 0.380561 0.470374 -0.231031
C13   C     C_R   0.323112 0.412886 0.444753 -0.193773
C14   C     C_R   0.675340 0.607617 0.530562 -0.187161
C15   C     C_R   0.272519 0.431604 0.447394 0.523277
C16   C     C_R   0.726258 0.593151 0.535165 0.515527
C17   C     C_R   0.254010 0.547097 0.499371 0.173159
C18   C     C_R   0.746711 0.475307 0.499490 0.182608
C19   C     C_R   0.102208 0.556489 0.498426 -0.120801
C20   C     C_R   0.898527 0.486797 0.490649 -0.118461
C21   C     C_R   0.127926 0.546845 0.622006 -0.004357
C22   C     C_R   0.871449 0.522431 0.376486 0.005609
C23   C     C_R   0.102787 0.526494 0.742790 -0.140133
C24   C     C_R   0.895076 0.572889 0.264667 -0.165587
C25   C     C_R   0.127788 0.577944 0.376578 -0.157775
C26   C     C_R   0.874455 0.434844 0.603275 -0.142971
C27   C     C_R   0.353881 0.509994 0.500804 -0.176829
C28   C     C_R   0.646232 0.497781 0.500942 -0.168635
H1    H     H_    0.121728 0.522081 0.839349 0.224300
H2    H     H_    0.874799 0.604192 0.177642 0.175745
C29   C     C_R   0.976195 0.478802 0.611343 -0.030178
C30   C     C_R   0.024977 0.557182 0.374113 -0.027282
C31   C     C_R   0.973588 0.549042 0.375150 0.104204
C32   C     C_R   0.026421 0.508631 0.617410 0.095454
C33   C     C_R   0.949578 0.504722 0.492371 0.077861
C34   C     C_R   0.051032 0.541703 0.496739 0.076475
C35   C     C_R   0.951943 0.421180 0.719680 -0.326614
C36   C     C_R   0.051213 0.577722 0.253581 -0.322354
C37   C     C_R   0.901726 0.400805 0.717762 0.567435
C38   C     C_R   0.101768 0.590337 0.253900 0.568642
O11   O     O_2   0.799002 0.371752 0.702994 -0.507950
O12   O     O_2   0.204901 0.599214 0.266991 -0.468348
C39   C     C_R   0.052894 0.507376 0.740745 -0.222770
C40   C     C_R   0.945243 0.585220 0.263293 -0.223342
H3    H     H_    0.645005 0.297453 0.446513 0.211285
H4    H     H_    0.358317 0.696774 0.598488 0.201065
H5    H     H_    0.733603 0.279147 0.441791 0.184261
H6    H     H_    0.270384 0.729182 0.595960 0.178941
H7    H     H_    0.971425 0.386844 0.806118 0.164813
H8    H     H_    0.033594 0.578235 0.155365 0.151881
H9    H     H_    0.035745 0.494076 0.837965 0.146008
H10   H     H_    0.960705 0.628146 0.175034 0.137592
C41   C     C_3   0.542211 0.048611 0.535180 0.546875
C42   C     C_3   0.456458 0.951085 0.463913 0.534515
C43   C     C_3   0.532977 0.958243 0.412130 -0.093658
C44   C     C_3   0.465587 0.041696 0.586898 -0.100861
C45   C     C_3   0.501078 0.876844 0.504169 -0.215382
C46   C     C_3   0.497607 0.123063 0.495158 -0.207498
C47   C     C_3   0.510669 0.966373 0.628737 -0.358660
C48   C     C_3   0.487918 0.033600 0.370655 -0.361523
H11   H     H_    0.519970 0.940326 0.733082 0.227399
H12   H     H_    0.478829 0.058691 0.265976 0.224958
C49   C     C_3   0.486378 0.392430 0.042361 0.066818
C50   C     C_3   0.513698 0.607619 0.957706 0.054321
C51   C     C_3   0.529227 0.415580 0.947853 -0.098793
C52   C     C_3   0.470817 0.584508 0.052169 -0.097940
H13   H     H_    0.554131 0.345319 0.900798 0.147181
H14   H     H_    0.445889 0.654710 0.099168 0.145837
N3    N     N_3   0.499960 0.500030 0.863290 -0.119585
N4    N     N_3   0.500040 0.499970 0.136710 -0.119988
C53   C     C_3   0.456969 0.475680 0.949675 -0.135403
C54   C     C_3   0.543043 0.524283 0.050404 -0.127442
H15   H     H_    0.420791 0.454008 0.903542 0.167611
H16   H     H_    0.579196 0.546107 0.096648 0.173697
C55   C     C_2   0.342572 0.291034 0.388257 1.000196
O13   O     O_2   0.379798 0.247556 0.434699 -0.646156
O14   O     O_R   0.317530 0.224074 0.283799 -0.719494
H17   H     H_    0.332945 0.139954 0.258413 0.336185
C56   C     C_2   0.653956 0.736762 0.551497 0.949156
O15   O     O_2   0.610358 0.749305 0.568066 -0.648501
O16   O     O_R   0.683676 0.845303 0.550476 -0.723514
H18   H     H_    0.665112 0.926300 0.568832 0.377766
O17   O     O_3   0.588172 0.106162 0.560347 -0.604229
C57   C     C_3   0.594927 0.129768 0.701096 -0.279000
H19   H     H_    0.603959 0.040654 0.751520 0.172762
H20   H     H_    0.562636 0.173760 0.749893 0.189695
H21   H     H_    0.626049 0.196691 0.716411 0.197109
O18   O     O_3   0.410525 0.893282 0.438739 -0.593376
C58   C     C_3   0.403957 0.868832 0.298083 -0.240346
H22   H     H_    0.436352 0.824800 0.249903 0.176285
H23   H     H_    0.394955 0.957587 0.246982 0.162314
H24   H     H_    0.372907 0.801660 0.282889 0.195470
C59   C     C_2   0.469052 0.267179 0.088284 0.937065
O19   O     O_2   0.491987 0.172132 0.057919 -0.619076
O20   O     O_R   0.425180 0.258858 0.158100 -0.776756
H25   H     H_    0.415002 0.168116 0.173694 0.328806
C60   C     C_2   0.531915 0.732580 0.912757 0.969442
O21   O     O_2   0.509615 0.828483 0.943833 -0.622776
O22   O     O_R   0.575975 0.739519 0.843452 -0.767270
H26   H     H_    0.586654 0.829893 0.827444 0.337703
O23   O     O_3   0.240646 0.339239 0.395687 -0.560732
C61   C     C_3   0.229213 0.255382 0.499979 -0.236311
H27   H     H_    0.210732 0.304817 0.586674 0.167254
H28   H     H_    0.262052 0.206710 0.536979 0.170784
H29   H     H_    0.203780 0.181344 0.458070 0.197932
O24   O     O_3   0.756979 0.695140 0.565719 -0.564737
C62   C     C_3   0.762953 0.706188 0.708472 -0.220178
H30   H     H_    0.727726 0.721904 0.761261 0.169046
H31   H     H_    0.786750 0.789588 0.733031 0.203927
H32   H     H_    0.780926 0.621723 0.748827 0.159063
O25   O     O_3   0.879975 0.340633 0.825185 -0.554912
C63   C     C_3   0.877592 0.426674 0.938146 -0.212133
H33   H     H_    0.858612 0.515103 0.911918 0.151492
H34   H     H_    0.914376 0.449567 0.980053 0.126533
H35   H     H_    0.856382 0.381707 0.019728 0.215563
O26   O     O_3   0.125745 0.602424 0.131232 -0.559787
C64   C     C_3   0.119581 0.726522 0.086076 -0.239817
H36   H     H_    0.131533 0.799028 0.164838 0.164051
H37   H     H_    0.081323 0.742585 0.055289 0.131727
H38   H     H_    0.142566 0.739024 0.994820 0.212540
C65   C     C_2   0.570794 0.912359 0.313132 1.009706
O27   O     O_2   0.559331 0.838178 0.219849 -0.618255
O28   O     O_R   0.618695 0.956442 0.326208 -0.758054
H39   H     H_    0.640718 0.918584 0.253434 0.347665
C66   C     C_2   0.427004 0.089225 0.682564 1.024791
O29   O     O_2   0.384818 0.054244 0.666190 -0.578363
O30   O     O_R   0.439529 0.173177 0.790289 -0.784946
H40   H     H_    0.410325 0.199661 0.846484 0.335623

loop_
_geom_bond_atom_site_label_1
_geom_bond_atom_site_label_2
_geom_bond_distance
_ccdc_geom_bond_type
C16   C18   1.406551 A    
C63   H33   1.114208 S    
C13   C15   1.409925 A    
C47   H11   1.100598 S    
O16   H18   1.013551 S    
Zn2   N4    2.037948 S    
C52   N4    1.483984 S    
C64   H38   1.109422 S    
N1    C17   1.427309 S    
O17   C57   1.406757 S    
C32   C39   1.411865 A    
C31   C33   1.419773 A    
C5    N1    1.363756 A    
C19   C25   1.414020 A    
C48   H12   1.099496 S    
O1    C1    1.287483 A    
N1    C7    1.365763 A    
N4    C54   1.483136 S    
C1    C46   1.423115 S    
C54   H16   1.110364 S    
C25   C38   1.410444 A    
C29   C35   1.409699 A    
C42   C48   1.545584 S    
O23   C61   1.410977 S    
C30   C36   1.410426 A    
C61   H27   1.111254 S    
C65   O28   1.396242 S    
C41   C46   1.525429 S    
C14   C28   1.421118 A    
O4    Zn1   2.014972 S    
C43   C45   1.538261 S    
C62   H32   1.110786 S    
C4    C28   1.449163 S    
C24   C40   1.385670 A    
C50   N3    1.484273 S    
C40   H10   1.078350 S    
C9    H6    1.082931 S    
C60   O22   1.395284 S    
C60   O21   1.221706 D    
O6    Zn2   1.997412 S    
C59   O19   1.221848 D    
C13   C55   1.490305 S    
C50   C60   1.487135 S    
C41   C47   1.546953 S    
C11   H4    1.084255 S    
C55   O14   1.398784 S    
C65   O27   1.221357 D    
C12   H3    1.083878 S    
C20   C22   1.409383 A    
C6    N2    1.363361 A    
C37   O25   1.384318 S    
C50   C54   1.525829 S    
C49   C51   1.525874 S    
C15   O23   1.384199 S    
C49   C53   1.526131 S    
C44   C66   1.500397 S    
C56   O16   1.398988 S    
C59   O20   1.394170 S    
O2    C2    1.286181 A    
C5    C21   1.395543 A    
C36   C38   1.396376 A    
C53   H15   1.110263 S    
C2    C45   1.422204 S    
C38   O26   1.384553 S    
C49   C59   1.485268 S    
C35   H7    1.078864 S    
C52   H14   1.107145 S    
C36   H8    1.078239 S    
C11   C27   1.399613 A    
O14   H17   1.013360 S    
C45   C47   1.538639 S    
C49   N4    1.482995 S    
O3    C1    1.290907 A    
C19   C34   1.415370 A    
C14   C56   1.500733 S    
C35   C37   1.396161 A    
C9    C17   1.393593 A    
C23   H1    1.083287 S    
O5    C3    1.299506 A    
O7    Zn2   1.999958 S    
C10   C18   1.391688 A    
C24   H2    1.083172 S    
C52   C53   1.542973 S    
C13   C27   1.415435 A    
C7    C25   1.407865 A    
C29   C33   1.413971 A    
O6    C4    1.300344 A    
C8    C26   1.407832 A    
C44   C47   1.545995 S    
C43   C48   1.544677 S    
C58   H23   1.109450 S    
C56   O15   1.220369 D    
O7    C3    1.301865 A    
C62   H30   1.113055 S    
O3    Zn2   2.014974 S    
O8    C4    1.300509 A    
C10   H5    1.082909 S    
C46   C48   1.538172 S    
N3    C53   1.483392 S    
N2    C8    1.364621 A    
C26   C37   1.409767 A    
C57   H20   1.111142 S    
O25   C63   1.410714 S    
C20   C26   1.414646 A    
O4    C2    1.291595 A    
O1    Zn1   1.988200 S    
C64   H36   1.114097 S    
O24   C62   1.411237 S    
C12   C28   1.399241 A    
C51   H13   1.107375 S    
O22   H26   1.012310 S    
N2    C18   1.425854 S    
C29   C32   1.414432 A    
C5    O9    1.350352 S    
C30   C34   1.415136 A    
C30   C31   1.416332 A    
C20   C33   1.415551 A    
C63   H34   1.111949 S    
C21   C23   1.396948 A    
C6    O10   1.350411 S    
C10   C12   1.384089 A    
C39   H9    1.079237 S    
C64   H37   1.111883 S    
O8    Zn1   1.999961 S    
C7    O12   1.349249 S    
C66   O29   1.222103 D    
C8    O11   1.349199 S    
C57   H21   1.109225 S    
O28   H39   1.013693 S    
Zn1   N3    2.037947 S    
C63   H35   1.109347 S    
C61   H29   1.109137 S    
C22   C24   1.396197 A    
O26   C64   1.410612 S    
C14   C16   1.413122 A    
C15   C17   1.407980 A    
C42   O18   1.413471 S    
O20   H25   1.011494 S    
C6    C22   1.395496 A    
C31   C40   1.412071 A    
C51   N3    1.484186 S    
C66   O30   1.394714 S    
C16   O24   1.383553 S    
C42   C45   1.525239 S    
C32   C34   1.418950 A    
C19   C21   1.410379 A    
C61   H28   1.112630 S    
C3    C27   1.450113 S    
C58   H24   1.109199 S    
C50   C52   1.526205 S    
C9    C11   1.384805 A    
O18   C58   1.406515 S    
O2    Zn2   1.988198 S    
C62   H31   1.109113 S    
C41   O17   1.413059 S    
O5    Zn1   1.997407 S    
C43   C65   1.500510 S    
C57   H19   1.109741 S    
C58   H22   1.111127 S    
C42   C44   1.531424 S    
C44   C46   1.538175 S    
C41   C43   1.530832 S    
C55   O13   1.222454 D    
O30   H40   1.013735 S    
C51   C54   1.542168 S    
C23   C39   1.385556 A    
