data_mof_unit_27495.cif
_audit_creation_date              2012-12-10T19:04:12-0500
_audit_creation_method            fapswitch 2.2
_symmetry_space_group_name_H-M    P1
_symmetry_Int_Tables_number       1
_space_group_crystal_system       triclinic
_cell_length_a                    10.66344
_cell_length_b                    10.843453
_cell_length_c                    9.582052
_cell_angle_alpha                 90.829248
_cell_angle_beta                  91.017264
_cell_angle_gamma                 90.500222
_cell_volume                      1107.6229947

loop_
_atom_site_label
_atom_site_type_symbol
_atom_type_description
_atom_site_fract_x
_atom_site_fract_y
_atom_site_fract_z
_atom_type_partial_charge
C1    C     C_R   0.491299 0.262605 0.498723 0.828833
C2    C     C_3   0.955669 0.468474 0.369192 -0.172829
C3    C     C_3   0.041417 0.386381 0.459942 -0.058178
C4    C     C_3   0.123395 0.499379 0.497102 -0.226377
C5    C     C_R   0.491751 0.066282 0.621885 0.041299
C6    C     C_R   0.471329 0.129276 0.497695 -0.084021
C7    C     C_R   0.429982 0.059811 0.377990 -0.049436
C8    C     C_R   0.438245 0.930315 0.380998 -0.100370
C9    C     C_R   0.480482 0.870368 0.501926 -0.050109
C10   C     C_R   0.494825 0.939659 0.624711 -0.074192
C11   C     C_3   0.594257 0.939931 0.736756 0.404344
C12   C     C_R   0.259727 0.500645 0.498987 0.864290
C13   C     C_3   0.592361 0.079954 0.732116 0.440056
C14   C     C_R   0.605199 0.531999 0.076708 0.031646
C15   C     C_R   0.399316 0.457769 0.070719 0.685446
C16   C     C_R   0.399001 0.459167 0.922676 0.012557
C17   C     C_R   0.607358 0.527640 0.929325 0.054617
C18   C     C_3   0.681622 0.645330 0.926262 -0.405709
C19   C     C_3   0.671625 0.653229 0.084317 1.086587
C20   C     C_R   0.497063 0.737611 0.500794 0.871521
C21   C     C_R   0.740432 0.498096 0.500603 0.908654
C22   C     C_3   0.044147 0.526193 0.625961 0.547146
C23   C     C_3   0.961670 0.412804 0.589345 -0.235156
C24   C     C_3   0.877087 0.495736 0.500202 -0.275590
C25   C     C_3   0.959757 0.608277 0.536211 0.587308
C26   C     C_3   0.039644 0.582567 0.406565 -0.182139
Cu1   Cu    Cu3+1 0.499990 0.499980 0.640670 1.036036
Cu2   Cu    Cu3+1 0.500010 0.500020 0.359330 1.066987
H1    H     H_    0.316519 0.426836 0.865609 0.219282
H2    H     H_    0.630789 0.717754 0.869931 0.175930
H3    H     H_    0.073607 0.652596 0.332423 0.215434
H4    H     H_    0.917525 0.443641 0.263813 0.228306
H5    H     H_    0.412660 0.876312 0.288637 0.223003
H6    H     H_    0.559982 0.901842 0.836086 0.052530
N1    N     N_R   0.500800 0.500930 0.147930 -0.261460
N2    N     N_R   0.500800 0.500890 0.852020 -0.231685
O1    O     O_R   0.500000 0.319640 0.618810 -0.541948
O2    O     O_R   0.500010 0.319680 0.381230 -0.615132
O3    O     O_R   0.316850 0.499950 0.618770 -0.556610
O4    O     O_R   0.316860 0.499990 0.381190 -0.538651
O5    O     O_R   0.499990 0.680320 0.618770 -0.582681
O6    O     O_R   0.500000 0.680360 0.381190 -0.540748
O7    O     O_R   0.683140 0.500010 0.618810 -0.601186
O8    O     O_R   0.683150 0.500050 0.381230 -0.542596
C27   C     C_2   0.917025 0.320173 0.692317 0.621247
H7    H     H_    0.845664 0.344964 0.766380 0.106126
O9    O     O_2   0.959919 0.216277 0.693153 -0.409336
F1    F     F_    0.705848 0.890525 0.690809 -0.561597
C28   C     C_2   0.551846 0.139796 0.866561 0.339599
H8    H     H_    0.617198 0.145389 0.954534 0.102868
O10   O     O_2   0.446556 0.181531 0.878566 -0.508081
F2    F     F_    0.701568 0.130845 0.681291 -0.615367
F3    F     F_    0.295949 0.414672 0.134460 -0.652199
C29   C     C_2   0.813990 0.628921 0.878540 0.531973
H9    H     H_    0.856967 0.699894 0.816751 0.195174
O11   O     O_2   0.876012 0.540654 0.915415 -0.505340
F4    F     F_    0.784199 0.648650 0.158497 -0.625369
F5    F     F_    0.595723 0.748754 0.127772 -0.659939
F6    F     F_    0.092502 0.557608 0.756666 -0.605210
F7    F     F_    0.916122 0.723677 0.572846 -0.585824
C30   C     C_2   0.090341 0.263769 0.413449 0.506265
H10   H     H_    0.061048 0.224705 0.313137 0.088358
O12   O     O_2   0.163031 0.207402 0.488169 -0.525893
C31   C     C_2   0.375570 0.117712 0.251501 0.450477
H11   H     H_    0.338277 0.210046 0.256262 0.144959
O13   O     O_2   0.367707 0.060865 0.140710 -0.487900

loop_
_geom_bond_atom_site_label_1
_geom_bond_atom_site_label_2
_ccdc_geom_bond_type
C12   O4    A    
C20   O6    A    
C23   C24   S    
C6    C7    A    
C23   C27   S    
C17   N2    A    
Cu2   O2    S    
Cu1   N2    S    
C4    C12   S    
C21   O8    A    
C4    C22   S    
C9    C10   A    
Cu1   O5    S    
C9    C20   S    
C4    C26   S    
C1    O1    A    
C5    C13   S    
C31   H11   S    
C12   O3    A    
C3    C30   S    
C17   C18   S    
C25   C26   S    
C26   H3    S    
C2    C26   S    
C21   O7    A    
C27   H7    S    
C19   F4    S    
C11   C13   S    
C14   C17   A    
C11   F1    S    
C5    C6    A    
Cu1   O3    S    
C1    O2    A    
Cu1   O1    S    
C13   C28   S    
C15   C16   A    
C15   F3    S    
C15   N1    A    
C25   F7    S    
C2    C3    S    
C8    H5    S    
C27   O9    D    
C19   F5    S    
C2    C24   S    
C30   H10   S    
C29   O11   D    
C7    C31   S    
C10   C11   S    
Cu2   O4    S    
C18   H2    S    
C5    C10   A    
C3    C4    S    
C13   F2    S    
Cu1   O7    S    
C22   F6    S    
C7    C8    A    
C24   C25   S    
C2    H4    S    
C28   H8    S    
C21   C24   S    
Cu2   O6    S    
C14   N1    A    
C30   O12   D    
C18   C29   S    
C29   H9    S    
C18   C19   S    
C28   O10   D    
C16   H1    S    
C22   C23   S    
C3    C23   S    
C14   C19   S    
Cu2   O8    S    
C11   H6    S    
C16   N2    A    
C1    C6    S    
Cu2   N1    S    
C20   O5    A    
C8    C9    A    
Cu1   Cu2   S    
C22   C25   S    
C31   O13   D    
