data_mof_unit_48328.cif
_audit_creation_date              2012-12-10T17:49:38-0500
_audit_creation_method            fapswitch 2.2
_symmetry_space_group_name_H-M    P1
_symmetry_Int_Tables_number       1
_space_group_crystal_system       triclinic
_cell_length_a                    10.490205
_cell_length_b                    10.616641
_cell_length_c                    9.950144
_cell_angle_alpha                 90.141094
_cell_angle_beta                  90.413021
_cell_angle_gamma                 91.415548
_cell_volume                      1107.78407419

loop_
_atom_site_label
_atom_site_type_symbol
_atom_type_description
_atom_site_fract_x
_atom_site_fract_y
_atom_site_fract_z
_atom_type_partial_charge
C1    C     C_R   0.500846 0.260719 0.500199 0.846052
C2    C     C_3   0.960192 0.605213 0.437646 -0.203390
C3    C     C_3   0.040056 0.502498 0.371120 -0.115316
C4    C     C_3   0.122748 0.500830 0.498121 0.041486
C5    C     C_R   0.742039 0.135902 0.521510 -0.171673
C6    C     C_R   0.856727 0.072416 0.530669 -0.149253
C7    C     C_R   0.856293 0.941324 0.529540 -0.146632
C8    C     C_R   0.741142 0.873295 0.519601 -0.185011
C9    C     C_R   0.624342 0.936375 0.510104 0.091432
C10   C     C_R   0.624810 0.068310 0.510509 0.100410
C11   C     C_R   0.506845 0.128385 0.501719 -0.067170
C12   C     C_R   0.257678 0.500248 0.499412 0.835788
C13   C     C_R   0.391103 0.061947 0.499445 -0.239211
C14   C     C_R   0.390548 0.932938 0.497505 -0.202164
C15   C     C_R   0.505964 0.871525 0.501255 -0.081115
C16   C     C_R   0.324959 0.343105 0.137230 -0.187048
C17   C     C_R   0.232801 0.270483 0.066224 0.253039
C18   C     C_R   0.236433 0.270196 0.926433 -0.287452
C19   C     C_R   0.327709 0.341642 0.858457 -0.179022
C20   C     C_R   0.414926 0.421971 0.926893 0.174017
C21   C     C_R   0.414385 0.422236 0.071039 0.112416
C22   C     C_R   0.581911 0.574183 0.072222 -0.098213
C23   C     C_R   0.499651 0.739164 0.500194 0.863691
C24   C     C_R   0.581777 0.574255 0.929352 -0.113180
C25   C     C_R   0.742567 0.500575 0.500380 0.831064
C26   C     C_3   0.040729 0.396239 0.560804 -0.204932
C27   C     C_3   0.955238 0.397995 0.433864 -0.182446
C28   C     C_3   0.877960 0.500665 0.500659 0.029091
C29   C     C_3   0.961001 0.499051 0.627580 -0.116485
C30   C     C_3   0.045773 0.603717 0.564527 -0.178671
H1    H     H_    0.915262 0.315257 0.378165 0.153266
H2    H     H_    0.945318 0.892337 0.537187 0.128998
H3    H     H_    0.744033 0.771633 0.520477 0.122100
H4    H     H_    0.300340 0.880762 0.493962 0.134030
H5    H     H_    0.648898 0.635000 0.126277 0.144407
H6    H     H_    0.325062 0.336514 0.243380 0.216216
H7    H     H_    0.168073 0.213526 0.868975 0.141568
H8    H     H_    0.326318 0.331584 0.752108 0.212350
H9    H     H_    0.648655 0.635146 0.876571 0.144732
H10   H     H_    0.079135 0.311774 0.610959 0.117472
H11   H     H_    0.924966 0.497551 0.732228 0.144904
H12   H     H_    0.087555 0.687436 0.617297 0.129401
H13   H     H_    0.923566 0.689623 0.386023 0.134414
H14   H     H_    0.076383 0.503555 0.266562 0.155082
H15   H     H_    0.301435 0.110308 0.499868 0.131524
H16   H     H_    0.745405 0.237531 0.524641 0.126861
H17   H     H_    0.946160 0.124767 0.539272 0.129464
N1    N     N_R   0.498800 0.498800 0.142780 -0.113092
N2    N     N_R   0.498760 0.498720 0.857170 -0.115694
O1    O     O_R   0.500000 0.316780 0.614690 -0.631637
O2    O     O_R   0.499990 0.316750 0.385360 -0.628331
O3    O     O_R   0.313960 0.499980 0.614650 -0.635247
O4    O     O_R   0.313940 0.499960 0.385310 -0.646910
O5    O     O_R   0.500010 0.683250 0.614640 -0.610371
O6    O     O_R   0.500000 0.683220 0.385310 -0.610475
O7    O     O_R   0.686060 0.500040 0.614690 -0.626323
O8    O     O_R   0.686040 0.500020 0.385350 -0.614978
Zn1   Zn    Zn3+2 0.500010 0.500020 0.653130 0.935645
Zn2   Zn    Zn3+2 0.499990 0.499980 0.346870 0.935873
N3    N     N_2   0.132050 0.202190 0.132297 -0.300043
H18   H     H_    0.074439 0.146672 0.070563 0.228680
C31   C     C_3   0.157740 0.146151 0.261685 -0.837945
H19   H     H_    0.074674 0.086390 0.292623 0.240780
H20   H     H_    0.171465 0.220399 0.339438 0.233150
H21   H     H_    0.242769 0.086171 0.255468 0.260027

loop_
_geom_bond_atom_site_label_1
_geom_bond_atom_site_label_2
_ccdc_geom_bond_type
C14   H4    S    
C22   N1    A    
C23   O6    A    
C16   C21   A    
C19   H8    S    
O6    Zn2   S    
C26   C29   S    
C4    C12   S    
C20   N2    A    
C11   C13   A    
C5    H16   S    
C4    C26   S    
C19   C20   A    
C1    C11   S    
C25   O7    A    
C31   H20   S    
C2    H13   S    
C2    C30   S    
C21   N1    A    
C31   H19   S    
C3    C27   S    
C17   C18   A    
O4    Zn2   S    
C7    C8    A    
C13   C14   A    
C16   H6    S    
C25   C28   S    
C13   H15   S    
C22   H5    S    
C1    O2    A    
C26   H10   S    
C26   C27   S    
C29   C30   S    
O3    Zn1   S    
C23   O5    A    
C9    C10   A    
C15   C23   S    
C28   C29   S    
C12   O3    A    
C18   H7    S    
O7    Zn1   S    
C2    C3    S    
C6    C7    A    
C8    H3    S    
O5    Zn1   S    
C5    C6    A    
C22   C24   A    
C3    H14   S    
O8    Zn2   S    
O2    Zn2   S    
C10   C11   A    
C17   N3    S    
C27   H1    S    
C3    C4    S    
O1    Zn1   S    
C6    H17   S    
C25   O8    A    
C5    C10   A    
C24   H9    S    
C20   C21   A    
N1    Zn2   S    
N3    C31   S    
C18   C19   A    
C1    O1    A    
C24   N2    A    
C14   C15   A    
C30   H12   S    
C2    C28   S    
C7    H2    S    
C31   H21   S    
C29   H11   S    
C9    C15   A    
N3    H18   S    
C4    C30   S    
N2    Zn1   S    
C12   O4    A    
C16   C17   A    
C8    C9    A    
C27   C28   S    
