data_mof_unit_11777.cif
_audit_creation_date              2012-12-10T16:51:33-0500
_audit_creation_method            fapswitch 2.2
_symmetry_space_group_name_H-M    P1
_symmetry_Int_Tables_number       1
_space_group_crystal_system       triclinic
_cell_length_a                    7.811646
_cell_length_b                    8.573084
_cell_length_c                    12.555372
_cell_angle_alpha                 92.458199
_cell_angle_beta                  102.473549
_cell_angle_gamma                 93.940904
_cell_volume                      817.603657482

loop_
_atom_site_label
_atom_site_type_symbol
_atom_type_description
_atom_site_fract_x
_atom_site_fract_y
_atom_site_fract_z
_atom_type_partial_charge
C1    C     C_R   0.044323 0.794611 0.497069 0.952310
C2    C     C_R   0.190223 0.590114 0.821439 -0.126431
C3    C     C_2   0.067419 0.958161 0.495290 -0.359366
C4    C     C_R   0.114647 0.532389 0.707262 0.863942
C5    C     C_2   0.932380 0.041806 0.504254 -0.375352
C6    C     C_R   0.955599 0.205388 0.502757 0.986386
C7    C     C_R   0.889441 0.483188 0.291699 0.908545
C8    C     C_R   0.846543 0.392527 0.991928 -0.212210
C9    C     C_R   0.826095 0.469882 0.174876 -0.113845
C10   C     C_R   0.082325 0.648944 0.886696 -0.216793
C11   C     C_R   0.146040 0.676487 0.998764 -0.099905
C12   C     C_R   0.428922 0.585459 0.982055 0.092216
C13   C     C_R   0.314321 0.637383 0.047304 -0.151443
C14   C     C_R   0.371358 0.582022 0.867924 0.094728
C15   C     C_R   0.596667 0.531546 0.024306 0.089996
C16   C     C_R   0.695053 0.468312 0.952332 0.119430
C17   C     C_R   0.646947 0.491628 0.842204 -0.259423
C18   C     C_R   0.497487 0.566102 0.804150 -0.180066
C19   C     C_R   0.669484 0.537514 0.134939 -0.277176
C20   C     C_R   0.911929 0.390086 0.103590 0.154888
H1    H     H_    0.805013 0.990772 0.512810 0.178492
H2    H     H_    0.482400 0.611028 0.724959 0.166814
H3    H     H_    0.194767 0.009188 0.486691 0.184131
H4    H     H_    0.471350 0.365796 0.426590 0.208523
H5    H     H_    0.528740 0.641417 0.565535 0.172209
H6    H     H_    0.728625 0.459421 0.786724 0.185402
H7    H     H_    0.916325 0.338561 0.936042 0.170269
H8    H     H_    0.608289 0.598757 0.191567 0.172119
H9    H     H_    0.948485 0.672250 0.851325 0.165607
H10   H     H_    0.349133 0.647754 0.135281 0.147353
H11   H     H_    0.060850 0.719434 0.049069 0.160628
I1    I     I_    0.135931 0.261169 0.154212 -0.397791
N1    N     N_2   0.434800 0.456690 0.470850 -0.164560
N2    N     N_2   0.565200 0.543310 0.529150 -0.185630
O1    O     O_R   0.893060 0.738880 0.507150 -0.617058
O2    O     O_R   0.172250 0.711130 0.488470 -0.636068
O3    O     O_R   0.944700 0.520730 0.667600 -0.632526
O4    O     O_R   0.223890 0.492980 0.648920 -0.624881
O5    O     O_R   0.827750 0.288870 0.511530 -0.627740
O6    O     O_R   0.106940 0.261120 0.492850 -0.600332
O7    O     O_R   0.776110 0.507020 0.351080 -0.625671
O8    O     O_R   0.055300 0.479270 0.332400 -0.588726
Zn1   Zn    Zn3+2 0.813580 0.518530 0.512470 0.936824
Zn2   Zn    Zn3+2 0.186420 0.481470 0.487530 0.962182

loop_
_geom_bond_atom_site_label_1
_geom_bond_atom_site_label_2
_ccdc_geom_bond_type
O3    Zn1   S    
C2    C4    S    
O4    Zn2   S    
O1    Zn1   S    
C14   C18   A    
C9    C20   A    
C3    H3    S    
H4    N1    S    
C12   C15   A    
O6    Zn2   S    
H5    N2    S    
N1    N2    D    
C11   H11   S    
C8    C16   A    
C12   C13   A    
C15   C19   A    
C19   H8    S    
O7    Zn1   S    
C10   H9    S    
C8    C20   A    
O8    Zn2   S    
C17   H6    S    
C12   C14   A    
C17   C18   A    
C7    O7    A    
C5    C6    S    
C2    C14   A    
C6    O6    A    
O2    Zn2   S    
C10   C11   A    
C15   C16   A    
C2    C10   A    
C13   H10   S    
C11   C13   A    
C5    H1    S    
C4    O3    A    
C1    O1    A    
C20   I1    S    
C7    O8    A    
C7    C9    S    
C8    H7    S    
C6    O5    A    
O5    Zn1   S    
C3    C5    D    
C18   H2    S    
N1    Zn2   S    
C9    C19   A    
N2    Zn1   S    
C1    O2    A    
C4    O4    A    
C16   C17   A    
C1    C3    S    
