data_mof_unit_26390.cif
_audit_creation_date              2012-12-10T17:00:53-0500
_audit_creation_method            fapswitch 2.2
_symmetry_space_group_name_H-M    P1
_symmetry_Int_Tables_number       1
_space_group_crystal_system       triclinic
_cell_length_a                    10.648457
_cell_length_b                    10.697397
_cell_length_c                    10.035576
_cell_angle_alpha                 88.036809
_cell_angle_beta                  103.71015
_cell_angle_gamma                 90.53395
_cell_volume                      1109.93559892

loop_
_atom_site_label
_atom_site_type_symbol
_atom_type_description
_atom_site_fract_x
_atom_site_fract_y
_atom_site_fract_z
_atom_type_partial_charge
C1    C     C_R   0.490528 0.261938 0.500099 0.796642
C2    C     C_2   0.120112 0.474270 0.410834 -0.367145
C3    C     C_2   0.068702 0.421225 0.507532 -0.128658
C4    C     C_2   0.881969 0.476481 0.590645 0.055573
C5    C     C_2   0.931120 0.426706 0.492883 -0.247194
C6    C     C_2   0.419621 0.930303 0.393473 -0.116741
C7    C     C_3   0.331282 0.354190 0.856043 -0.727353
C8    C     C_3   0.924182 0.602619 0.800788 -0.764679
C9    C     C_3   0.412926 0.056878 0.133190 -0.787295
C10   C     C_3   0.550030 0.081829 0.732895 -0.290227
C11   C     C_2   0.506647 0.868848 0.490131 -0.285867
C12   C     C_2   0.426677 0.066282 0.382762 0.121248
C13   C     C_2   0.458592 0.129374 0.501129 0.271888
C14   C     C_2   0.579312 0.565880 0.944385 -0.071416
C15   C     C_2   0.591660 0.549831 0.096564 -0.168165
C16   C     C_R   0.258221 0.494811 0.442882 0.927657
C17   C     C_R   0.502040 0.737152 0.497971 0.909015
C18   C     C_R   0.742434 0.496976 0.557544 0.876364
H1    H     H_    0.870426 0.404090 0.393245 0.173374
H2    H     H_    0.299075 0.319696 0.948157 0.192721
H3    H     H_    0.313699 0.279936 0.779192 0.254170
H4    H     H_    0.273256 0.438363 0.813534 0.243208
H5    H     H_    0.016326 0.434632 0.775813 0.220062
H6    H     H_    0.010512 0.639414 0.873943 0.231965
H7    H     H_    0.857949 0.561528 0.860880 0.240677
H8    H     H_    0.876614 0.681892 0.733811 0.234173
H9    H     H_    0.328113 0.191465 0.231096 0.229142
H10   H     H_    0.413478 0.121473 0.044480 0.240322
H11   H     H_    0.328764 0.992998 0.104525 0.233910
H12   H     H_    0.678055 0.585152 0.165318 0.160761
H13   H     H_    0.504359 0.002485 0.156310 0.251722
H14   H     H_    0.533501 0.155349 0.801986 0.207131
H15   H     H_    0.641822 0.100591 0.700499 0.122749
H16   H     H_    0.562712 0.992391 0.793852 0.177858
H17   H     H_    0.412770 0.488831 0.082169 0.202976
H18   H     H_    0.128647 0.388529 0.605199 0.175697
H19   H     H_    0.060569 0.505884 0.312044 0.148587
H20   H     H_    0.346819 0.880443 0.319549 0.147702
H21   H     H_    0.585278 0.914554 0.560194 0.142330
H22   H     H_    0.637825 0.637884 0.909911 0.121274
H23   H     H_    0.526380 0.337031 0.976626 0.211019
N1    N     N_2   0.501330 0.501330 0.852460 -0.006353
N2    N     N_2   0.501370 0.501360 0.148130 -0.189298
N3    N     N_2   0.467604 0.383402 0.893277 -0.221755
N4    N     N_2   0.964395 0.507886 0.720189 -0.297642
N5    N     N_2   0.403534 0.128459 0.250337 -0.298266
O1    O     O_R   0.499980 0.319060 0.613030 -0.580221
O2    O     O_R   0.500020 0.319100 0.386910 -0.611206
O3    O     O_R   0.317800 0.500000 0.570840 -0.590145
O4    O     O_R   0.317840 0.500040 0.344720 -0.623259
O5    O     O_R   0.499980 0.680900 0.613090 -0.601487
O6    O     O_R   0.500020 0.680940 0.386970 -0.606527
O7    O     O_R   0.682160 0.499960 0.655280 -0.605971
O8    O     O_R   0.682200 0.500000 0.429160 -0.624163
O9    O     O_3   0.440294 0.070735 0.622050 -0.602276
Zn1   Zn    Zn3+2 0.499970 0.499970 0.650990 0.963143
Zn2   Zn    Zn3+2 0.500030 0.500030 0.349010 0.928247

loop_
_geom_bond_atom_site_label_1
_geom_bond_atom_site_label_2
_ccdc_geom_bond_type
C6    H20   S    
C1    O2    A    
H5    N4    S    
C2    C16   S    
O3    Zn1   S    
H17   N2    S    
C9    H13   S    
C9    H11   S    
C14   N1    D    
C4    C18   S    
C17   O5    A    
C2    C3    D    
C3    C5    S    
C15   N2    D    
O2    Zn2   S    
C10   H16   S    
C7    N3    S    
C16   O3    A    
C11   H21   S    
C10   O9    S    
O1    Zn1   S    
C2    H19   S    
N1    N3    S    
C3    H18   S    
C5    H1    S    
C17   O6    A    
C8    H6    S    
C16   O4    A    
C7    H2    S    
C10   H15   S    
C4    N4    S    
C6    C12   S    
H23   N3    S    
C1    C13   S    
O6    Zn2   S    
N2    Zn2   S    
C8    H7    S    
C7    H4    S    
C10   H14   S    
C9    N5    S    
C8    H8    S    
C12   C13   D    
H9    N5    S    
C15   H12   S    
C12   N5    S    
O5    Zn1   S    
O7    Zn1   S    
C6    C11   D    
C18   O8    A    
C14   C15   S    
C11   C17   S    
C18   O7    A    
N1    Zn1   S    
C7    H3    S    
O4    Zn2   S    
C14   H22   S    
C1    O1    A    
C8    N4    S    
C9    H10   S    
C4    C5    D    
C13   O9    S    
O8    Zn2   S    
