data_mof_unit_52625.cif
_audit_creation_date              2012-12-11T16:24:01-0500
_audit_creation_method            fapswitch 2.2
_symmetry_space_group_name_H-M    P1
_symmetry_Int_Tables_number       1
_space_group_crystal_system       triclinic
_cell_length_a                    14.733934
_cell_length_b                    14.762195
_cell_length_c                    33.23907
_cell_angle_alpha                 95.882973
_cell_angle_beta                  96.174677
_cell_angle_gamma                 61.152719
_cell_volume                      6285.15708659

loop_
_atom_site_label
_atom_site_type_symbol
_atom_type_description
_atom_site_fract_x
_atom_site_fract_y
_atom_site_fract_z
_atom_type_partial_charge
C1    C     C_R   0.391091 0.698967 0.445746 0.545025
C2    C     C_R   0.309698 0.341270 0.311738 0.012827
C3    C     C_R   0.384799 0.254515 0.332419 0.137595
C4    C     C_R   0.406052 0.264646 0.374599 0.126128
C5    C     C_R   0.354817 0.219194 0.170521 -0.154390
C6    C     C_R   0.350721 0.202917 0.128715 -0.167924
C7    C     C_R   0.236486 0.387383 0.121358 0.155574
C8    C     C_R   0.243865 0.404162 0.164040 0.161904
C9    C     C_R   0.299567 0.318454 0.188351 0.021890
C10   C     C_1   0.300133 0.329405 0.231730 -0.028904
C11   C     C_1   0.302708 0.335303 0.268096 -0.017121
C12   C     C_R   0.403388 0.385709 0.434522 0.552590
C13   C     C_R   0.289244 0.285425 0.103644 0.019669
C14   C     C_R   0.773637 0.364973 0.413981 0.051852
C15   C     C_R   0.818901 0.420201 0.399321 -0.031234
C16   C     C_R   0.850790 0.397629 0.359690 -0.113333
C17   C     C_R   0.844995 0.317082 0.335420 -0.008793
C18   C     C_R   0.821841 0.249280 0.353114 -0.116784
C19   C     C_R   0.787249 0.271828 0.392414 0.108995
C20   C     C_R   0.862008 0.301663 0.209788 0.350771
C21   C     C_R   0.857690 0.307718 0.291501 0.348322
C22   C     C_R   0.860393 0.382280 0.147203 -0.134431
C23   C     C_R   0.705059 0.407981 0.448646 0.562517
C24   C     C_R   0.881412 0.373602 0.106781 -0.167995
C25   C     C_R   0.908744 0.196713 0.100865 0.132112
C26   C     C_R   0.887995 0.206323 0.141756 -0.110433
C27   C     C_R   0.868251 0.297231 0.165567 0.010390
C28   C     C_R   0.911873 0.279347 0.083744 0.042312
C29   C     C_R   0.375137 0.742622 0.405973 -0.001788
C30   C     C_R   0.314058 0.719534 0.375759 -0.169180
C31   C     C_R   0.317896 0.731745 0.335389 -0.164455
C32   C     C_R   0.382614 0.767805 0.323859 0.015529
C33   C     C_R   0.440329 0.797944 0.353926 0.168362
C34   C     C_R   0.393784 0.700850 0.561157 0.568995
C35   C     C_R   0.434758 0.787222 0.395385 0.167027
C36   C     C_R   0.373829 0.797207 0.199786 0.337611
C37   C     C_R   0.384885 0.775830 0.280289 0.335371
C38   C     C_R   0.268654 0.818975 0.134080 0.136472
C39   C     C_R   0.241733 0.859278 0.095484 -0.106686
C40   C     C_R   0.393366 0.884125 0.100321 -0.132408
C41   C     C_R   0.423249 0.842995 0.138428 -0.024260
C42   C     C_R   0.357873 0.815312 0.156380 0.067232
C43   C     C_R   0.300697 0.896596 0.079491 -0.024605
C44   C     C_R   0.369284 0.369237 0.585726 0.049393
C45   C     C_R   0.406353 0.388436 0.548990 0.537211
C46   C     C_R   0.275105 0.445472 0.602627 -0.035179
C47   C     C_R   0.260922 0.443318 0.643506 -0.117316
C48   C     C_R   0.337186 0.366585 0.667549 -0.004408
C49   C     C_R   0.421583 0.283491 0.649381 -0.124542
C50   C     C_R   0.436603 0.281967 0.608439 0.116942
C51   C     C_R   0.323658 0.381510 0.793278 0.339967
C52   C     C_R   0.331340 0.373770 0.711750 0.344033
C53   C     C_R   0.242263 0.439531 0.861445 0.021892
C54   C     C_R   0.229708 0.408999 0.898763 0.119591
C55   C     C_R   0.378551 0.238149 0.886521 0.094365
C56   C     C_R   0.701495 0.413503 0.562587 0.556191
C57   C     C_R   0.390491 0.270078 0.850499 -0.138698
C58   C     C_R   0.319558 0.366544 0.836198 -0.008252
C59   C     C_R   0.294499 0.305502 0.910484 0.031562
C60   C     C_R   0.749576 0.382237 0.603540 0.015465
C61   C     C_R   0.822348 0.411194 0.623345 0.135759
C62   C     C_R   0.856364 0.387929 0.664459 0.000286
C63   C     C_R   0.811434 0.342054 0.685431 0.041287
C64   C     C_R   0.741290 0.311180 0.665072 -0.006461
C65   C     C_R   0.712480 0.330148 0.624350 -0.149497
C66   C     C_R   0.870584 0.224553 0.823169 -0.084137
C67   C     C_R   0.357067 0.363473 0.394986 0.012700
C68   C     C_R   0.894271 0.210189 0.865079 0.131371
C69   C     C_R   0.879038 0.383288 0.873959 -0.158545
C70   C     C_R   0.854915 0.396093 0.832722 -0.131030
C71   C     C_R   0.854995 0.315296 0.807242 0.010827
C72   C     C_1   0.841793 0.324573 0.764432 -0.038515
C73   C     C_1   0.830285 0.332285 0.728475 -0.029906
C74   C     C_R   0.905320 0.288655 0.890321 0.022047
C75   C     C_R   0.384538 0.740608 0.603627 0.005265
C76   C     C_R   0.295982 0.829413 0.617205 0.131096
C77   C     C_R   0.290104 0.858519 0.659334 0.000519
C78   C     C_R   0.268240 0.444444 0.375546 0.111045
C79   C     C_R   0.370574 0.793684 0.686929 0.028136
C80   C     C_R   0.458433 0.704808 0.672869 0.132078
C81   C     C_R   0.465036 0.680521 0.631391 -0.130741
C82   C     C_R   0.407989 0.814380 0.837974 -0.100428
C83   C     C_R   0.386311 0.842181 0.878948 -0.019566
C84   C     C_R   0.208063 0.963766 0.857146 -0.146655
C85   C     C_R   0.230421 0.935294 0.816936 -0.131451
C86   C     C_R   0.330298 0.861719 0.807286 0.023383
C87   C     C_1   0.350579 0.835609 0.765480 -0.037907
C88   C     C_1   0.361498 0.816570 0.729841 -0.026789
C89   C     C_R   0.246109 0.434314 0.333404 -0.009519
C90   C     C_R   0.285185 0.919115 0.888464 0.035844
C91   C     C_R   0.964050 0.263736 0.045944 0.549118
C92   C     C_R   0.272528 0.258521 0.060371 0.564339
C93   C     C_R   0.259570 0.959079 0.043658 0.542301
C94   C     C_R   0.960982 0.268365 0.931019 0.538522
C95   C     C_R   0.271368 0.264286 0.945131 0.556605
C96   C     C_R   0.256721 0.963593 0.929547 0.531038
Cr1   Cr    Cr6+3 0.576280 0.580550 0.506370 0.992013
Cr2   Cr    Cr6+3 0.346780 0.572400 0.496520 1.005829
Cr3   Cr    Cr6+3 0.576960 0.347070 0.497150 1.032926
Cr4   Cr    Cr6+3 0.087320 0.083240 0.984860 1.027362
Cr5   Cr    Cr6+3 0.087720 0.316210 0.996740 0.994247
Cr6   Cr    Cr6+3 0.317350 0.090340 0.995890 1.012954
H1    H     H_    0.391370 0.123878 0.116149 0.141438
H2    H     H_    0.880196 0.439243 0.094386 0.122264
H3    H     H_    0.877791 0.444983 0.347432 0.136000
H4    H     H_    0.827210 0.180661 0.335969 0.135460
H5    H     H_    0.842498 0.454491 0.164520 0.137853
H6    H     H_    0.891216 0.140928 0.155201 0.126011
H7    H     H_    0.267531 0.685669 0.382979 0.148650
H8    H     H_    0.170834 0.868537 0.078877 0.138402
H9    H     H_    0.399165 0.153349 0.189093 0.125612
H10   H     H_    0.271376 0.710638 0.312870 0.132416
H11   H     H_    0.440904 0.910414 0.087718 0.130888
H12   H     H_    0.192710 0.504962 0.657156 0.131786
H13   H     H_    0.476983 0.219697 0.667248 0.118999
H14   H     H_    0.452069 0.214443 0.831945 0.138680
H15   H     H_    0.865540 0.165367 0.802472 0.106659
H16   H     H_    0.655853 0.308881 0.609305 0.156444
H17   H     H_    0.840435 0.467537 0.820497 0.110145
H18   H     H_    0.883254 0.445821 0.892645 0.121816
H19   H     H_    0.485124 0.756104 0.830043 0.109800
H20   H     H_    0.531470 0.610250 0.620829 0.141781
H21   H     H_    0.169947 0.971957 0.793292 0.111247
H22   H     H_    0.130759 0.024010 0.863825 0.154034
N1    N     N_R   0.864032 0.381097 0.233593 -0.233366
N2    N     N_R   0.238906 0.425786 0.729078 -0.243806
N3    N     N_R   0.419747 0.328207 0.735965 -0.241972
N4    N     N_R   0.415938 0.331727 0.775861 -0.242317
N5    N     N_R   0.861551 0.384239 0.273581 -0.234519
N6    N     N_R   0.856027 0.227953 0.267725 -0.237357
N7    N     N_R   0.858850 0.224630 0.227676 -0.236699
N8    N     N_R   0.375549 0.712897 0.213413 -0.229704
N9    N     N_R   0.380903 0.702487 0.253018 -0.245072
N10   N     N_R   0.383111 0.859974 0.266531 -0.242203
N11   N     N_R   0.377713 0.870472 0.226992 -0.239306
N12   N     N_R   0.235075 0.428574 0.769087 -0.235981
O1    O     O_R   0.679450 0.499830 0.463150 -0.529625
O2    O     O_R   0.356040 0.477400 0.534170 -0.518249
O3    O     O_R   0.495910 0.323070 0.537100 -0.483039
O4    O     O_R   0.663920 0.359620 0.542290 -0.509633
O5    O     O_3   0.500010 0.500010 0.500010 -0.247899
O6    O     O_R   0.170070 0.978950 0.027680 -0.506262
O7    O     O_R   0.001760 0.175230 0.026640 -0.460769
O8    O     O_R   0.984760 0.333570 0.037150 -0.542057
O9    O     O_R   0.183410 0.309240 0.041890 -0.476495
O10   O     O_R   0.340240 0.172500 0.045430 -0.528884
O11   O     O_R   0.309670 0.000990 0.032050 -0.508132
O12   O     O_R   0.480650 0.664000 0.464630 -0.488476
O13   O     O_R   0.168330 0.982130 0.939200 -0.505378
O14   O     O_R   0.000140 0.178170 0.944610 -0.484061
O15   O     O_R   0.983010 0.336750 0.948660 -0.535324
O16   O     O_R   0.181800 0.312190 0.959860 -0.501133
O17   O     O_R   0.338500 0.175680 0.956950 -0.471726
O18   O     O_R   0.308050 0.003930 0.950020 -0.503561
O19   O     O_3   0.164130 0.163270 0.992500 -0.243470
O20   O     O_R   0.323930 0.675950 0.455370 -0.508230
O21   O     O_R   0.354700 0.475360 0.451930 -0.467793
O22   O     O_R   0.494470 0.320860 0.448390 -0.492041
O23   O     O_R   0.662580 0.357570 0.460050 -0.457630
O24   O     O_R   0.680900 0.502040 0.551870 -0.502168
O25   O     O_R   0.481990 0.666040 0.546870 -0.518648
O26   O     O_R   0.325370 0.678160 0.544080 -0.505911
N13   N     N_2   0.772696 0.198066 0.411340 -0.499999
H23   H     H_    0.841819 0.134473 0.419558 0.239244
C97   C     C_3   0.697514 0.169904 0.390997 -0.272372
H24   H     H_    0.729497 0.118333 0.363660 0.100737
H25   H     H_    0.624519 0.240353 0.382421 0.188470
H26   H     H_    0.679894 0.127220 0.411847 0.164813
N14   N     N_2   0.932452 0.101631 0.078191 -0.485107
H27   H     H_    0.965694 0.037640 0.095426 0.235645
C98   C     C_3   0.847693 0.104926 0.050896 -0.289083
H28   H     H_    0.781994 0.117472 0.068394 0.130396
H29   H     H_    0.874443 0.030238 0.032675 0.130163
H30   H     H_    0.820567 0.168009 0.029770 0.153494
N15   N     N_2   0.485073 0.825237 0.426265 -0.514988
H31   H     H_    0.452051 0.849049 0.453817 0.239759
C99   C     C_3   0.597387 0.774803 0.428801 -0.268597
H32   H     H_    0.628326 0.732656 0.457096 0.135375
H33   H     H_    0.623086 0.834344 0.429546 0.133558
H34   H     H_    0.630064 0.719111 0.402503 0.172677
N16   N     N_2   0.510407 0.830533 0.342828 -0.517138
H35   H     H_    0.545396 0.796661 0.316123 0.261007
C100  C     C_3   0.474121 0.940730 0.347452 -0.276185
H36   H     H_    0.535879 0.957038 0.339549 0.150454
H37   H     H_    0.456439 0.969045 0.379234 0.176085
H38   H     H_    0.403295 0.982689 0.327307 0.177994
N17   N     N_2   0.202938 0.790391 0.152321 -0.516657
H39   H     H_    0.180385 0.825397 0.180608 0.265254
C101  C     C_3   0.124938 0.773327 0.127493 -0.326749
H40   H     H_    0.093551 0.736510 0.145407 0.154340
H41   H     H_    0.159618 0.720491 0.100691 0.150824
H42   H     H_    0.059669 0.848259 0.117762 0.128027
C102  C     C_3   0.523672 0.832989 0.159193 -0.394556
H43   H     H_    0.548529 0.787168 0.186473 0.156301
H44   H     H_    0.586810 0.792590 0.138060 0.119972
H45   H     H_    0.514894 0.911278 0.168049 0.133803
C103  C     C_3   0.189516 0.531208 0.578671 -0.386310
H46   H     H_    0.115055 0.566618 0.593630 0.102675
H47   H     H_    0.175799 0.500138 0.548099 0.128056
H48   H     H_    0.209993 0.593403 0.576108 0.166138
N18   N     N_2   0.521872 0.193961 0.590935 -0.494175
H49   H     H_    0.581932 0.151380 0.611442 0.232010
C104  C     C_3   0.492338 0.128974 0.563203 -0.288339
H50   H     H_    0.562308 0.066063 0.549192 0.133403
H51   H     H_    0.436426 0.174501 0.538564 0.151947
H52   H     H_    0.456605 0.093700 0.579732 0.128477
N19   N     N_2   0.155734 0.484705 0.925131 -0.518181
H53   H     H_    0.176702 0.480751 0.955771 0.257969
C105  C     C_3   0.047322 0.515677 0.914057 -0.287134
H54   H     H_    0.013470 0.497039 0.938181 0.166169
H55   H     H_    0.036912 0.476115 0.884981 0.149580
H56   H     H_    0.004279 0.600615 0.910892 0.126594
N20   N     N_2   0.437321 0.156226 0.311055 -0.539690
H57   H     H_    0.389851 0.139108 0.290190 0.262128
C106  C     C_3   0.532304 0.136443 0.294360 -0.323092
H58   H     H_    0.515330 0.189082 0.269767 0.158437
H59   H     H_    0.572294 0.055170 0.281654 0.141460
H60   H     H_    0.585020 0.147616 0.318244 0.145478
C107  C     C_3   0.176262 0.550647 0.850063 -0.358262
H61   H     H_    0.171536 0.604496 0.876639 0.151508
H62   H     H_    0.209612 0.570399 0.826121 0.141491
H63   H     H_    0.096888 0.564529 0.839311 0.134438
N21   N     N_2   0.449304 0.135034 0.896968 -0.488259
H64   H     H_    0.525956 0.116128 0.895090 0.238843
C108  C     C_3   0.425429 0.057684 0.875806 -0.265209
H65   H     H_    0.435957 0.052639 0.842892 0.122752
H66   H     H_    0.344164 0.076984 0.880033 0.178942
H67   H     H_    0.478499 0.981180 0.888140 0.146374
N22   N     N_2   0.908303 0.118690 0.882200 -0.497987
H68   H     H_    0.869256 0.132795 0.908005 0.252848
C109  C     C_3   0.911425 0.032558 0.856121 -0.318259
H69   H     H_    0.932214 0.966147 0.874764 0.142979
H70   H     H_    0.971595 0.007158 0.833932 0.145148
H71   H     H_    0.834065 0.054620 0.840149 0.132737
C110  C     C_3   0.693923 0.260769 0.686795 -0.383569
H72   H     H_    0.641741 0.239998 0.666097 0.121044
H73   H     H_    0.756311 0.188697 0.699940 0.125766
H74   H     H_    0.647671 0.314707 0.711462 0.166843
N23   N     N_2   0.864393 0.458159 0.601000 -0.503629
H75   H     H_    0.944342 0.421905 0.602165 0.242529
C111  C     C_3   0.817975 0.569928 0.606250 -0.287994
H76   H     H_    0.846159 0.593583 0.635566 0.114669
H77   H     H_    0.731962 0.606559 0.604969 0.168622
H78   H     H_    0.840055 0.599187 0.581552 0.136165
N24   N     N_2   0.474369 0.175709 0.396702 -0.505379
H79   H     H_    0.524305 0.111748 0.379763 0.260474
C112  C     C_3   0.425135 0.149895 0.425812 -0.302485
H80   H     H_    0.483581 0.079048 0.440939 0.130970
H81   H     H_    0.362073 0.135718 0.410345 0.135206
H82   H     H_    0.391686 0.213308 0.449584 0.152244
C113  C     C_3   0.937558 0.414447 0.685751 -0.389808
H83   H     H_    0.967273 0.380122 0.715599 0.142958
H84   H     H_    0.006110 0.383813 0.667446 0.133296
H85   H     H_    0.904131 0.499511 0.691027 0.125845
C114  C     C_3   0.471410 0.787174 0.910917 -0.405940
H86   H     H_    0.500716 0.702323 0.906052 0.131135
H87   H     H_    0.536512 0.803783 0.908683 0.117008
H88   H     H_    0.444775 0.810161 0.942069 0.143218
N25   N     N_2   0.538054 0.635433 0.699983 -0.508603
H89   H     H_    0.516482 0.635608 0.728487 0.260700
C115  C     C_3   0.636707 0.634681 0.700730 -0.309746
H90   H     H_    0.694088 0.576155 0.721576 0.149193
H91   H     H_    0.628029 0.712029 0.711578 0.136186
H92   H     H_    0.666902 0.613672 0.670120 0.153230
N26   N     N_2   0.215701 0.888870 0.588153 -0.512455
H93   H     H_    0.195996 0.966217 0.589613 0.242906
C116  C     C_3   0.126978 0.870534 0.584153 -0.290601
H94   H     H_    0.084201 0.897937 0.612182 0.129253
H95   H     H_    0.151928 0.786784 0.578039 0.169297
H96   H     H_    0.073555 0.912945 0.558425 0.137390
C117  C     C_3   0.199028 0.955927 0.675683 -0.395745
H97   H     H_    0.142498 0.003934 0.651954 0.130879
H98   H     H_    0.156780 0.934707 0.695400 0.129374
H99   H     H_    0.227958 0.005299 0.693899 0.134448
N27   N     N_2   0.200659 0.535008 0.398691 -0.481361
H100  H     H_    0.164827 0.603143 0.384059 0.238501
C118  C     C_3   0.130083 0.521072 0.421289 -0.290105
H101  H     H_    0.075017 0.505053 0.400187 0.125395
H102  H     H_    0.085197 0.592653 0.440323 0.125901
H103  H     H_    0.173678 0.455966 0.441574 0.145844
N28   N     N_2   0.192091 0.506530 0.182108 -0.543038
H104  H     H_    0.149007 0.513377 0.205804 0.246816
C119  C     C_3   0.258304 0.553795 0.192389 -0.283805
H105  H     H_    0.320619 0.509834 0.215610 0.164236
H106  H     H_    0.211474 0.634280 0.204986 0.166785
H107  H     H_    0.293845 0.556366 0.164984 0.181116
N29   N     N_2   0.177363 0.472236 0.096313 -0.503722
H108  H     H_    0.198680 0.529680 0.101364 0.252729
C120  C     C_3   0.066047 0.513377 0.095894 -0.279486
H109  H     H_    0.045062 0.450259 0.089771 0.184698
H110  H     H_    0.036812 0.554721 0.125378 0.148888
H111  H     H_    0.027557 0.568900 0.071634 0.122308
C121  C     C_3   0.155465 0.523258 0.312167 -0.392406
H112  H     H_    0.083236 0.547007 0.327425 0.134633
H113  H     H_    0.170940 0.589987 0.313006 0.116772
H114  H     H_    0.140036 0.503318 0.280046 0.135237
C122  C     C_3   0.838146 0.499899 0.425325 -0.389009
H115  H     H_    0.892333 0.518515 0.411668 0.101305
H116  H     H_    0.764874 0.572574 0.428888 0.149382
H117  H     H_    0.873763 0.469848 0.455528 0.141043

loop_
_geom_bond_atom_site_label_1
_geom_bond_atom_site_label_2
_ccdc_geom_bond_type
N1    N5    A    
C53   C107  S    
C47   H12   S    
C66   C68   A    
C104  H50   S    
C114  H87   S    
C75   C76   A    
C97   H24   S    
Cr3   O23   S    
C119  H106  S    
C110  H73   S    
N14   H27   S    
C74   C94   S    
C36   C42   S    
N23   H75   S    
C98   H28   S    
C34   O25   A    
C108  H67   S    
C57   C58   A    
C24   H2    S    
C7    C8    A    
N15   C99   S    
N20   H57   S    
C68   N22   S    
C25   C28   A    
C118  H101  S    
C104  H51   S    
Cr5   O9    S    
C26   C27   A    
N22   H68   S    
C59   C95   S    
Cr2   O2    S    
C51   N4    A    
C94   O15   A    
N13   C97   S    
C38   C42   A    
C121  H114  S    
C55   C59   A    
C36   N8    A    
C85   C86   A    
C5    C6    A    
C80   C81   A    
C116  H96   S    
C113  H84   S    
C122  H115  S    
Cr5   O19   S    
C68   C74   A    
C117  H97   S    
C114  H86   S    
C45   O3    A    
C120  H111  S    
C103  H47   S    
C111  H76   S    
C41   C42   A    
C51   C58   S    
C101  H41   S    
C115  H90   S    
C41   C102  S    
C33   C35   A    
N13   H23   S    
C39   H8    S    
C96   O18   A    
C117  H99   S    
N21   H64   S    
C101  H42   S    
C16   C17   A    
C99   H33   S    
C66   H15   S    
C23   O23   A    
C50   N18   S    
C110  H72   S    
N29   C120  S    
C93   O11   A    
C70   C71   A    
C12   O21   A    
C103  H46   S    
C29   C30   A    
N8    N9    A    
N26   H93   S    
Cr6   O18   S    
C82   H19   S    
C79   C80   A    
C61   C62   A    
C118  H102  S    
C34   C75   S    
C1    O20   A    
C102  H45   S    
N20   C106  S    
C114  H88   S    
N2    N12   A    
C97   H25   S    
N24   H79   S    
C119  H107  S    
N18   C104  S    
Cr3   O3    S    
C101  H40   S    
C67   C78   A    
C84   C90   A    
C78   N27   S    
C2    C11   S    
C9    C10   S    
Cr1   O1    S    
C79   C88   S    
Cr2   O26   S    
C52   N3    A    
C44   C46   A    
C17   C18   A    
C57   H14   S    
C91   O7    A    
C54   C59   A    
C112  H81   S    
C78   C89   A    
C53   C54   A    
C38   C39   A    
C108  H66   S    
C98   H30   S    
Cr2   O20   S    
C32   C37   S    
C15   C16   A    
C30   H7    S    
C92   O10   A    
N19   H53   S    
C61   N23   S    
Cr1   O24   S    
C104  H52   S    
C113  H83   S    
C76   C77   A    
C64   C110  S    
C105  H54   S    
C106  H60   S    
C26   H6    S    
C107  H61   S    
C115  H91   S    
Cr1   O12   S    
C52   N2    A    
C86   C87   S    
C18   C19   A    
C113  H85   S    
C39   C43   A    
C12   C67   S    
C63   C73   S    
Cr4   O14   S    
C25   C26   A    
N16   H35   S    
N16   C100  S    
Cr5   O15   S    
C40   H11   S    
C17   C21   S    
C3    C4    A    
C56   C60   S    
C83   C114  S    
C60   C61   A    
C111  H77   S    
N23   C111  S    
C14   C23   S    
C122  H116  S    
C2    C89   A    
C106  H58   S    
C18   H4    S    
C100  H36   S    
C5    C9    A    
C121  H112  S    
N15   H31   S    
N28   C119  S    
Cr6   O11   S    
C107  H62   S    
C100  H37   S    
C98   H29   S    
C51   N12   A    
N17   H39   S    
N6    N7    A    
C47   C48   A    
C14   C15   A    
Cr2   O21   S    
C7    C13   A    
C70   H17   S    
C31   H10   S    
C99   H34   S    
Cr1   O5    S    
C40   C43   A    
C62   C63   A    
C102  H44   S    
C108  H65   S    
C8    C9    A    
C77   C79   A    
C69   C74   A    
C109  H70   S    
C80   N25   S    
C19   N13   S    
C6    H1    S    
C84   C85   A    
N26   C116  S    
Cr6   O17   S    
C21   N5    A    
N10   N11   A    
C91   O8    A    
C16   H3    S    
C54   N19   S    
Cr4   O19   S    
C40   C41   A    
C49   H13   S    
N27   H100  S    
C60   C65   A    
C102  H43   S    
C65   H16   S    
Cr1   O25   S    
C103  H48   S    
N24   C112  S    
C13   C92   S    
C33   N16   S    
N22   C109  S    
C110  H74   S    
C37   N9    A    
Cr3   O4    S    
C100  H38   S    
C94   O14   A    
C20   N7    A    
C38   N17   S    
N25   H89   S    
C36   N11   A    
C109  H69   S    
C44   C45   S    
C55   N21   S    
C34   O26   A    
N14   C98   S    
C112  H82   S    
C44   C50   A    
C117  H98   S    
C83   C90   A    
C46   C47   A    
C48   C49   A    
Cr5   O16   S    
N27   C118  S    
C92   O9    A    
C37   N10   A    
C84   H22   S    
C14   C19   A    
C23   O1    A    
C31   C32   A    
C62   C113  S    
C24   C28   A    
C72   C73   T    
C46   C103  S    
Cr4   O7    S    
C77   C117  S    
C49   C50   A    
C4    C67   A    
C53   C58   A    
N21   C108  S    
C90   C96   S    
N3    N4    A    
C20   C27   S    
C75   C81   A    
Cr4   O13   S    
C97   H26   S    
C5    H9    S    
C29   C35   A    
C69   H18   S    
C115  H92   S    
N18   H49   S    
C81   H20   S    
C22   C27   A    
C116  H94   S    
C25   N14   S    
C32   C33   A    
C111  H78   S    
C55   C57   A    
C2    C3    A    
N28   H104  S    
C35   N15   S    
C20   N1    A    
C121  H113  S    
N25   C115  S    
C82   C86   A    
C82   C83   A    
C64   C65   A    
C107  H63   S    
C8    N28   S    
C116  H95   S    
C89   C121  S    
C1    C29   S    
C30   C31   A    
C95   O17   A    
Cr2   O5    S    
C56   O4    A    
C96   O13   A    
Cr6   O19   S    
C45   O2    A    
C43   C93   S    
C85   H21   S    
C109  H71   S    
C22   C24   A    
C66   C71   A    
C69   C70   A    
Cr3   O5    S    
C21   N6    A    
N17   C101  S    
C106  H59   S    
C7    N29   S    
C10   C11   T    
C93   O6    A    
C63   C64   A    
N29   H108  S    
Cr3   O22   S    
C3    N20   S    
C48   C52   S    
C71   C72   S    
C15   C122  S    
C87   C88   T    
C56   O24   A    
C99   H32   S    
C118  H103  S    
C119  H105  S    
N19   C105  S    
C105  H55   S    
C120  H109  S    
C120  H110  S    
C1    O12   A    
Cr4   O6    S    
C95   O16   A    
C28   C91   S    
C12   O22   A    
C76   N26   S    
C105  H56   S    
Cr6   O10   S    
Cr5   O8    S    
C22   H5    S    
C112  H80   S    
C4    N24   S    
C6    C13   A    
C122  H117  S    
