data_mof_unit_6034.cif
_audit_creation_date              2012-12-10T19:12:23-0500
_audit_creation_method            fapswitch 2.2
_symmetry_space_group_name_H-M    P1
_symmetry_Int_Tables_number       1
_space_group_crystal_system       triclinic
_cell_length_a                    15.701983
_cell_length_b                    10.675334
_cell_length_c                    9.736881
_cell_angle_alpha                 91.033356
_cell_angle_beta                  89.035401
_cell_angle_gamma                 89.428256
_cell_volume                      1631.55108889

loop_
_atom_site_label
_atom_site_type_symbol
_atom_type_description
_atom_site_fract_x
_atom_site_fract_y
_atom_site_fract_z
_atom_type_partial_charge
C1    C     C_R   0.499571 0.257369 0.499027 0.894441
C2    C     C_3   0.082829 0.493893 0.497703 0.206933
C3    C     C_3   0.969896 0.546615 0.613924 -0.184104
C4    C     C_3   0.917610 0.494328 0.495075 0.212198
C5    C     C_3   0.027501 0.612656 0.507831 -0.165954
C6    C     C_3   0.973480 0.560371 0.388925 -0.148817
C7    C     C_1   0.173667 0.495216 0.499887 -0.082384
C8    C     C_1   0.826639 0.495854 0.495159 -0.078908
C9    C     C_3   0.517972 0.073378 0.645982 0.363988
C10   C     C_3   0.522678 0.930919 0.646348 -0.369375
C11   C     C_3   0.410340 0.068408 0.454673 -0.214697
C12   C     C_R   0.337878 0.499998 0.500789 0.926101
C13   C     C_3   0.573411 0.068368 0.403056 0.394929
C14   C     C_3   0.499619 0.120436 0.497415 -0.150768
C15   C     C_3   0.502159 0.877862 0.501645 -0.141576
C16   C     C_3   0.412899 0.923684 0.456996 0.418903
C17   C     C_3   0.570985 0.924616 0.398848 -0.547686
C18   C     C_3   0.469297 0.377995 0.080700 -0.425876
C19   C     C_3   0.472274 0.374564 0.918473 -0.372795
C20   C     C_3   0.441311 0.598171 0.086787 -0.271482
C21   C     C_3   0.584970 0.521168 0.079197 0.582731
C22   C     C_3   0.442557 0.600638 0.924534 0.610947
C23   C     C_R   0.502547 0.742010 0.500903 0.961356
C24   C     C_3   0.585673 0.517703 0.916762 -0.272084
C25   C     C_R   0.662173 0.499706 0.498978 0.898043
C26   C     C_3   0.972908 0.375474 0.484915 -0.158005
C27   C     C_3   0.030638 0.441553 0.378754 -0.169751
C28   C     C_1   0.248963 0.497524 0.501563 -0.157177
C29   C     C_1   0.751225 0.497723 0.496529 -0.170080
C30   C     C_3   0.027000 0.427843 0.603835 -0.168228
H1    H     H_    0.057589 0.398711 0.282609 0.124159
H2    H     H_    0.477217 0.896182 0.724753 0.287596
H3    H     H_    0.365419 0.098727 0.538901 0.221411
H4    H     H_    0.635382 0.098282 0.446191 0.074552
H5    H     H_    0.634703 0.886291 0.425509 0.173729
H6    H     H_    0.557398 0.890890 0.292767 0.256240
H7    H     H_    0.398764 0.881677 0.354764 0.091126
H8    H     H_    0.404434 0.358832 0.120121 0.216734
H9    H     H_    0.948366 0.278592 0.475466 0.134386
H10   H     H_    0.510314 0.301104 0.118720 0.248287
H11   H     H_    0.518280 0.300025 0.884066 0.233846
H12   H     H_    0.411197 0.344293 0.874452 0.220459
H13   H     H_    0.376340 0.585189 0.130855 0.127733
H14   H     H_    0.629201 0.447145 0.115325 0.080815
H15   H     H_    0.629996 0.442206 0.878920 0.108719
H16   H     H_    0.612683 0.605794 0.876180 0.238304
H17   H     H_    0.460721 0.690946 0.128791 0.225355
H18   H     H_    0.949423 0.614501 0.301087 0.140109
H19   H     H_    0.052151 0.709478 0.517501 0.138178
H20   H     H_    0.942940 0.589594 0.710025 0.134592
H21   H     H_    0.051237 0.373949 0.691730 0.130796
H22   H     H_    0.579712 0.111092 0.682374 0.082141
H23   H     H_    0.587557 0.899954 0.676607 0.146878
N1    N     N_3   0.498170 0.499750 0.138610 -0.115904
N2    N     N_3   0.498850 0.496730 0.861320 -0.108494
O1    O     O_R   0.499980 0.314910 0.616040 -0.604493
O2    O     O_R   0.500040 0.314680 0.383960 -0.578391
O3    O     O_R   0.376750 0.500100 0.616020 -0.608698
O4    O     O_R   0.376810 0.499870 0.383940 -0.633302
O5    O     O_R   0.499960 0.685320 0.616040 -0.576005
O6    O     O_R   0.500020 0.685090 0.383960 -0.618706
O7    O     O_R   0.623190 0.500130 0.616060 -0.640845
O8    O     O_R   0.623250 0.499900 0.383980 -0.580465
Zn1   Zn    Zn3+2 0.499960 0.500150 0.654960 0.970486
Zn2   Zn    Zn3+2 0.500040 0.499850 0.345040 0.981337
F1    F     F_    0.350208 0.881365 0.546081 -0.708351
F2    F     F_    0.570526 0.114230 0.271107 -0.667340
C31   C     C_R   0.371808 0.116961 0.321845 0.116392
C32   C     C_R   0.301465 0.199995 0.330537 -0.119481
C33   C     C_R   0.257518 0.233583 0.212832 -0.148706
C34   C     C_R   0.282519 0.184011 0.084627 -0.171785
C35   C     C_R   0.352713 0.103042 0.073597 -0.136329
C36   C     C_R   0.397376 0.070121 0.190823 -0.066573
H24   H     H_    0.279119 0.236643 0.429169 0.110033
H25   H     H_    0.203477 0.297104 0.221300 0.130471
H26   H     H_    0.247982 0.209151 0.993716 0.143562
H27   H     H_    0.372023 0.064488 0.974245 0.210527
H28   H     H_    0.449287 0.003616 0.178721 0.174913
C37   C     C_R   0.349544 0.603644 0.874965 0.082769
C38   C     C_R   0.288882 0.514005 0.916499 -0.234798
C39   C     C_R   0.203070 0.526155 0.882924 -0.106119
C40   C     C_R   0.175111 0.629255 0.809976 -0.133450
C41   C     C_R   0.233050 0.719676 0.768990 -0.146131
C42   C     C_R   0.319004 0.707643 0.801819 -0.002753
H29   H     H_    0.305530 0.437756 0.981570 0.122036
H30   H     H_    0.157776 0.456904 0.916723 0.119361
H31   H     H_    0.108419 0.639724 0.786343 0.133506
H32   H     H_    0.211159 0.800303 0.713182 0.176309
H33   H     H_    0.360792 0.781951 0.772186 0.219110
F3    F     F_    0.616128 0.634842 0.126426 -0.651722
F4    F     F_    0.479146 0.714340 0.890884 -0.706597
F5    F     F_    0.454851 0.113321 0.738885 -0.682342

loop_
_geom_bond_atom_site_label_1
_geom_bond_atom_site_label_2
_ccdc_geom_bond_type
C30   H21   S    
O8    Zn2   S    
C2    C7    S    
C4    C8    S    
C39   C40   A    
N1    Zn2   S    
C24   N2    S    
C26   C27   S    
C38   H29   S    
C6    H18   S    
C12   C28   S    
C10   H2    S    
C8    C29   T    
C1    O1    A    
C22   C37   S    
C10   C15   S    
C21   N1    S    
C11   C14   S    
C26   H9    S    
C40   H31   S    
C18   C19   S    
C25   O8    A    
C10   H23   S    
C18   H10   S    
O7    Zn1   S    
C12   O4    A    
C6    C27   S    
C31   C32   A    
C22   F4    S    
O1    Zn1   S    
C2    C27   S    
C17   H6    S    
C9    C10   S    
C39   H30   S    
C19   H12   S    
C16   H7    S    
C12   O3    A    
C15   C23   S    
C41   H32   S    
C13   C14   S    
C25   C29   S    
C37   C42   A    
C5    H19   S    
C9    H22   S    
C9    F5    S    
C3    H20   S    
C21   F3    S    
O3    Zn1   S    
C23   O5    A    
C27   H1    S    
C11   H3    S    
C2    C30   S    
C20   N1    S    
C35   C36   A    
C31   C36   A    
C7    C28   T    
C3    C30   S    
C9    C14   S    
C35   H27   S    
C1    O2    A    
C21   H14   S    
C11   C16   S    
C41   C42   A    
C23   O6    A    
C36   H28   S    
N2    Zn1   S    
C19   H11   S    
C32   H24   S    
C33   C34   A    
C4    C6    S    
C20   C22   S    
C26   C30   S    
C2    C5    S    
C16   F1    S    
C42   H33   S    
C24   H15   S    
C3    C4    S    
C34   H26   S    
C20   H13   S    
C11   C31   S    
C13   F2    S    
C19   N2    S    
C15   C17   S    
O2    Zn2   S    
C38   C39   A    
C3    C5    S    
C4    C26   S    
C22   N2    S    
C13   C17   S    
O5    Zn1   S    
C24   H16   S    
C18   H8    S    
C13   H4    S    
O4    Zn2   S    
C5    C6    S    
C25   O7    A    
C32   C33   A    
C20   H17   S    
C18   N1    S    
C37   C38   A    
O6    Zn2   S    
C34   C35   A    
C40   C41   A    
C21   C24   S    
C33   H25   S    
C1    C14   S    
C17   H5    S    
C15   C16   S    
