data_mof_unit_51352.cif
_audit_creation_date              2012-12-10T20:20:48-0500
_audit_creation_method            fapswitch 2.2
_symmetry_space_group_name_H-M    P1
_symmetry_Int_Tables_number       1
_space_group_crystal_system       triclinic
_cell_length_a                    18.9566
_cell_length_b                    18.511843
_cell_length_c                    10.686221
_cell_angle_alpha                 90.641408
_cell_angle_beta                  91.030212
_cell_angle_gamma                 89.464808
_cell_volume                      3749.02802961

loop_
_atom_site_label
_atom_site_type_symbol
_atom_type_description
_atom_site_fract_x
_atom_site_fract_y
_atom_site_fract_z
_atom_type_partial_charge
C1    C     C_R   0.365115 0.500457 0.504760 1.010003
C2    C     C_R   0.035756 0.567577 0.558515 0.470565
C3    C     C_R   0.073453 0.513998 0.623758 -0.194076
C4    C     C_R   0.927326 0.511954 0.617657 -0.197994
C5    C     C_R   0.037825 0.462998 0.694586 0.524866
C6    C     C_R   0.964524 0.460963 0.689244 0.474113
C7    C     C_R   0.531845 0.726346 0.407218 0.528290
C8    C     C_R   0.466288 0.725632 0.593335 0.549070
C9    C     C_R   0.532180 0.803006 0.407616 0.286177
C10   C     C_R   0.461861 0.801991 0.595520 0.265965
C11   C     C_R   0.496258 0.841281 0.502605 -0.023282
C12   C     C_R   0.634818 0.499768 0.500731 1.057743
C13   C     C_R   0.431097 0.961391 0.495686 0.480410
C14   C     C_R   0.558089 0.961610 0.520071 0.488647
C15   C     C_R   0.501343 0.500002 0.260353 1.013051
C16   C     C_R   0.499703 0.500450 0.740172 1.036947
C17   C     C_R   0.429958 0.037354 0.501954 0.563739
C18   C     C_R   0.557351 0.037560 0.521084 0.526804
C19   C     C_R   0.493208 0.076791 0.512847 -0.208146
C20   C     C_R   0.495116 0.922490 0.505618 -0.159551
C21   C     C_R   0.532289 0.198217 0.600322 0.462516
C22   C     C_R   0.456571 0.196646 0.417687 0.447364
C23   C     C_R   0.804045 0.539639 0.668260 0.383014
C24   C     C_R   0.537892 0.274074 0.590107 0.332365
C25   C     C_R   0.461925 0.272801 0.410936 0.353407
C26   C     C_R   0.493043 0.158231 0.511543 -0.106644
C27   C     C_R   0.469325 0.555832 0.065622 -0.174636
C28   C     C_R   0.468164 0.556296 0.937442 -0.179161
C29   C     C_R   0.506366 0.502106 0.129257 -0.300403
C30   C     C_R   0.504128 0.502221 0.872403 -0.297439
C31   C     C_R   0.551761 0.455323 0.065639 0.510202
C32   C     C_R   0.549772 0.454567 0.936181 0.554443
C33   C     C_3   0.391352 0.576800 0.933427 1.110616
C34   C     C_R   0.194094 0.561847 0.645062 0.405959
C35   C     C_3   0.393587 0.577302 0.074973 0.982862
C36   C     C_R   0.757323 0.458649 0.456504 0.257967
C37   C     C_R   0.244691 0.446987 0.494032 0.264504
C38   C     C_R   0.830209 0.463948 0.485447 0.340173
C39   C     C_R   0.173985 0.448273 0.530745 0.359403
C40   C     C_R   0.852360 0.503193 0.592614 -0.046443
C41   C     C_R   0.149050 0.506588 0.603779 -0.040403
C42   C     C_3   0.633076 0.826052 0.297554 0.209068
C43   C     C_3   0.668151 0.889698 0.235699 -0.697127
C44   C     C_3   0.358598 0.820811 0.703017 0.214736
C45   C     C_R   0.733175 0.540141 0.632990 0.437026
C46   C     C_3   0.319214 0.882187 0.767901 -0.703542
C47   C     C_3   0.652264 0.297550 0.640383 0.168100
C48   C     C_3   0.702318 0.339777 0.725954 -0.666670
C49   C     C_3   0.459441 0.295302 0.201419 0.136595
C50   C     C_3   0.417975 0.331303 0.095609 -0.728656
C51   C     C_3   0.755284 0.348749 0.349158 0.170199
C52   C     C_3   0.700121 0.302416 0.282071 -0.745792
C53   C     C_3   0.262471 0.409459 0.292374 0.208165
C54   C     C_3   0.235438 0.344644 0.217790 -0.733874
C55   C     C_3   0.889690 0.470798 0.301988 0.065765
C56   C     C_R   0.265147 0.558504 0.612283 0.494247
C57   C     C_3   0.958725 0.447984 0.242248 -0.718852
C58   C     C_3   0.139054 0.329818 0.534025 0.171177
C59   C     C_3   0.072142 0.285429 0.521179 -0.718674
C60   C     C_3   0.814533 0.543373 0.880420 0.125745
C61   C     C_3   0.845864 0.585498 0.990668 -0.724499
C62   C     C_3   0.181205 0.685008 0.680930 0.204460
C63   C     C_3   0.123099 0.735914 0.725056 -0.733297
C64   C     C_R   0.709948 0.500031 0.528164 -0.386966
C65   C     C_R   0.290224 0.502366 0.534680 -0.387021
C66   C     C_R   0.962683 0.567551 0.558116 0.506722
F1    F     F_    0.595974 0.409735 0.128065 -0.652019
F2    F     F_    0.416368 0.160508 0.331634 -0.588933
F3    F     F_    0.378458 0.644476 0.884584 -0.555146
F4    F     F_    0.351980 0.525204 0.127557 -0.724998
F5    F     F_    0.348816 0.523530 0.881266 -0.655438
F6    F     F_    0.384888 0.645150 0.128629 -0.590078
F7    F     F_    0.686614 0.579044 0.702499 -0.622026
F8    F     F_    0.310436 0.608256 0.660582 -0.580801
F9    F     F_    0.926345 0.618657 0.492635 -0.606509
F10   F     F_    0.069617 0.616426 0.487860 -0.623703
F11   F     F_    0.074074 0.413433 0.763454 -0.619191
F12   F     F_    0.590420 0.406338 0.874010 -0.617899
F13   F     F_    0.930054 0.407505 0.748134 -0.633921
F14   F     F_    0.562185 0.688689 0.312741 -0.618525
F15   F     F_    0.437849 0.687354 0.686003 -0.550414
F16   F     F_    0.369456 0.925798 0.477551 -0.604827
F17   F     F_    0.620604 0.926193 0.534968 -0.605407
F18   F     F_    0.366651 0.072225 0.498965 -0.546032
F19   F     F_    0.619866 0.072726 0.527455 -0.581277
F20   F     F_    0.564171 0.164162 0.698373 -0.580889
H1    H     H_    0.640712 0.777961 0.236101 0.205014
H2    H     H_    0.342050 0.891622 0.863064 0.273602
H3    H     H_    0.661354 0.314195 0.542926 0.112854
H4    H     H_    0.666169 0.239314 0.649479 0.196244
H5    H     H_    0.697434 0.321464 0.823981 0.295465
H6    H     H_    0.757567 0.330696 0.696232 0.186542
H7    H     H_    0.690269 0.398378 0.720988 0.259101
H8    H     H_    0.462287 0.236717 0.178305 0.194479
H9    H     H_    0.514115 0.316328 0.203682 0.191118
H10   H     H_    0.409420 0.389389 0.116742 0.260381
H11   H     H_    0.447505 0.325998 0.007110 0.234817
H12   H     H_    0.660292 0.816711 0.389522 0.177264
H13   H     H_    0.366053 0.304878 0.082493 0.255637
H14   H     H_    0.765312 0.326486 0.444351 0.121467
H15   H     H_    0.804642 0.343733 0.295405 0.187793
H16   H     H_    0.697084 0.316635 0.181451 0.301731
H17   H     H_    0.714926 0.244441 0.289842 0.206636
H18   H     H_    0.647423 0.311107 0.323684 0.252506
H19   H     H_    0.315533 0.423240 0.258665 0.218461
H20   H     H_    0.226117 0.456094 0.273042 0.159378
H21   H     H_    0.180640 0.332341 0.245118 0.256310
H22   H     H_    0.235675 0.356687 0.116231 0.232438
H23   H     H_    0.661717 0.939274 0.293980 0.287657
H24   H     H_    0.269559 0.296679 0.236043 0.286278
H25   H     H_    0.891933 0.530009 0.321024 0.204194
H26   H     H_    0.845930 0.460155 0.233937 0.175584
H27   H     H_    0.957847 0.389353 0.219115 0.259509
H28   H     H_    0.966274 0.478753 0.154944 0.224975
H29   H     H_    0.003564 0.459003 0.307895 0.277281
H30   H     H_    0.154349 0.332813 0.635204 0.196269
H31   H     H_    0.181333 0.300891 0.482614 0.200124
H32   H     H_    0.056632 0.279605 0.420860 0.248546
H33   H     H_    0.081349 0.230906 0.560899 0.223225
H34   H     H_    0.725332 0.878230 0.224824 0.215434
H35   H     H_    0.028511 0.312422 0.572182 0.294276
H36   H     H_    0.839580 0.488679 0.878722 0.172511
H37   H     H_    0.756883 0.537786 0.895392 0.198206
H38   H     H_    0.822633 0.640769 0.994198 0.280054
H39   H     H_    0.834190 0.557700 0.079243 0.192408
H40   H     H_    0.903968 0.589331 0.981276 0.256457
H41   H     H_    0.182497 0.687340 0.576665 0.171374
H42   H     H_    0.232003 0.705050 0.720603 0.198044
H43   H     H_    0.121632 0.736727 0.828922 0.264704
H44   H     H_    0.133235 0.791454 0.691952 0.211758
H45   H     H_    0.643886 0.899043 0.141819 0.264848
H46   H     H_    0.071179 0.717864 0.687143 0.290137
H47   H     H_    0.353156 0.772012 0.761271 0.245362
H48   H     H_    0.332741 0.811118 0.609747 0.160566
H49   H     H_    0.323143 0.932559 0.713153 0.293246
H50   H     H_    0.262693 0.868042 0.776275 0.199853
N1    N     N_R   0.500000 0.689440 0.500000 -0.222892
N2    N     N_R   0.500000 0.310560 0.500000 -0.225762
O1    O     O_R   0.398180 0.560840 0.499970 -0.551085
O2    O     O_3   0.430598 0.839306 0.693792 -0.556666
O3    O     O_3   0.581324 0.311818 0.672505 -0.479913
O4    O     O_3   0.426186 0.309645 0.316958 -0.538343
O5    O     O_3   0.731679 0.421582 0.351378 -0.575774
O6    O     O_3   0.268968 0.390733 0.419931 -0.583911
O7    O     O_3   0.880575 0.430445 0.411968 -0.611952
O8    O     O_3   0.126350 0.398619 0.481604 -0.612538
O9    O     O_3   0.827401 0.581016 0.769038 -0.545926
O10   O     O_3   0.168164 0.614807 0.725800 -0.560684
O11   O     O_R   0.601820 0.560840 0.500030 -0.564541
O12   O     O_R   0.398180 0.439210 0.499910 -0.571104
O13   O     O_R   0.601820 0.439210 0.500090 -0.612388
O14   O     O_R   0.499990 0.560820 0.316770 -0.546214
O15   O     O_R   0.500010 0.560820 0.683230 -0.531819
O16   O     O_R   0.499990 0.439200 0.316710 -0.598155
O17   O     O_R   0.500010 0.439200 0.683290 -0.564099
O18   O     O_3   0.560264 0.841412 0.309701 -0.559068
Zn1   Zn    Zn3+2 0.500000 0.581210 0.500000 1.154498
Zn2   Zn    Zn3+2 0.500000 0.418790 0.500000 1.064204

loop_
_geom_bond_atom_site_label_1
_geom_bond_atom_site_label_2
_ccdc_geom_bond_type
C59   H35   S    
C62   H42   S    
C21   C26   A    
C8    C10   A    
C52   H17   S    
C34   C56   A    
C23   C45   A    
C37   O6    S    
C55   H26   S    
C27   C29   A    
C14   C18   A    
C25   O4    S    
C57   H29   S    
C53   C54   S    
C31   F1    S    
C52   H16   S    
C50   H13   S    
C54   H21   S    
C61   H38   S    
C38   C40   A    
C36   O5    S    
O16   Zn2   S    
C42   H12   S    
C62   H41   S    
C12   C64   S    
C55   O7    S    
C54   H22   S    
C16   C30   S    
C23   C40   A    
C44   H47   S    
C54   H24   S    
C45   F7    S    
C18   C19   A    
C63   H44   S    
C19   C26   S    
C15   O16   A    
C17   C19   A    
C46   H49   S    
C21   F20   S    
C34   O10   S    
C53   H20   S    
C52   H18   S    
C4    C40   S    
C9    O18   S    
C48   H5    S    
C37   C65   A    
C1    C65   S    
C61   H40   S    
C60   O9    S    
C49   H8    S    
C1    O1    A    
C33   F3    S    
C43   H34   S    
C44   O2    S    
C62   O10   S    
O17   Zn2   S    
C58   H30   S    
C47   H3    S    
C12   O13   A    
C34   C41   A    
C10   O2    S    
C14   F17   S    
C15   O14   A    
C44   C46   S    
C15   C29   S    
C46   H2    S    
C44   H48   S    
C11   C20   S    
C18   F19   S    
C56   F8    S    
C48   H7    S    
C51   C52   S    
O13   Zn2   S    
C14   C20   A    
C35   F4    S    
C39   C41   A    
C7    N1    A    
C57   H27   S    
C24   N2    A    
C58   C59   S    
C23   O9    S    
C13   F16   S    
C22   C25   A    
C58   H31   S    
C8    F15   S    
C60   C61   S    
C60   H37   S    
C42   O18   S    
C38   O7    S    
C62   C63   S    
N2    Zn2   S    
C47   C48   S    
C24   O3    S    
C49   O4    S    
C16   O17   A    
C1    O12   A    
C63   H46   S    
C49   H9    S    
C60   H36   S    
C9    C11   A    
C22   F2    S    
C4    C6    A    
C32   F12   S    
C28   C33   S    
C59   H32   S    
C55   C57   S    
C22   C26   A    
C47   H4    S    
C42   C43   S    
C5    F11   S    
C16   O15   A    
C2    F10   S    
C51   H14   S    
C7    C9    A    
O14   Zn1   S    
C3    C41   S    
C50   H11   S    
C59   H33   S    
O12   Zn2   S    
C13   C20   A    
C55   H25   S    
C4    C66   A    
C12   O11   A    
C31   C32   A    
C3    C5    A    
C35   F6    S    
C58   O8    S    
C2    C66   A    
C57   H28   S    
C51   O5    S    
C51   H15   S    
C47   O3    S    
C45   C64   A    
N1    Zn1   S    
C17   F18   S    
C27   C35   S    
C53   O6    S    
C36   C38   A    
C2    C3    A    
C28   C30   A    
C29   C31   A    
C30   C32   A    
C50   H10   S    
C6    F13   S    
C5    C6    A    
C66   F9    S    
C39   O8    S    
C43   H45   S    
C33   C35   S    
C25   N2    A    
C63   H43   S    
O15   Zn1   S    
C10   C11   A    
C33   F5    S    
C46   H50   S    
C13   C17   A    
C53   H19   S    
O1    Zn1   S    
C37   C39   A    
C49   C50   S    
C48   H6    S    
C21   C24   A    
C27   C28   A    
C8    N1    A    
C61   H39   S    
C42   H1    S    
C43   H23   S    
C36   C64   A    
O11   Zn1   S    
C56   C65   A    
C7    F14   S    
