data_mof_unit_40506.cif
_audit_creation_date              2012-12-11T16:53:48-0500
_audit_creation_method            fapswitch 2.2
_symmetry_space_group_name_H-M    P1
_symmetry_Int_Tables_number       1
_space_group_crystal_system       triclinic
_cell_length_a                    14.830238
_cell_length_b                    14.701994
_cell_length_c                    17.277077
_cell_angle_alpha                 108.717551
_cell_angle_beta                  105.82284
_cell_angle_gamma                 108.098341
_cell_volume                      3087.57784169

loop_
_atom_site_label
_atom_site_type_symbol
_atom_type_description
_atom_site_fract_x
_atom_site_fract_y
_atom_site_fract_z
_atom_type_partial_charge
C1    C     C_R   0.085112 0.285414 0.077833 -0.182122
C2    C     C_R   0.063412 0.498809 0.258265 -0.063261
C3    C     C_R   0.262652 0.795595 0.181704 -0.142722
C4    C     C_R   0.938161 0.524531 0.750926 0.418801
C5    C     C_R   0.741299 0.469734 0.051165 -0.168093
C6    C     C_R   0.306306 0.799570 0.264786 0.089522
C7    C     C_R   0.714260 0.546840 0.036055 0.118552
C8    C     C_R   0.970643 0.449413 0.262277 0.192515
C9    C     C_R   0.999809 0.818730 0.968679 0.076347
C10   C     C_R   0.524233 0.660417 0.042781 0.059777
C11   C     C_R   0.478129 0.613524 0.089589 -0.095337
C12   C     C_R   0.029819 0.576198 0.746772 -0.149069
C13   C     C_R   0.543570 0.595619 0.154458 0.605241
C14   C     C_R   0.628749 0.580645 0.141898 -0.359671
C15   C     C_R   0.653696 0.595258 0.072397 0.002279
C16   C     C_R   0.718491 0.218717 0.829415 0.527709
C17   C     C_R   0.609539 0.649264 0.032803 0.004155
C18   C     C_3   0.574469 0.640266 0.939467 0.463946
C19   C     C_3   0.481534 0.654036 0.951058 -0.577693
C20   C     C_R   0.961669 0.448599 0.341872 -0.124784
C21   C     C_R   0.031606 0.576033 0.664546 -0.012109
C22   C     C_R   0.036059 0.657328 0.564743 -0.269258
C23   C     C_R   0.665551 0.215473 0.749120 -0.291512
C24   C     C_R   0.049174 0.667085 0.650112 0.533922
C25   C     C_R   0.998696 0.476004 0.595307 -0.244733
C26   C     C_R   0.981746 0.464507 0.509416 -0.043077
C27   C     C_R   0.002408 0.556731 0.494713 0.085012
C28   C     C_R   0.302510 0.599688 0.007299 -0.205155
C29   C     C_R   0.991041 0.547449 0.410479 -0.300828
C30   C     C_R   0.936655 0.355473 0.353651 0.386410
C31   C     C_R   0.944198 0.362851 0.438033 0.483667
C32   C     C_R   0.577483 0.123253 0.673737 -0.003146
C33   C     C_R   0.382782 0.893269 0.345736 0.088857
C34   C     C_R   0.363874 0.568238 0.058002 -0.090975
C35   C     C_R   0.443123 0.080137 0.442192 0.626031
C36   C     C_R   0.390805 0.994273 0.356673 -0.386190
C37   C     C_R   0.435037 0.878998 0.417332 -0.249808
C38   C     C_R   0.479249 0.959896 0.502839 0.088280
C39   C     C_R   0.477902 0.060022 0.516851 -0.183408
C40   C     C_R   0.728969 0.305448 0.747005 0.619898
C41   C     C_R   0.516980 0.137448 0.605135 0.530605
C42   C     C_R   0.574734 0.023090 0.659797 -0.220553
C43   C     C_R   0.522849 0.940444 0.574551 -0.189103
C44   C     C_R   0.091353 0.112867 0.136928 -0.153814
C45   C     C_R   0.257438 0.699089 0.259388 -0.146906
C46   C     C_R   0.996235 0.109320 0.086885 0.069079
C47   C     C_R   0.903114 0.027919 0.076229 0.528018
C48   C     C_R   0.908524 0.953129 0.109711 -0.304519
C49   C     C_R   0.003862 0.962631 0.162142 0.167466
C50   C     C_R   0.094313 0.040714 0.172853 -0.112013
C51   C     C_3   0.184014 0.121561 0.259136 0.431371
C52   C     C_R   0.296145 0.496723 0.076383 0.603261
C53   C     C_3   0.183516 0.202046 0.221370 0.312077
C54   C     C_R   0.111213 0.595323 0.821742 0.548328
C55   C     C_R   0.916176 0.198138 0.994798 0.688377
C56   C     C_R   0.751090 0.566997 0.975271 -0.031054
C57   C     C_R   0.998713 0.190584 0.050828 -0.113163
C58   C     C_3   0.520798 0.672331 0.280376 -0.122123
C59   C     C_3   0.529189 0.538236 0.790373 -0.103337
C60   C     C_3   0.813641 0.215824 0.420840 -0.187531
C61   C     C_3   0.585038 0.175973 0.874490 -0.086777
C62   C     C_3   0.518010 0.216459 0.409692 -0.135212
C63   C     C_3   0.238133 0.182386 0.412663 0.075916
C64   C     C_3   0.759020 0.274428 0.622024 -0.153071
C65   C     C_3   0.333207 0.361922 0.084423 -0.181793
C66   C     C_3   0.255050 0.646041 0.790575 -0.201669
C67   C     C_R   0.889716 0.410611 0.180829 -0.108599
C68   C     C_3   0.838329 0.048415 0.863146 -0.156365
C69   C     C_R   0.084461 0.804587 0.011803 -0.091533
C70   C     C_R   0.914232 0.720850 0.933004 -0.101012
Cl1   Cl    Cl    0.825237 0.537883 0.702384 -0.587481
Cl2   Cl    Cl    0.903847 0.232026 0.265773 -0.539379
Cl3   Cl    Cl    0.085171 0.792288 0.736758 -0.633269
Cl4   Cl    Cl    0.489058 0.249498 0.633247 -0.615058
Cl5   Cl    Cl    0.778778 0.024819 0.040277 -0.574463
Cl6   Cl    Cl    0.156130 0.306013 0.283623 -0.587886
H1    H     H_    0.161582 0.313385 0.128172 0.211614
H2    H     H_    0.629598 0.707939 0.934804 0.028581
H3    H     H_    0.483094 0.731348 0.954608 0.181487
H4    H     H_    0.406519 0.582408 0.903996 0.225363
H5    H     H_    0.009508 0.618016 0.398776 0.161196
H6    H     H_    0.050789 0.727532 0.552868 0.166662
H7    H     H_    0.983316 0.406756 0.608737 0.169005
H8    H     H_    0.619695 0.010824 0.713082 0.180525
H9    H     H_    0.523158 0.863760 0.563980 0.141136
H10   H     H_    0.352270 0.005706 0.300159 0.138395
H11   H     H_    0.434957 0.802331 0.407461 0.116996
H12   H     H_    0.746612 0.624489 0.950656 0.086397
H13   H     H_    0.838023 0.892837 0.102238 0.159951
H14   H     H_    0.253329 0.104404 0.268095 -0.057869
H15   H     H_    0.330311 0.668332 0.994886 0.201219
H16   H     H_    0.253968 0.232780 0.208849 -0.001348
H17   H     H_    0.275057 0.671504 0.310006 0.109094
H18   H     H_    0.455686 0.687651 0.246650 0.124003
H19   H     H_    0.596677 0.743087 0.307473 0.105253
H20   H     H_    0.509763 0.661031 0.338175 0.163410
H21   H     H_    0.604385 0.585558 0.790806 0.135862
H22   H     H_    0.471731 0.569836 0.771477 0.104736
H23   H     H_    0.808892 0.358895 0.160115 0.132705
H24   H     H_    0.497498 0.455355 0.738191 0.227452
H25   H     H_    0.797666 0.164407 0.455111 0.148208
H26   H     H_    0.778646 0.162639 0.347794 0.200197
H27   H     H_    0.774267 0.268799 0.434365 0.082918
H28   H     H_    0.517303 0.120081 0.809145 0.144304
H29   H     H_    0.595108 0.259463 0.892543 0.117330
H30   H     H_    0.567341 0.154566 0.926392 0.164359
H31   H     H_    0.471138 0.178837 0.336073 0.100900
H32   H     H_    0.588248 0.201007 0.424592 0.100235
H33   H     H_    0.545630 0.303992 0.434525 0.193375
H34   H     H_    0.165201 0.861028 0.039374 0.109730
H35   H     H_    0.304039 0.251755 0.420032 0.145609
H36   H     H_    0.262492 0.120319 0.419775 0.127720
H37   H     H_    0.214597 0.211809 0.467899 0.156281
H38   H     H_    0.712328 0.186342 0.588837 0.099308
H39   H     H_    0.841658 0.295869 0.662439 0.087858
H40   H     H_    0.758186 0.300970 0.568888 0.181002
H41   H     H_    0.396278 0.382949 0.061134 0.140451
H42   H     H_    0.258573 0.301098 0.026004 0.105945
H43   H     H_    0.354084 0.325076 0.129191 0.170094
H44   H     H_    0.236865 0.685012 0.747112 0.174437
H45   H     H_    0.837498 0.699697 0.885807 0.135962
H46   H     H_    0.228418 0.559014 0.750025 0.115340
H47   H     H_    0.340988 0.682930 0.824737 0.158610
H48   H     H_    0.885239 0.009822 0.888609 0.122269
H49   H     H_    0.875814 0.093270 0.830603 0.091662
H50   H     H_    0.761635 0.983763 0.810912 0.176351
H51   H     H_    0.141302 0.529389 0.308411 0.136302
H52   H     H_    0.287154 0.857168 0.160465 0.099800
H53   H     H_    0.723355 0.434374 0.094087 0.107494
H54   H     H_    0.669652 0.550748 0.181947 0.165116
N1    N     N_R   0.055640 0.348550 0.045600 -0.087672
N2    N     N_R   0.811290 0.303400 0.871650 -0.143645
N3    N     N_R   0.205180 0.552990 0.997660 -0.077942
N4    N     N_R   0.814810 0.361830 0.823710 -0.149844
N5    N     N_R   0.201660 0.494570 0.045600 -0.105323
N6    N     N_R   0.068420 0.560530 0.871650 -0.125616
N7    N     N_R   0.948050 0.295860 0.997660 -0.116821
N8    N     N_R   0.185190 0.638170 0.176290 -0.045212
N9    N     N_R   0.798340 0.505430 0.954400 -0.057922
N10   N     N_R   0.931580 0.439470 0.128350 -0.060157
N11   N     N_R   0.051950 0.704140 0.002340 -0.052064
N12   N     N_R   0.944360 0.651450 0.954400 -0.052070
N13   N     N_R   0.039170 0.492150 0.176290 -0.056284
N14   N     N_R   0.188710 0.696600 0.128350 -0.044447
N15   N     N_R   0.794820 0.447010 0.002340 -0.053833
N16   N     N_R   0.960830 0.507850 0.823710 -0.132306
Ni1   Ni    Ni4+2 0.119330 0.493420 0.109950 0.245565
Ni2   Ni    Ni4+2 0.880670 0.506580 0.890050 0.265528
Ni3   Ni    Ni4+2 0.872590 0.372590 0.000000 0.263803
Ni4   Ni    Ni4+2 0.127410 0.627410 0.000000 0.230338
O1    O     O_3   0.520303 0.579038 0.222441 -0.581518
O2    O     O_3   0.821822 0.114958 0.931879 -0.541904
O3    O     O_3   0.544525 0.536571 0.873980 -0.605205
O4    O     O_3   0.922669 0.272913 0.452925 -0.578865
O5    O     O_3   0.675896 0.165015 0.873013 -0.559679
O6    O     O_3   0.456623 0.181812 0.453396 -0.598982
O7    O     O_3   0.151631 0.137089 0.330385 -0.564757
O8    O     O_3   0.715268 0.326361 0.673718 -0.524379
O9    O     O_3   0.322913 0.452749 0.133137 -0.596246
O10   O     O_3   0.214842 0.666917 0.856102 -0.608311

loop_
_geom_bond_atom_site_label_1
_geom_bond_atom_site_label_2
_ccdc_geom_bond_type
C64   H40   S    
C6    C45   A    
C27   C29   A    
C1    H1    S    
C35   C36   A    
N10   N13   A    
C65   O9    S    
C3    C6    A    
C45   H17   S    
C68   H48   S    
C66   O10   S    
C59   O3    S    
C55   O2    S    
C39   C41   A    
C20   C30   A    
N13   Ni1   S    
C26   C27   A    
C8    C20   S    
C21   C25   A    
N1    N7    A    
C22   H6    S    
C40   O8    S    
C9    C69   A    
C59   H24   S    
C51   H14   S    
C30   C31   A    
C24   Cl3   S    
C56   H12   S    
C62   H32   S    
C10   C17   A    
C69   N11   A    
C23   C40   A    
C33   C36   A    
C18   C19   S    
C63   H36   S    
C58   H20   S    
N14   Ni4   S    
C41   Cl4   S    
C44   C53   S    
C65   H42   S    
C66   H46   S    
N1    Ni1   S    
C4    C12   A    
C60   H27   S    
C61   H29   S    
N8    Ni1   S    
C67   H23   S    
C2    H51   S    
C52   O9    S    
C5    H53   S    
C2    N13   A    
C26   C31   A    
C64   H39   S    
C66   H44   S    
C13   C14   A    
N2    Ni3   S    
C54   O10   S    
N7    Ni3   S    
C7    C56   A    
C16   O5    S    
C60   H26   S    
C61   O5    S    
C44   C46   A    
N11   Ni4   S    
C50   C51   S    
N16   Ni2   S    
C20   C29   A    
N9    Ni2   S    
C70   N12   A    
C64   H38   S    
N3    Ni4   S    
C28   N3    A    
C43   H9    S    
N12   Ni2   S    
C61   H28   S    
C5    N15   A    
C9    C70   A    
C13   O1    S    
C5    C7    A    
C56   N9    A    
C3    H52   S    
C62   H31   S    
C36   H10   S    
C25   C26   A    
C40   N4    A    
C12   C21   S    
C51   O7    S    
C33   C37   A    
C51   C53   S    
C35   C39   A    
C58   H19   S    
C29   H5    S    
C37   C38   A    
C68   O2    S    
C1    C57   A    
C69   H34   S    
C30   Cl2   S    
C47   C48   A    
C14   C15   A    
C10   C19   S    
C18   H2    S    
C54   N6    A    
C53   H16   S    
C17   C18   S    
C65   H43   S    
C42   H8    S    
C35   O6    S    
C19   H3    S    
C61   H30   S    
C18   O3    S    
C48   C49   A    
C16   C23   A    
N5    Ni1   S    
C22   C27   A    
C55   C57   A    
C46   C57   S    
C59   H21   S    
C22   C24   A    
C53   Cl6   S    
C42   C43   A    
C63   O7    S    
C32   C41   A    
C60   H25   S    
C68   H50   S    
C59   H22   S    
C31   O4    S    
C58   O1    S    
C25   H7    S    
C14   H54   S    
C44   C50   A    
C15   C17   A    
C67   N10   A    
C46   C47   A    
N9    N15   A    
C32   C42   A    
C66   H47   S    
C37   H11   S    
C11   C34   S    
C2    C8    A    
C3    N14   A    
C1    N1    A    
N6    Ni4   S    
N4    Ni2   S    
C34   C52   A    
C55   N7    A    
C6    C33   S    
C48   H13   S    
C23   C32   S    
C58   H18   S    
C47   Cl5   S    
C38   C43   A    
N8    N14   A    
N11   N12   A    
C11   C13   A    
C70   H45   S    
C38   C39   A    
C62   H33   S    
C12   C54   A    
N10   Ni3   S    
C7    C15   S    
C45   N8    A    
C62   O6    S    
C28   H15   S    
C63   H35   S    
C19   H4    S    
C16   N2    A    
C60   O4    S    
C10   C11   A    
C28   C34   A    
C63   H37   S    
N15   Ni3   S    
C8    C67   A    
N2    N4    A    
C49   C50   A    
C21   C24   A    
C64   O8    S    
N3    N5    A    
C52   N5    A    
C65   H41   S    
C4    N16   A    
C68   H49   S    
C4    Cl1   S    
N6    N16   A    
