data_mof_unit_26994.cif
_audit_creation_date              2012-12-11T15:59:31-0500
_audit_creation_method            fapswitch 2.2
_symmetry_space_group_name_H-M    P1
_symmetry_Int_Tables_number       1
_space_group_crystal_system       triclinic
_cell_length_a                    10.787757
_cell_length_b                    10.762897
_cell_length_c                    16.977755
_cell_angle_alpha                 99.677787
_cell_angle_beta                  100.270066
_cell_angle_gamma                 61.520834
_cell_volume                      1697.05864291

loop_
_atom_site_label
_atom_site_type_symbol
_atom_type_description
_atom_site_fract_x
_atom_site_fract_y
_atom_site_fract_z
_atom_type_partial_charge
C1    C     C_R   0.355011 0.769182 0.397415 0.617101
C2    C     C_R   0.856622 0.202411 0.197297 -0.026205
C3    C     C_R   0.878142 0.207766 0.282747 -0.030349
C4    C     C_R   0.749588 0.460219 0.280309 0.112767
C5    C     C_R   0.795568 0.451396 0.208936 -0.099366
C6    C     C_R   0.853479 0.080909 0.152244 0.286390
C7    C     C_R   0.909211 0.955817 0.188820 0.143793
C8    C     C_R   0.947186 0.957121 0.272071 -0.128264
C9    C     C_R   0.934751 0.080447 0.319267 0.185215
C10   C     C_R   0.826611 0.344421 0.325876 0.045567
C11   C     C_R   0.354851 0.812700 0.154923 -0.007102
C12   C     C_R   0.365772 0.341970 0.359340 0.589511
C13   C     C_R   0.447356 0.843827 0.214737 0.011210
C14   C     C_R   0.423236 0.861434 0.295798 -0.055614
C15   C     C_R   0.268112 0.749330 0.253085 0.231683
C16   C     C_R   0.276635 0.754448 0.174396 -0.057758
C17   C     C_R   0.566061 0.851967 0.197065 0.258705
C18   C     C_R   0.641840 0.901478 0.257516 -0.075210
C19   C     C_R   0.603770 0.940449 0.335205 -0.125502
C20   C     C_R   0.494560 0.921067 0.354350 -0.095086
C21   C     C_R   0.337080 0.808309 0.316101 0.036679
C22   C     C_R   0.329337 0.344567 0.823543 -0.032577
C23   C     C_R   0.779783 0.375090 0.405263 0.635637
C24   C     C_R   0.456047 0.254723 0.789274 -0.053431
C25   C     C_R   0.447481 0.217498 0.706179 -0.014020
C26   C     C_R   0.212042 0.422235 0.691543 0.212982
C27   C     C_R   0.209778 0.436972 0.774975 0.153234
C28   C     C_R   0.587419 0.188206 0.837029 -0.056101
C29   C     C_R   0.701047 0.069966 0.804884 -0.101902
C30   C     C_R   0.683180 0.014629 0.726098 -0.071118
C31   C     C_R   0.556474 0.085282 0.677066 0.194322
C32   C     C_R   0.333606 0.316442 0.656619 0.001404
C33   C     C_1   0.846956 0.329334 0.705303 0.012741
C34   C     C_R   0.355681 0.775871 0.625996 0.575529
C35   C     C_1   0.893687 0.293778 0.772022 -0.023550
C36   C     C_1   0.324585 0.841071 0.705222 0.005727
C37   C     C_1   0.286109 0.886642 0.771012 -0.011524
C38   C     C_R   0.894061 0.307358 0.087816 0.567697
C39   C     C_R   0.291599 0.260123 0.121562 0.544765
C40   C     C_R   0.298406 0.886003 0.082793 0.555865
C41   C     C_R   0.942994 0.273953 0.854764 0.527664
C42   C     C_R   0.307807 0.296314 0.893997 0.547978
C43   C     C_R   0.246779 0.939433 0.850535 0.523340
C44   C     C_R   0.368584 0.344288 0.583207 0.579769
C45   C     C_R   0.777998 0.378805 0.628838 0.579026
C46   C     C_1   0.324485 0.312520 0.277385 0.050849
C47   C     C_1   0.305287 0.288026 0.206277 0.021031
C48   C     C_R   0.836501 0.322902 0.161873 0.024431
Cr1   Cr    Cr6+3 0.608100 0.610860 0.522250 1.142084
Cr2   Cr    Cr6+3 0.288890 0.599990 0.488420 1.157890
Cr3   Cr    Cr6+3 0.603040 0.289190 0.489390 1.091781
Cr4   Cr    Cr6+3 0.053960 0.052250 0.967380 1.081840
Cr5   Cr    Cr6+3 0.059890 0.373160 0.992710 1.152433
Cr6   Cr    Cr6+3 0.373370 0.061690 0.991710 1.142767
H1    H     H_    0.732342 0.906589 0.244716 0.168622
H2    H     H_    0.663142 0.979688 0.381420 0.172880
H3    H     H_    0.467525 0.950404 0.415006 0.187771
H4    H     H_    0.599639 0.224113 0.900122 0.190415
H5    H     H_    0.799392 0.015410 0.842632 0.185419
H6    H     H_    0.766787 0.914903 0.703649 0.188760
H7    H     H_    0.779424 0.546136 0.186324 0.210136
H8    H     H_    0.978990 0.864023 0.301765 0.218495
H9    H     H_    0.221110 0.712784 0.126923 0.214297
O1    O     O_R   0.749810 0.499790 0.438040 -0.481037
O2    O     O_R   0.298970 0.468800 0.557390 -0.458547
O3    O     O_R   0.489400 0.255930 0.561910 -0.495925
O4    O     O_R   0.723890 0.306050 0.584610 -0.495722
O5    O     O_3   0.500010 0.500010 0.500020 -0.300527
O6    O     O_R   0.171100 0.914680 0.053100 -0.499340
O7    O     O_R   0.941680 0.184840 0.050710 -0.470846
O8    O     O_R   0.922080 0.403420 0.072610 -0.472529
O9    O     O_R   0.196880 0.369150 0.083850 -0.444819
O10   O     O_R   0.411730 0.181020 0.091530 -0.436300
O11   O     O_R   0.365010 0.944360 0.063320 -0.461872
O12   O     O_R   0.477660 0.726260 0.439290 -0.481594
O13   O     O_R   0.159380 0.906670 0.876210 -0.470832
O14   O     O_R   0.930820 0.177420 0.886730 -0.515800
O15   O     O_R   0.910360 0.395420 0.895720 -0.439713
O16   O     O_R   0.186010 0.361730 0.919870 -0.470298
O17   O     O_R   0.400000 0.173010 0.914630 -0.494926
O18   O     O_R   0.354140 0.936940 0.899340 -0.461130
O19   O     O_3   0.162410 0.162370 0.983930 -0.366594
O20   O     O_R   0.260150 0.743000 0.412270 -0.429106
O21   O     O_R   0.297740 0.466550 0.394720 -0.436474
O22   O     O_R   0.488080 0.253500 0.386430 -0.524617
O23   O     O_R   0.722670 0.303800 0.421940 -0.447326
O24   O     O_R   0.751130 0.502220 0.613520 -0.445440
O25   O     O_R   0.478890 0.728510 0.601960 -0.465509
O26   O     O_R   0.261470 0.745430 0.587750 -0.476872
Br1   Br    Br    0.558552 0.491725 0.259991 -0.474910
Cl1   Cl    Cl    0.058438 0.531698 0.630616 -0.507265
Br2   Br    Br    0.046900 0.592026 0.821347 -0.361183
Br3   Br    Br    0.527207 0.980791 0.578997 -0.495449
Cl2   Cl    Cl    0.746888 0.093335 0.058483 -0.496607
Br4   Br    Br    0.935022 0.782585 0.124439 -0.336284
Cl3   Cl    Cl    0.004301 0.065113 0.421485 -0.595117
Cl4   Cl    Cl    0.197707 0.636455 0.263992 -0.562694
Cl5   Cl    Cl    0.640383 0.772923 0.105738 -0.500320

loop_
_geom_bond_atom_site_label_1
_geom_bond_atom_site_label_2
_ccdc_geom_bond_type
C19   H2    S    
C25   C31   A    
C38   O7    A    
C1    C21   S    
Cr1   O5    S    
C33   C45   S    
Cr1   O24   S    
C44   O3    A    
C19   C20   A    
Cr3   O22   S    
Cr2   O21   S    
C7    C8    A    
C42   O17   A    
C26   C27   A    
C12   O22   A    
C14   C21   A    
C28   C29   A    
C45   O24   A    
C41   O14   A    
C30   C31   A    
C15   C16   A    
C12   O21   A    
C18   C19   A    
Cr4   O6    S    
Cr6   O11   S    
C29   H5    S    
C8    C9    A    
C6    Cl2   S    
C23   O23   A    
C30   H6    S    
C45   O4    A    
C39   O9    A    
Cr1   O12   S    
C16   H9    S    
C17   Cl5   S    
Cr6   O17   S    
C25   C32   A    
C42   O16   A    
Cr1   O1    S    
C13   C14   A    
Cr1   O25   S    
C44   O2    A    
C2    C6    A    
C15   Cl4   S    
Cr3   O23   S    
Cr2   O20   S    
C4    Br1   S    
C5    C48   A    
C40   O6    A    
C1    O12   A    
C14   C20   A    
C24   C25   A    
C12   C46   S    
C41   O15   A    
C26   C32   A    
Cr3   O4    S    
C2    C48   A    
C26   Cl1   S    
C31   Br3   S    
Cr5   O19   S    
Cr3   O3    S    
C37   C43   S    
C29   C30   A    
C3    C9    A    
Cr6   O10   S    
C11   C16   A    
Cr2   O26   S    
C17   C18   A    
C32   C44   S    
C5    H7    S    
C27   Br2   S    
C34   O25   A    
Cr4   O19   S    
C9    Cl3   S    
C18   H1    S    
C23   O1    A    
C22   C27   A    
C43   O18   A    
C22   C24   A    
C4    C10   A    
Cr4   O14   S    
Cr5   O8    S    
Cr6   O19   S    
C39   C47   S    
C43   O13   A    
C46   C47   T    
C36   C37   T    
Cr5   O16   S    
C38   C48   S    
C24   C28   A    
C4    C5    A    
Cr4   O13   S    
C6    C7    A    
C28   H4    S    
C10   C23   S    
C1    O20   A    
C7    Br4   S    
C13   C17   A    
C2    C3    A    
C34   O26   A    
C3    C10   A    
C11   C13   A    
C22   C42   S    
C33   C35   T    
C40   O11   A    
Cr5   O15   S    
C34   C36   S    
Cr3   O5    S    
C39   O10   A    
C11   C40   S    
C35   C41   S    
Cr2   O2    S    
Cr4   O7    S    
C15   C21   A    
C20   H3    S    
Cr5   O9    S    
Cr2   O5    S    
Cr6   O18   S    
C38   O8    A    
C8    H8    S    
