data_mof_unit_62517.cif
_audit_creation_date              2012-10-26T19:38:19-0400
_audit_creation_method            fapswitch 2.2
_symmetry_space_group_name_H-M    P1
_symmetry_Int_Tables_number       1
_space_group_crystal_system       triclinic
_cell_length_a                    15.942199
_cell_length_b                    17.031212
_cell_length_c                    23.55851
_cell_angle_alpha                 92.785637
_cell_angle_beta                  91.703884
_cell_angle_gamma                 96.12438
_cell_volume                      6348.53785996

loop_
_atom_site_label
_atom_site_type_symbol
_atom_type_description
_atom_site_fract_x
_atom_site_fract_y
_atom_site_fract_z
_atom_type_partial_charge
C1    C     C_R   0.489235 0.348416 0.501376 0.556685
C2    C     C_R   0.481819 0.567421 0.702860 0.108569
C3    C     C_R   0.447439 0.440475 0.236927 0.065973
C4    C     C_R   0.465878 0.562333 0.761174 0.056174
C5    C     C_R   0.499708 0.498380 0.209222 0.143826
C6    C     C_R   0.492993 0.497816 0.790010 0.139374
C7    C     C_R   0.481721 0.261095 0.501891 -0.029448
C8    C     C_R   0.515921 0.739695 0.504410 -0.029983
C9    C     C_R   0.550890 0.222421 0.485269 -0.112877
C10   C     C_R   0.440231 0.773552 0.511469 -0.112574
C11   C     C_R   0.545145 0.140106 0.478470 0.020085
C12   C     C_R   0.510643 0.651958 0.500160 0.547625
C13   C     C_R   0.439502 0.854344 0.523468 0.016866
C14   C     C_R   0.469060 0.094836 0.490954 0.193877
C15   C     C_R   0.515691 0.904641 0.523035 0.182727
C16   C     C_R   0.500745 0.499029 0.391191 0.538065
C17   C     C_R   0.499798 0.500773 0.608714 0.542936
C18   C     C_R   0.397686 0.132778 0.504783 0.078251
C19   C     C_R   0.592637 0.871920 0.518536 0.077641
C20   C     C_R   0.404677 0.215618 0.513476 -0.013320
C21   C     C_R   0.593531 0.789825 0.507828 -0.011540
C22   C     C_R   0.753532 0.470272 0.465117 0.219269
C23   C     C_R   0.552250 0.555759 0.242180 -0.020255
C24   C     C_R   0.245691 0.530081 0.534277 0.217934
C25   C     C_R   0.842561 0.482345 0.461322 0.088528
C26   C     C_R   0.156675 0.517445 0.538300 0.086349
C27   C     C_R   0.892346 0.523999 0.505560 0.183398
C28   C     C_R   0.107024 0.475550 0.494229 0.183278
C29   C     C_R   0.849796 0.566173 0.546584 0.080963
C30   C     C_R   0.149864 0.433016 0.453702 0.067419
C31   C     C_R   0.759972 0.557305 0.547397 0.110733
C32   C     C_R   0.239723 0.441478 0.453526 0.095490
C33   C     C_R   0.533038 0.562347 0.882971 0.405220
C34   C     C_R   0.521631 0.434607 0.758267 -0.014283
C35   C     C_R   0.512173 0.430039 0.116946 0.372742
C36   C     C_R   0.465747 0.430940 0.878039 0.391177
C37   C     C_R   0.497971 0.567449 0.120891 0.398518
C38   C     C_R   0.480398 0.425727 0.937254 -0.005961
C39   C     C_R   0.512072 0.570421 0.062002 0.008385
C40   C     C_R   0.502775 0.497279 0.969807 -0.039459
C41   C     C_R   0.504474 0.497766 0.029589 -0.033237
C42   C     C_R   0.523316 0.568366 0.942324 0.019663
C43   C     C_R   0.499001 0.425656 0.057213 -0.010995
C44   C     C_R   0.470650 0.352937 0.964754 -0.000550
C45   C     C_R   0.549638 0.560134 0.301569 -0.050363
C46   C     C_R   0.529620 0.642672 0.034657 -0.021963
C47   C     C_R   0.482702 0.352743 0.024690 -0.003475
C48   C     C_R   0.535934 0.641583 0.974749 -0.005148
C49   C     C_2   0.452615 0.276664 0.930847 0.369074
C50   C     C_2   0.547500 0.718826 0.068895 0.290674
C51   C     C_2   0.332323 0.252429 0.537461 0.279266
C52   C     C_2   0.676112 0.759422 0.499436 0.272813
C53   C     C_2   0.718868 0.599429 0.593218 0.321200
C54   C     C_2   0.280182 0.396345 0.409763 0.336981
C55   C     C_2   0.472901 0.276501 0.053316 0.368547
C56   C     C_R   0.519776 0.432244 0.698761 -0.024766
C57   C     C_2   0.551164 0.718050 0.946896 0.372608
C58   C     C_2   0.595555 0.629336 0.334192 0.298823
C59   C     C_2   0.541283 0.360139 0.666620 0.305209
C60   C     C_2   0.377021 0.390977 0.204921 0.331720
C61   C     C_2   0.416348 0.620173 0.791125 0.361423
C62   C     C_2   0.360448 0.884348 0.541989 0.324256
C63   C     C_2   0.616661 0.102198 0.454259 0.316727
C64   C     C_R   0.503024 0.498461 0.328844 -0.034708
C65   C     C_R   0.499632 0.499646 0.670856 -0.022905
C66   C     C_R   0.459731 0.434627 0.296022 0.131625
Cu1   Cu    Cu3+1 0.415220 0.496180 0.497250 1.047610
Cu2   Cu    Cu3+1 0.584780 0.503820 0.502750 1.024200
H1    H     H_    0.592924 0.599338 0.220989 0.199840
H2    H     H_    0.317747 0.350144 0.421417 0.123973
H3    H     H_    0.432473 0.269701 0.089406 0.151727
H4    H     H_    0.602817 0.761379 0.962074 0.144443
H5    H     H_    0.585960 0.639193 0.379161 0.163010
H6    H     H_    0.539862 0.356835 0.620581 0.132757
H7    H     H_    0.366884 0.396234 0.159678 0.111762
H8    H     H_    0.402938 0.615156 0.835680 0.150273
H9    H     H_    0.363356 0.939824 0.566843 0.167932
H10   H     H_    0.608054 0.040606 0.439159 0.162739
H11   H     H_    0.543806 0.386051 0.780359 0.200198
H12   H     H_    0.380833 0.736336 0.510243 0.205448
H13   H     H_    0.609224 0.256706 0.475707 0.205150
H14   H     H_    0.488806 0.265139 0.893626 0.156567
H15   H     H_    0.588500 0.722129 0.106740 0.157329
H16   H     H_    0.268807 0.235796 0.520092 0.135869
H17   H     H_    0.727063 0.773757 0.531020 0.133876
H18   H     H_    0.670722 0.637268 0.583837 0.131829
I1    I     I_    0.306799 0.619786 0.591312 -0.127158
I2    I     I_    0.707982 0.948809 0.526961 -0.166953
I3    I     I_    0.689919 0.382688 0.406042 -0.152809
I4    I     I_    0.101369 0.537561 0.618627 -0.097722
I5    I     I_    0.897881 0.461415 0.381170 -0.097511
I6    I     I_    0.920710 0.655758 0.600245 -0.088992
I7    I     I_    0.079387 0.344267 0.399093 -0.092631
I8    I     I_    0.440917 0.321331 0.332061 -0.159443
I9    I     I_    0.508654 0.680887 0.667958 -0.158130
I10   I     I_    0.278881 0.064002 0.512695 -0.190195
N1    N     N_R   0.496128 0.497399 0.851574 -0.409554
N2    N     N_R   0.502282 0.498440 0.147748 -0.401715
N3    N     N_2   0.463922 0.011247 0.490805 -0.234884
N4    N     N_2   0.516807 0.988192 0.524653 -0.223995
N5    N     N_R   0.712130 0.509560 0.506880 -0.276079
N6    N     N_R   0.287870 0.490440 0.493120 -0.276558
N7    N     N_2   0.983711 0.530814 0.507076 -0.156905
N8    N     N_2   0.015654 0.468710 0.492583 -0.159139
O1    O     O_R   0.420530 0.382500 0.497430 -0.502002
O2    O     O_2   0.534824 0.367325 0.144222 -0.466687
O3    O     O_2   0.420181 0.371432 0.847332 -0.466362
O4    O     O_2   0.477736 0.631905 0.150792 -0.462976
O5    O     O_2   0.396001 0.227169 0.943447 -0.405534
O6    O     O_2   0.515041 0.777573 0.056043 -0.421539
O7    O     O_2   0.342902 0.299825 0.578305 -0.456007
O8    O     O_2   0.689215 0.721441 0.455940 -0.454936
O9    O     O_2   0.738126 0.591149 0.642951 -0.443972
O10   O     O_2   0.269310 0.409183 0.359682 -0.421250
O11   O     O_2   0.511327 0.221546 0.037563 -0.403491
O12   O     O_R   0.579470 0.617500 0.502570 -0.504792
O13   O     O_2   0.503532 0.734604 0.908805 -0.405195
O14   O     O_2   0.644013 0.677092 0.310979 -0.430590
O15   O     O_2   0.560463 0.302863 0.691311 -0.448454
O16   O     O_2   0.325877 0.346852 0.228973 -0.401155
O17   O     O_2   0.385248 0.671537 0.765938 -0.402946
O18   O     O_2   0.291767 0.846728 0.531188 -0.435327
O19   O     O_2   0.685799 0.139516 0.450020 -0.435943
O20   O     O_R   0.563720 0.388950 0.502070 -0.494791
O21   O     O_R   0.436280 0.611050 0.497930 -0.491376
O22   O     O_R   0.428390 0.496750 0.415560 -0.480288
O23   O     O_R   0.571610 0.503250 0.584440 -0.514447
O24   O     O_R   0.571580 0.503200 0.420200 -0.485224
O25   O     O_R   0.428420 0.496800 0.579800 -0.452323
O26   O     O_2   0.579538 0.619819 0.856779 -0.429426

loop_
_geom_bond_atom_site_label_1
_geom_bond_atom_site_label_2
_ccdc_geom_bond_type
C44   C49   S    
C33   O26   S    
C38   C40   A    
C34   C56   A    
C23   C45   A    
C27   C29   A    
C18   I10   S    
C14   C18   A    
C62   H9    S    
C50   O6    D    
C15   N4    S    
C2    C65   A    
Cu2   O20   S    
C48   C57   S    
C39   C41   A    
C15   C19   A    
C22   N5    A    
C33   C42   A    
C31   N5    A    
C47   C55   S    
C2    I9    S    
C19   C21   A    
C24   C26   A    
C20   C51   S    
C11   C63   S    
Cu1   O21   S    
C11   C14   A    
C52   O8    D    
C56   C65   A    
C58   O14   D    
C61   O17   D    
C27   N7    S    
C23   H1    S    
C13   C62   S    
C22   C25   A    
C5    C23   A    
C59   O15   D    
C36   N1    A    
C35   N2    A    
C35   C43   A    
Cu2   O24   S    
C24   N6    A    
C44   C47   A    
C66   I8    S    
C3    C60   S    
C40   C42   A    
C36   O3    S    
C41   C43   A    
C16   O22   A    
Cu1   O25   S    
C32   C54   S    
C37   N2    A    
C53   O9    D    
C50   H15   S    
C61   H8    S    
C46   C48   A    
C45   C58   S    
C25   I5    S    
C17   O25   A    
Cu1   Cu2   S    
C6    N1    S    
C14   N3    S    
Cu2   N5    S    
C37   O4    S    
C4    C6    A    
C19   I2    S    
Cu1   O22   S    
C10   H12   S    
Cu1   O1    S    
C12   O21   A    
C4    C61   S    
C6    C34   A    
C64   C66   A    
C49   H14   S    
C2    C4    A    
C38   C44   A    
C34   H11   S    
C16   O24   A    
C28   N8    S    
N3    N4    D    
C54   H2    S    
C8    C12   S    
C8    C21   A    
C42   C48   A    
C31   C53   S    
C9    C11   A    
C59   H6    S    
C53   H18   S    
Cu2   O12   S    
C39   C46   A    
C8    C10   A    
C40   C41   A    
C13   C15   A    
C32   N6    A    
C3    C66   A    
C26   I4    S    
C57   O13   D    
C62   O18   D    
C49   O5    D    
C7    C9    A    
C52   H17   S    
C51   O7    D    
C60   H7    S    
C1    C7    S    
C26   C28   A    
C30   I7    S    
C17   O23   A    
C3    C5    A    
C10   C13   A    
C63   O19   D    
C25   C27   A    
C46   C50   S    
C45   C64   A    
C17   C65   S    
C56   C59   S    
C36   C38   A    
C1    O20   A    
C29   C31   A    
C35   O2    S    
C30   C32   A    
C55   O11   D    
C54   O10   D    
C28   C30   A    
C22   I3    S    
C60   O16   D    
C18   C20   A    
C21   C52   S    
C57   H4    S    
C24   I1    S    
Cu2   O23   S    
C5    N2    S    
C58   H5    S    
C37   C39   A    
C7    C20   A    
C1    O1    A    
N7    N8    D    
C16   C64   S    
C33   N1    A    
C43   C47   A    
C51   H16   S    
C29   I6    S    
C55   H3    S    
Cu1   N6    S    
C9    H13   S    
C12   O12   A    
C63   H10   S    
