data_mof_unit_6564.cif
_audit_creation_date              2012-12-10T17:43:35-0500
_audit_creation_method            fapswitch 2.2
_symmetry_space_group_name_H-M    P1
_symmetry_Int_Tables_number       1
_space_group_crystal_system       triclinic
_cell_length_a                    14.923431
_cell_length_b                    10.758294
_cell_length_c                    10.068074
_cell_angle_alpha                 87.995806
_cell_angle_beta                  90.172097
_cell_angle_gamma                 93.667668
_cell_volume                      1612.13797088

loop_
_atom_site_label
_atom_site_type_symbol
_atom_type_description
_atom_site_fract_x
_atom_site_fract_y
_atom_site_fract_z
_atom_type_partial_charge
C1    C     C_R   0.511156 0.262549 0.502730 0.899394
C2    C     C_R   0.913146 0.622772 0.470853 0.063280
C3    C     C_R   0.936399 0.280423 0.456292 0.095135
C4    C     C_R   0.030024 0.275376 0.452990 0.371225
C5    C     C_R   0.085604 0.385014 0.473774 0.025056
C6    C     C_R   0.046465 0.501445 0.460435 -0.088001
C7    C     C_R   0.100347 0.611847 0.430586 -0.079734
C8    C     C_R   0.057686 0.724014 0.407683 0.439984
C9    C     C_R   0.970114 0.732827 0.452998 0.086130
C10   C     C_R   0.178489 0.384873 0.501834 0.115495
C11   C     C_R   0.230773 0.498552 0.488616 -0.129150
C12   C     C_R   0.327251 0.499099 0.498587 0.913220
C13   C     C_R   0.194241 0.606055 0.433397 0.308071
C14   C     C_R   0.531635 0.104916 0.752405 -0.210409
C15   C     C_R   0.496540 0.042603 0.865747 0.085397
C16   C     C_R   0.439175 0.934900 0.851906 0.412905
C17   C     C_R   0.426649 0.883962 0.724904 0.067454
C18   C     C_R   0.477329 0.937934 0.613724 0.005290
C19   C     C_R   0.513160 0.059665 0.625692 -0.038595
C20   C     C_R   0.531744 0.131994 0.509785 -0.209948
C21   C     C_R   0.557797 0.075454 0.395232 0.361951
C22   C     C_R   0.541482 0.946689 0.385478 0.063891
C23   C     C_R   0.497787 0.740648 0.497823 0.893151
C24   C     C_R   0.498606 0.876842 0.494593 -0.115278
C25   C     C_R   0.346966 0.399810 0.137150 0.207334
C26   C     C_R   0.265165 0.419566 0.070276 0.067743
C27   C     C_R   0.267734 0.436232 0.931335 0.373775
C28   C     C_R   0.346438 0.405459 0.868428 0.196402
C29   C     C_R   0.426506 0.449627 0.930084 -0.027914
C30   C     C_R   0.426597 0.448693 0.072976 0.004723
C31   C     C_R   0.569908 0.552418 0.069012 0.448762
C32   C     C_R   0.568626 0.556667 0.926656 0.142312
C33   C     C_R   0.672459 0.501058 0.500830 0.904244
C34   C     C_R   0.817968 0.622677 0.476969 0.135010
C35   C     C_R   0.768732 0.508273 0.503419 -0.055343
C36   C     C_R   0.810615 0.397764 0.528054 0.106009
C37   C     C_R   0.899847 0.393208 0.488487 0.077075
C38   C     C_R   0.952906 0.506040 0.471617 -0.056704
H1    H     H_    0.574752 0.188738 0.764142 0.201121
N1    N     N_R   0.499150 0.498800 0.142780 -0.125143
N2    N     N_R   0.499120 0.498720 0.857170 -0.125010
O1    O     O_R   0.500000 0.316780 0.614690 -0.649173
O2    O     O_R   0.499990 0.316750 0.385360 -0.575059
O3    O     O_R   0.367850 0.499980 0.614680 -0.605777
O4    O     O_R   0.367840 0.499960 0.385350 -0.588425
O5    O     O_R   0.500010 0.683250 0.614640 -0.642308
O6    O     O_R   0.500000 0.683220 0.385310 -0.574523
O7    O     O_R   0.632160 0.500040 0.614650 -0.651296
O8    O     O_R   0.632150 0.500020 0.385320 -0.525556
Zn1   Zn    Zn3+2 0.500010 0.500020 0.653130 0.930084
Zn2   Zn    Zn3+2 0.499990 0.499980 0.346870 1.049421
C39   C     C_3   0.767818 0.739649 0.449316 -0.831827
H2    H     H_    0.694781 0.721195 0.439934 0.222932
H3    H     H_    0.774354 0.803453 0.532923 0.223050
H4    H     H_    0.790698 0.785831 0.354034 0.277983
C40   C     C_3   0.519250 0.098911 0.996766 -0.794757
H5    H     H_    0.504212 0.198613 0.994108 0.239969
H6    H     H_    0.482004 0.052119 0.081218 0.291170
H7    H     H_    0.592424 0.094291 0.013482 0.272227
Cl1   Cl    Cl    0.382678 0.863111 0.991803 -0.598941
C41   C     C_3   0.350576 0.786178 0.709455 -0.639647
H8    H     H_    0.340393 0.761962 0.605404 0.241456
H9    H     H_    0.363480 0.700774 0.769753 0.266906
H10   H     H_    0.286867 0.822559 0.743458 0.255113
C42   C     C_3   0.570809 0.886217 0.260373 -0.700911
H11   H     H_    0.511798 0.841820 0.209265 0.295588
H12   H     H_    0.605459 0.949779 0.186510 0.260614
H13   H     H_    0.620060 0.817768 0.285929 0.258561
Cl2   Cl    Cl    0.664929 0.620403 0.148692 -0.628522
C43   C     C_3   0.350123 0.278099 0.215935 -0.770342
H14   H     H_    0.341424 0.290790 0.322748 0.245972
H15   H     H_    0.295853 0.209743 0.184450 0.253313
H16   H     H_    0.413905 0.233860 0.198124 0.256721
C44   C     C_3   0.176477 0.401747 0.140622 -0.696627
H17   H     H_    0.186304 0.376549 0.246194 0.232658
H18   H     H_    0.140915 0.489263 0.133338 0.267900
H19   H     H_    0.134444 0.325010 0.096215 0.274793
Cl3   Cl    Cl    0.168724 0.448003 0.837026 -0.610011
C45   C     C_3   0.341668 0.269246 0.836946 -0.860367
H20   H     H_    0.390368 0.248818 0.761541 0.277077
H21   H     H_    0.354458 0.212076 0.928007 0.241985
H22   H     H_    0.273873 0.236375 0.803233 0.262769
C46   C     C_3   0.761886 0.290835 0.606583 -0.873279
H23   H     H_    0.808046 0.220392 0.642820 0.256230
H24   H     H_    0.731749 0.326376 0.697331 0.252358
H25   H     H_    0.707817 0.245784 0.545887 0.247728
C47   C     C_3   0.643142 0.631760 0.853951 -0.713148
H26   H     H_    0.622177 0.665901 0.755707 0.263866
H27   H     H_    0.662564 0.718717 0.905853 0.237524
H28   H     H_    0.702647 0.575666 0.845504 0.248264
C48   C     C_3   0.876739 0.171912 0.407328 -0.758637
H29   H     H_    0.870100 0.097342 0.485923 0.233338
H30   H     H_    0.809289 0.200302 0.378036 0.278927
H31   H     H_    0.904088 0.134704 0.315509 0.284099
Cl4   Cl    Cl    0.073562 0.138611 0.394630 -0.614916
C49   C     C_3   0.222070 0.266089 0.543663 -0.766773
H32   H     H_    0.233091 0.208642 0.457237 0.271890
H33   H     H_    0.289599 0.283458 0.585637 0.213057
H34   H     H_    0.179989 0.212199 0.619054 0.280459
Cl5   Cl    Cl    0.269370 0.729626 0.371671 -0.519242
Cl6   Cl    Cl    0.103472 0.851999 0.309290 -0.420439
C50   C     C_3   0.946747 0.857842 0.501072 -0.771763
H35   H     H_    0.910087 0.846883 0.596753 0.224447
H36   H     H_    0.008080 0.916363 0.525392 0.298619
H37   H     H_    0.909524 0.907994 0.423103 0.262354
Cl7   Cl    Cl    0.624339 0.166026 0.276846 -0.679463

loop_
_geom_bond_atom_site_label_1
_geom_bond_atom_site_label_2
_ccdc_geom_bond_type
C47   H26   S    
C19   C20   A    
C27   Cl3   S    
C7    C8    A    
C40   H5    S    
C26   C27   A    
C29   C30   A    
C44   H18   S    
C18   C24   A    
C28   C29   A    
C18   C19   A    
C5    C6    A    
O4    Zn2   S    
C36   C46   S    
C33   O8    A    
C15   C16   A    
C49   H34   S    
C31   N1    A    
C50   H37   S    
C3    C48   S    
C34   C35   A    
C16   Cl1   S    
C41   H9    S    
C28   C45   S    
C26   C44   S    
C17   C41   S    
C14   H1    S    
C1    O2    A    
C35   C36   A    
C9    C50   S    
O8    Zn2   S    
C44   H19   S    
C49   H33   S    
C32   N2    A    
C6    C38   A    
C43   H14   S    
C8    Cl6   S    
C21   Cl7   S    
C39   H4    S    
C2    C34   A    
O7    Zn1   S    
C23   O5    A    
C21   C22   A    
C50   H35   S    
C39   H3    S    
C23   O6    A    
C44   H17   S    
C48   H29   S    
C45   H21   S    
C8    C9    A    
O6    Zn2   S    
C42   H12   S    
C25   C26   A    
C32   C47   S    
C41   H10   S    
C22   C42   S    
C37   C38   A    
C48   H30   S    
C4    Cl4   S    
C2    C38   A    
C31   Cl2   S    
C46   H23   S    
C10   C49   S    
C23   C24   S    
C42   H13   S    
C49   H32   S    
C43   H16   S    
C17   C18   A    
C30   N1    A    
C50   H36   S    
O1    Zn1   S    
C46   H24   S    
C47   H27   S    
C22   C24   A    
C3    C4    A    
N2    Zn1   S    
C39   H2    S    
O3    Zn1   S    
C25   C30   A    
C36   C37   A    
C1    C20   S    
C29   N2    A    
C14   C19   A    
C31   C32   A    
C12   O4    A    
C45   H22   S    
C11   C12   S    
C6    C7    A    
N1    Zn2   S    
O5    Zn1   S    
C34   C39   S    
C40   H7    S    
C15   C40   S    
C13   Cl5   S    
C5    C10   A    
C12   O3    A    
C48   H31   S    
C11   C13   A    
O2    Zn2   S    
C16   C17   A    
C4    C5    A    
C33   C35   S    
C40   H6    S    
C41   H8    S    
C10   C11   A    
C45   H20   S    
C1    O1    A    
C7    C13   A    
C46   H25   S    
C20   C21   A    
C3    C37   A    
C42   H11   S    
C47   H28   S    
C27   C28   A    
C33   O7    A    
C14   C15   A    
C43   H15   S    
C25   C43   S    
C2    C9    A    
