data_mof_unit_27573.cif
_audit_creation_date              2012-10-26T19:18:43-0400
_audit_creation_method            fapswitch 2.2
_symmetry_space_group_name_H-M    P1
_symmetry_Int_Tables_number       1
_space_group_crystal_system       triclinic
_cell_length_a                    9.755892
_cell_length_b                    10.937912
_cell_length_c                    15.578281
_cell_angle_alpha                 89.748356
_cell_angle_beta                  72.429658
_cell_angle_gamma                 91.624224
_cell_volume                      1584.00793361

loop_
_atom_site_label
_atom_site_type_symbol
_atom_type_description
_atom_site_fract_x
_atom_site_fract_y
_atom_site_fract_z
_atom_type_partial_charge
C1    C     C_R   0.997236 0.265824 0.501502 0.610086
C2    C     C_R   0.235461 0.384762 0.053421 0.064626
C3    C     C_R   0.334490 0.421827 0.098974 0.061178
C4    C     C_R   0.915498 0.499830 0.672125 0.556174
C5    C     C_R   0.087509 0.380469 0.098911 -0.117194
C6    C     C_R   0.036418 0.420681 0.187487 -0.097896
C7    C     C_R   0.280592 0.469542 0.185819 -0.069883
C8    C     C_2   0.907920 0.931395 0.477782 -0.143503
C9    C     C_2   0.018312 0.864952 0.481519 -0.047657
C10   C     C_2   0.930053 0.062803 0.460883 -0.042335
C11   C     C_2   0.983786 0.134768 0.515106 0.231354
C12   C     C_R   0.676526 0.450363 0.911094 0.030945
C13   C     C_2   0.390756 0.473989 0.569764 0.050271
C14   C     C_2   0.542313 0.499852 0.572594 0.038700
C15   C     C_R   0.004026 0.734148 0.495841 0.569507
C16   C     C_R   0.084439 0.494461 0.327987 0.566743
C17   C     C_R   0.867306 0.496122 0.770998 -0.001021
C18   C     C_R   0.132932 0.466236 0.231371 0.017876
C19   C     C_R   0.914669 0.529860 0.913779 0.012377
C20   C     C_R   0.960565 0.531798 0.819446 -0.084953
C21   C     C_R   0.726215 0.458382 0.816590 -0.095750
C22   C     C_2   0.896841 0.107404 0.379030 0.221649
C23   C     C_R   0.773576 0.483912 0.960103 0.008912
C24   C     C_2   0.013266 0.583030 0.961473 0.218845
C25   C     C_2   0.567003 0.367264 0.190099 0.253846
C26   C     C_R   0.531246 0.415021 0.958396 0.027252
C27   C     C_R   0.484546 0.419954 0.053770 0.049378
C28   C     C_R   0.590056 0.423585 0.099616 -0.000460
C29   C     C_R   0.729895 0.463614 0.053528 -0.155093
C30   C     C_R   0.430005 0.375868 0.914523 -0.098360
C31   C     C_R   0.285390 0.356302 0.962361 -0.076302
Cu1   Cu    Cu3+1 0.138640 0.500020 0.499980 1.137544
Cu2   Cu    Cu3+1 0.861360 0.499980 0.500020 1.046615
H1    H     H_    0.806313 0.471087 0.091049 0.071480
H2    H     H_    0.210999 0.326489 0.926604 0.135027
H3    H     H_    0.068308 0.565194 0.783265 0.177909
H4    H     H_    0.657096 0.436023 0.776293 0.121886
H5    H     H_    0.458884 0.357752 0.843514 0.112084
H6    H     H_    0.825897 0.052595 0.351578 0.131740
H7    H     H_    0.089700 0.240201 0.674827 0.348828
H8    H     H_    0.413592 0.741297 0.326668 0.349044
H9    H     H_    0.974064 0.607307 0.031802 0.119164
H10   H     H_    0.644691 0.384837 0.226151 0.143002
H11   H     H_    0.011574 0.347017 0.065501 0.113790
H12   H     H_    0.804319 0.889012 0.481063 0.175232
H13   H     H_    0.124011 0.907907 0.470882 0.175347
H14   H     H_    0.313951 0.435568 0.630124 0.079313
H15   H     H_    0.557884 0.519468 0.637170 0.130524
H16   H     H_    0.636740 0.446699 0.449928 0.266854
H17   H     H_    0.353506 0.510699 0.218483 0.171096
H18   H     H_    0.921974 0.414528 0.221901 0.149045
N1    N     N_2   0.346430 0.498660 0.500980 -0.055930
N2    N     N_2   0.652550 0.498630 0.501000 -0.288438
O1    O     O_R   0.117050 0.321960 0.499980 -0.502102
O2    O     O_2   0.901367 0.984232 0.661857 -0.234423
O3    O     O_2   0.158770 0.033980 0.598725 -0.287056
O4    O     O_3   0.992850 0.200265 0.689416 -0.510973
O5    O     O_2   0.520721 0.700460 0.464337 -0.266006
O6    O     O_2   0.555791 0.546055 0.346296 -0.351568
O7    O     O_3   0.344935 0.686982 0.371544 -0.483324
O8    O     O_2   0.140451 0.603561 0.921783 -0.501776
O9    O     O_2   0.467519 0.294277 0.222571 -0.469613
O10   O     O_R   0.882890 0.321920 0.500020 -0.494834
O11   O     O_R   0.052910 0.500040 0.629810 -0.536459
O12   O     O_R   0.818750 0.499990 0.629840 -0.518782
O13   O     O_R   0.117110 0.678080 0.499980 -0.429493
O14   O     O_R   0.882950 0.678040 0.500020 -0.482721
O15   O     O_R   0.181250 0.500010 0.370160 -0.437675
O16   O     O_R   0.947090 0.499960 0.370190 -0.494148
O17   O     O_2   0.952728 0.200824 0.338879 -0.502398
S1    S     S_3+6 0.010322 0.083046 0.617574 0.020826
S2    S     S_3+6 0.446292 0.608051 0.420999 0.112055

loop_
_geom_bond_atom_site_label_1
_geom_bond_atom_site_label_2
_ccdc_geom_bond_type
O2    S1    D    
C8    C9    D    
Cu1   O11   S    
C19   C23   A    
C1    O1    A    
C26   C30   A    
C24   O8    D    
C16   O15   A    
C6    H18   S    
C13   N1    D    
C24   H9    S    
C4    O11   A    
C3    C7    A    
C19   C20   A    
C1    C11   S    
Cu2   O16   S    
O6    S2    D    
Cu1   O15   S    
C7    C18   A    
C15   O14   A    
Cu1   Cu2   S    
O3    S1    D    
C3    C27   A    
C2    C3    A    
C9    C15   S    
Cu2   O12   S    
C9    H13   S    
C16   C18   S    
C13   C14   S    
O4    S1    S    
C25   C28   S    
C14   N2    D    
C12   C23   A    
C25   H10   S    
C26   C27   A    
C5    C6    A    
C12   C21   A    
H16   N2    S    
C4    C17   S    
C23   C29   A    
Cu1   O1    S    
C28   C29   A    
N1    S2    S    
C5    H11   S    
C19   C24   S    
C31   H2    S    
C25   O9    D    
O5    S2    D    
Cu2   N2    S    
C30   C31   A    
C6    C18   A    
C11   S1    S    
Cu2   O10   S    
C2    C5    A    
C10   C11   D    
O7    S2    S    
C20   H3    S    
C1    O10   A    
C10   C22   S    
C17   C20   A    
C21   H4    S    
Cu2   O14   S    
Cu1   O13   S    
C27   C28   A    
C13   H14   S    
C4    O12   A    
Cu1   N1    S    
C14   H15   S    
H7    O4    S    
H8    O7    S    
C30   H5    S    
C8    H12   S    
C15   O13   A    
C22   H6    S    
C29   H1    S    
C22   O17   D    
C8    C10   S    
C17   C21   A    
C16   O16   A    
C7    H17   S    
C12   C26   A    
C2    C31   A    
