data_mof_unit_56987.cif
_audit_creation_date              2013-03-05T16:35:51-0500
_audit_creation_method            fapswitch 2.2
_symmetry_space_group_name_H-M    P1
_symmetry_Int_Tables_number       1
_space_group_crystal_system       triclinic
_cell_length_a                    23.608554
_cell_length_b                    9.084731
_cell_length_c                    7.778127
_cell_angle_alpha                 89.692855
_cell_angle_beta                  90.122597
_cell_angle_gamma                 89.556513
_cell_volume                      1668.15425179

loop_
_atom_site_label
_atom_site_type_symbol
_atom_site_description
_atom_site_fract_x
_atom_site_fract_y
_atom_site_fract_z
_atom_type_partial_charge
O1    O     O_R   0.500000 0.288390 0.642760 -0.576473
O2    O     O_R   0.500000 0.711610 0.357240 -0.586048
O3    O     O_R   0.500000 0.711610 0.642760 -0.573611
O4    O     O_R   0.500000 0.288390 0.357240 -0.583984
C1    C     C_R   0.500047 0.220005 0.500279 0.825046
C2    C     C_R   0.499985 0.779996 0.499716 0.834297
O5    O     O_R   0.417880 0.500000 0.642820 -0.521509
O6    O     O_R   0.582120 0.500000 0.357180 -0.574751
O7    O     O_R   0.582120 0.500000 0.642820 -0.532028
O8    O     O_R   0.417880 0.500000 0.357180 -0.575116
C3    C     C_R   0.208285 0.505433 0.489107 0.168675
C4    C     C_R   0.790641 0.480893 0.494410 0.098355
C5    C     C_R   0.390550 0.504012 0.499756 0.879783
C6    C     C_R   0.609252 0.496415 0.500237 0.887018
Cu1   Cu    Cu3+1 0.500000 0.500000 0.669080 1.081415
Cu2   Cu    Cu3+1 0.500000 0.500000 0.330920 1.049232
C7    C     C_R   0.297959 0.564814 0.351945 0.205609
C8    C     C_R   0.700632 0.401659 0.375579 0.208971
C9    C     C_R   0.297074 0.459254 0.642308 0.247335
C10   C     C_R   0.702490 0.564692 0.626137 0.353076
C11   C     C_R   0.327705 0.511638 0.498903 -0.268578
C12   C     C_R   0.671708 0.486674 0.500887 -0.297463
C13   C     C_R   0.877683 0.601107 0.416899 0.593378
C14   C     C_R   0.120543 0.370638 0.520626 0.648160
C15   C     C_R   0.880963 0.362313 0.545932 0.633418
C16   C     C_R   0.116772 0.624694 0.444393 0.669014
N1    N     N_R   0.851427 0.481139 0.485043 -0.439624
N2    N     N_R   0.147104 0.500295 0.484157 -0.415091
C17   C     C_R   0.940735 0.360873 0.542949 -0.069854
C18   C     C_R   0.057433 0.618965 0.425258 -0.078093
C19   C     C_R   0.937492 0.608402 0.412669 -0.079022
C20   C     C_R   0.060860 0.365273 0.533721 -0.086862
C21   C     C_R   0.969085 0.486351 0.477785 -0.080943
C22   C     C_R   0.029081 0.489981 0.478512 -0.088032
C23   C     C_R   0.972653 0.239421 0.606149 0.181093
C24   C     C_R   0.026136 0.737808 0.354203 0.179042
C25   C     C_R   0.966821 0.732448 0.345907 0.087588
C26   C     C_R   0.032065 0.240991 0.601158 0.089886
C27   C     C_1   0.500041 0.065383 0.500379 -0.143246
C28   C     C_1   0.500017 0.934620 0.499600 -0.141543
C29   C     C_R   0.238554 0.551801 0.343366 0.382255
C30   C     C_R   0.760229 0.404233 0.369056 0.444102
C31   C     C_R   0.237122 0.466487 0.641186 0.294671
C32   C     C_R   0.762241 0.559158 0.625812 0.297157
N3    N     N_1   0.500000 0.500000 0.076820 -0.017924
N4    N     N_1   0.500000 0.500000 0.923180 -0.014802
O9    O     O_2   0.845292 0.712433 0.355574 -0.514589
O10   O     O_2   0.152253 0.247878 0.542154 -0.510980
O11   O     O_2   0.852017 0.246907 0.609847 -0.466280
O12   O     O_2   0.144142 0.753666 0.426114 -0.466101
N5    N     N_3   0.944920 0.113080 0.677969 -0.490966
H1    H     H_    0.957660 0.100888 0.806143 0.247448
H2    H     H_    0.957890 0.019605 0.610346 0.231056
N6    N     N_3   0.054707 0.862269 0.280938 -0.491368
H3    H     H_    0.044982 0.867752 0.149816 0.245527
H4    H     H_    0.039298 0.957994 0.338930 0.233330
N7    N     N_3   0.938206 0.855528 0.266904 -0.587203
H5    H     H_    0.912394 0.907976 0.357086 0.285294
H6    H     H_    0.914640 0.819320 0.161583 0.280516
N8    N     N_3   0.061525 0.117533 0.676606 -0.588649
H7    H     H_    0.088784 0.154562 0.772971 0.280565
H8    H     H_    0.083987 0.060816 0.582026 0.288513
O13   O     O_3   0.208268 0.587598 0.196302 -0.677355
H9    H     H_    0.233908 0.627568 0.107468 0.379788
O14   O     O_3   0.790716 0.330246 0.244246 -0.668238
H10   H     H_    0.764610 0.285603 0.159924 0.387693
O15   O     O_3   0.205201 0.436551 0.785779 -0.682377
H11   H     H_    0.229121 0.446966 0.889374 0.354639
O16   O     O_3   0.791359 0.632468 0.753691 -0.691147
H12   H     H_    0.832227 0.608314 0.748310 0.342201
O17   O     O_3   0.325625 0.629668 0.215369 -0.686260
H13   H     H_    0.355794 0.693107 0.262624 0.339267
O18   O     O_3   0.672181 0.313498 0.260318 -0.691231
H14   H     H_    0.637417 0.276080 0.315920 0.336096
O19   O     O_3   0.326436 0.397848 0.779181 -0.672476
H15   H     H_    0.302998 0.319632 0.831635 0.344989
O20   O     O_3   0.672759 0.647117 0.745602 -0.675458
H16   H     H_    0.699186 0.698319 0.823500 0.389777

loop_
_geom_bond_atom_site_label_1
_geom_bond_atom_site_label_2
_geom_bond_distance
_ccdc_geom_bond_type
O18   H14   0.990185 S    
O7    C6    1.282342 A    
O3    C2    1.271407 A    
O20   H16   0.989255 S    
C10   O20   1.385265 S    
O1    C1    1.273392 A    
C24   C25   1.402918 A    
C9    C11   1.413052 A    
C8    C30   1.408381 A    
N7    H6    1.045269 S    
Cu1   Cu2   2.630252 S    
C17   C21   1.418227 A    
N8    H8    1.043742 S    
C4    C30   1.401146 A    
C30   O14   1.383748 S    
C19   C21   1.421917 A    
C3    C31   1.405782 A    
O1    Cu1   1.934382 S    
C20   C26   1.420961 A    
O2    Cu2   1.934381 S    
O5    Cu1   1.949032 S    
O6    Cu2   1.949030 S    
O2    C2    1.273359 A    
C10   C32   1.411142 A    
C9    C31   1.416405 A    
C15   O11   1.349188 S    
C15   C17   1.411343 A    
N6    H4    1.045032 S    
C13   O9    1.347754 S    
C18   C22   1.414501 A    
C4    N1    1.437099 S    
N5    H1    1.045791 S    
C14   O10   1.347890 S    
C23   C26   1.403442 A    
C27   C28   1.187998 T    
N3    N4    1.195032 T    
C7    C11   1.420741 A    
O15   H11   0.988353 S    
N8    H7    1.045519 S    
N5    H2    1.045475 S    
C13   C19   1.414534 A    
O4    Cu2   1.932199 S    
O19   H15   0.990696 S    
C14   C20   1.414119 A    
C21   C22   1.417046 A    
C5    C11   1.484743 S    
C32   O16   1.384458 S    
C26   N8    1.437073 S    
C10   C12   1.411349 A    
C7    O17   1.380015 S    
C8    O18   1.381968 S    
C13   N1    1.363327 A    
C1    C27   1.404697 S    
C23   N5    1.436818 S    
C2    C28   1.404719 S    
C29   O13   1.383613 S    
O3    Cu1   1.932198 S    
N6    H3    1.045771 S    
O6    C6    1.282864 A    
C8    C12   1.419690 A    
C14   N2    1.367379 A    
O4    C1    1.271361 A    
O8    C5    1.284758 A    
Cu2   N3    1.976421 S    
C16   C18   1.409871 A    
C15   N1    1.362829 A    
C17   C23   1.416534 A    
C16   N2    1.366904 A    
C18   C24   1.412991 A    
C6    C12   1.476466 S    
C16   O12   1.349411 S    
O7    Cu1   1.949899 S    
O17   H13   0.990983 S    
C4    C32   1.415291 A    
O8    Cu2   1.949901 S    
N7    H5    1.044662 S    
C3    N2    1.445938 S    
C9    O19   1.381889 S    
C3    C29   1.405767 A    
O16   H12   0.988844 S    
C7    C29   1.409822 A    
C24   N6    1.436919 S    
O13   H9    0.989028 S    
C19   C25   1.423511 A    
O5    C5    1.285316 A    
C31   O15   1.382131 S    
O14   H10   0.989689 S    
Cu1   N4    1.976421 S    
C25   N7    1.436468 S    
C20   C22   1.418131 A    
