data_mof_unit_33408.cif
_audit_creation_date              2012-12-10T18:05:57-0500
_audit_creation_method            fapswitch 2.2
_symmetry_space_group_name_H-M    P1
_symmetry_Int_Tables_number       1
_space_group_crystal_system       triclinic
_cell_length_a                    12.583311
_cell_length_b                    13.118768
_cell_length_c                    15.021891
_cell_angle_alpha                 90.52631
_cell_angle_beta                  102.602644
_cell_angle_gamma                 82.309355
_cell_volume                      2397.74918969

loop_
_atom_site_label
_atom_site_type_symbol
_atom_type_description
_atom_site_fract_x
_atom_site_fract_y
_atom_site_fract_z
_atom_type_partial_charge
C1    C     C_R   0.438750 0.691224 0.485426 0.854566
C2    C     C_R   0.594537 0.516040 0.832588 -0.245330
C3    C     C_R   0.498489 0.506243 0.768798 -0.087372
C4    C     C_R   0.499987 0.501570 0.673018 0.891766
C5    C     C_R   0.399989 0.501210 0.795755 -0.235850
C6    C     C_R   0.705891 0.064135 0.437943 -0.185851
C7    C     C_R   0.596950 0.199880 0.500716 -0.048785
C8    C     C_R   0.298242 0.839276 0.492993 -0.185451
C9    C     C_R   0.268735 0.944552 0.498007 -0.141440
C10   C     C_R   0.342987 0.011393 0.489203 -0.185118
C11   C     C_R   0.446908 0.973481 0.470790 0.085696
C12   C     C_R   0.396203 0.498640 0.074017 0.013575
C13   C     C_R   0.468141 0.868978 0.450692 0.064165
C14   C     C_R   0.530494 0.035741 0.472113 0.063447
C15   C     C_R   0.625431 0.998838 0.438179 0.111866
C16   C     C_R   0.561155 0.308622 0.509191 0.865851
C17   C     C_R   0.636328 0.898463 0.404607 -0.036264
C18   C     C_R   0.558038 0.834874 0.410815 -0.239617
C19   C     C_R   0.522987 0.133261 0.509143 -0.241246
C20   C     C_R   0.690485 0.164958 0.467432 -0.204088
C21   C     C_R   0.399368 0.800847 0.472345 -0.102103
C22   C     C_R   0.087408 0.346993 0.372988 -0.298532
C23   C     C_R   0.690381 0.524891 0.082552 -0.253838
C24   C     C_R   0.800026 0.629611 0.608589 0.026514
C25   C     C_R   0.905067 0.657480 0.631292 -0.236740
C26   C     C_R   0.986514 0.608327 0.590301 -0.194277
C27   C     C_R   0.962940 0.530393 0.526143 0.023117
C28   C     C_R   0.499361 0.500017 0.326883 0.869852
C29   C     C_R   0.854650 0.504383 0.505932 0.241543
C30   C     C_R   0.041918 0.477397 0.481442 -0.010967
C31   C     C_R   0.011063 0.399869 0.417893 0.195537
C32   C     C_R   0.904486 0.375458 0.399978 -0.298778
C33   C     C_R   0.827757 0.426771 0.443686 -0.223360
C34   C     C_R   0.691901 0.526662 0.990546 -0.006742
C35   C     C_R   0.151018 0.497796 0.497001 -0.051101
C36   C     C_R   0.193788 0.370934 0.391467 0.012268
C37   C     C_R   0.399729 0.495462 0.167495 -0.228117
C38   C     C_R   0.497744 0.501865 0.230629 -0.075491
C39   C     C_R   0.594067 0.511733 0.202053 -0.244671
C40   C     C_R   0.593200 0.515002 0.110048 0.119511
C41   C     C_R   0.494386 0.508139 0.045405 0.044405
C42   C     C_1   0.728336 0.857155 0.365932 0.155346
C43   C     C_1   0.794660 0.537400 0.965585 0.160392
C44   C     C_3   0.189947 0.491097 0.844516 -0.893374
C45   C     C_R   0.594446 0.517979 0.925065 0.079468
C46   C     C_1   0.197188 0.482125 0.039823 0.166916
C47   C     C_R   0.494692 0.509791 0.952722 0.005196
C48   C     C_R   0.395971 0.502506 0.887666 0.084960
C49   C     C_R   0.296139 0.495567 0.915366 0.137976
C50   C     C_R   0.297196 0.492606 0.009393 -0.017197
H1    H     H_    0.326147 0.488629 0.191928 0.174781
H2    H     H_    0.065081 0.287719 0.324405 0.149462
H3    H     H_    0.670225 0.516643 0.251374 0.170052
H4    H     H_    0.182295 0.554726 0.543979 0.122180
H5    H     H_    0.736240 0.667667 0.640009 0.141586
H6    H     H_    0.066529 0.632888 0.610221 0.131905
H7    H     H_    0.923317 0.717083 0.680402 0.154549
H8    H     H_    0.747853 0.403662 0.427566 0.211417
H9    H     H_    0.765439 0.530839 0.133018 0.160664
H10   H     H_    0.669660 0.520698 0.809763 0.172191
H11   H     H_    0.326639 0.495400 0.744004 0.175645
H12   H     H_    0.778728 0.039100 0.412047 0.148307
H13   H     H_    0.748737 0.216395 0.460395 0.150605
H14   H     H_    0.198330 0.421080 0.803157 0.238944
H15   H     H_    0.116762 0.488540 0.873660 0.261337
H16   H     H_    0.171859 0.560566 0.799227 0.233253
H17   H     H_    0.457428 0.160983 0.542703 0.149306
H18   H     H_    0.243414 0.787902 0.507800 0.153894
H19   H     H_    0.315928 0.092326 0.494802 0.134078
H20   H     H_    0.190008 0.974261 0.512679 0.145033
H21   H     H_    0.567340 0.758512 0.383036 0.177650
H22   H     H_    0.254303 0.330719 0.357752 0.138247
H23   H     H_    0.880220 0.316088 0.352031 0.156221
N1    N     N_R   0.222190 0.444670 0.452360 -0.103739
N2    N     N_R   0.776970 0.554790 0.547140 -0.133182
N3    N     N_1   0.801950 0.823870 0.335057 -0.203067
N4    N     N_1   0.876700 0.546117 0.945413 -0.194177
N5    N     N_1   0.117764 0.473633 0.064423 -0.192735
O1    O     O_R   0.366740 0.627160 0.477250 -0.614486
O2    O     O_R   0.544830 0.662520 0.507680 -0.618731
O3    O     O_R   0.410940 0.482340 0.616930 -0.628486
O4    O     O_R   0.589030 0.517700 0.647360 -0.621629
O5    O     O_R   0.455170 0.337480 0.492320 -0.615947
O6    O     O_R   0.633260 0.372840 0.522750 -0.633777
O7    O     O_R   0.410970 0.482300 0.352640 -0.619555
O8    O     O_R   0.589060 0.517660 0.383070 -0.648980
Zn1   Zn    Zn3+2 0.381090 0.476390 0.479680 0.942613
Zn2   Zn    Zn3+2 0.618910 0.523610 0.520320 0.932337

loop_
_geom_bond_atom_site_label_1
_geom_bond_atom_site_label_2
_ccdc_geom_bond_type
C44   C49   S    
O5    Zn1   S    
C35   N1    A    
C1    C21   S    
C33   H8    S    
C27   C29   A    
C44   H16   S    
O1    Zn1   S    
C44   H14   S    
C24   H5    S    
C23   H9    S    
C26   C27   A    
C12   C41   A    
C13   C18   A    
C30   C31   A    
C37   H1    S    
C11   C14   A    
C2    H10   S    
C23   C40   A    
C29   C33   A    
C16   O6    A    
C12   C37   A    
C49   C50   A    
C17   C42   S    
C6    C15   A    
C4    O3    A    
C47   C48   A    
C8    C9    A    
C19   H17   S    
N1    Zn1   S    
C9    C10   A    
C45   C47   A    
C35   H4    S    
C44   H15   S    
C25   H7    S    
C8    C21   A    
O7    Zn1   S    
C2    C45   A    
C38   C39   A    
C5    C48   A    
C22   C31   A    
C13   C21   A    
C24   C25   A    
C39   C40   A    
C46   N5    T    
C25   C26   A    
C16   O5    A    
C37   C38   A    
C31   C32   A    
C28   C38   S    
C23   C34   A    
C17   C18   A    
C41   C47   A    
C5    H11   S    
C34   C45   A    
C9    H20   S    
O3    Zn1   S    
C36   N1    A    
C30   C35   A    
C48   C49   A    
C8    H18   S    
C7    C19   A    
C28   O8    A    
C1    O1    A    
C3    C4    S    
C32   H23   S    
C6    C20   A    
C22   H2    S    
C18   H21   S    
C15   C17   A    
C7    C16   S    
C14   C19   A    
C34   C43   S    
O6    Zn2   S    
C3    C5    A    
C26   H6    S    
C12   C50   A    
C24   N2    A    
C29   N2    A    
C43   N4    T    
C22   C36   A    
C46   C50   S    
C42   N3    T    
C32   C33   A    
C6    H12   S    
C20   H13   S    
C2    C3    A    
O2    Zn2   S    
C11   C13   A    
C39   H3    S    
O4    Zn2   S    
O8    Zn2   S    
C10   C11   A    
C10   H19   S    
N2    Zn2   S    
C4    O4    A    
C7    C20   A    
C28   O7    A    
C1    O2    A    
C14   C15   A    
C40   C41   A    
C36   H22   S    
C27   C30   A    
