data_mof_unit_32664.cif
_audit_creation_date              2012-12-10T17:31:04-0500
_audit_creation_method            fapswitch 2.2
_symmetry_space_group_name_H-M    P1
_symmetry_Int_Tables_number       1
_space_group_crystal_system       triclinic
_cell_length_a                    12.031548
_cell_length_b                    12.791905
_cell_length_c                    15.426476
_cell_angle_alpha                 85.800504
_cell_angle_beta                  116.627707
_cell_angle_gamma                 94.583597
_cell_volume                      2113.76328584

loop_
_atom_site_label
_atom_site_type_symbol
_atom_type_description
_atom_site_fract_x
_atom_site_fract_y
_atom_site_fract_z
_atom_type_partial_charge
C1    C     C_R   0.476228 0.299722 0.498862 0.889966
C2    C     C_R   0.639557 0.955210 0.609829 -0.209425
C3    C     C_R   0.363295 0.148678 0.409262 -0.277330
C4    C     C_R   0.636705 0.851322 0.590733 -0.277340
C5    C     C_R   0.544160 0.124177 0.566083 0.139545
C6    C     C_R   0.455834 0.875820 0.433914 0.139544
C7    C     C_R   0.546231 0.019956 0.544698 0.127554
C8    C     C_R   0.453765 0.980042 0.455298 0.127544
C9    C     C_R   0.002986 0.600829 0.408883 -0.350045
C10   C     C_R   0.997022 0.399184 0.591130 -0.350040
C11   C     C_R   0.123706 0.591118 0.418201 0.021485
C12   C     C_R   0.523771 0.700278 0.501138 0.889967
C13   C     C_R   0.876299 0.408889 0.581807 0.021456
C14   C     C_R   0.161004 0.456339 0.540184 -0.054898
C15   C     C_R   0.838998 0.543664 0.459818 -0.054888
C16   C     C_R   0.578502 0.496679 0.681271 0.886696
C17   C     C_R   0.421497 0.503323 0.318727 0.886686
C18   C     C_R   0.040033 0.463376 0.533338 0.095673
C19   C     C_R   0.959971 0.536632 0.466669 0.095772
C20   C     C_R   0.631838 0.497080 0.787730 -0.105852
C21   C     C_R   0.368159 0.502941 0.212266 -0.105857
C22   C     C_R   0.780339 0.443404 0.950744 -0.215598
C23   C     C_R   0.639374 0.477612 0.116876 -0.253781
C24   C     C_R   0.219625 0.556601 0.049257 -0.215605
C25   C     C_R   0.744925 0.450269 0.850856 0.162469
C26   C     C_R   0.255051 0.549725 0.149147 0.162462
C27   C     C_R   0.563330 0.541863 0.827438 0.092995
C28   C     C_R   0.436676 0.458196 0.172546 0.092988
C29   C     C_R   0.581341 0.508045 0.921331 0.049459
C30   C     C_R   0.418657 0.492047 0.078657 0.049415
C31   C     C_R   0.698517 0.470014 0.987138 0.042599
C32   C     C_R   0.301478 0.530083 0.012859 0.042748
C33   C     C_R   0.485656 0.509506 0.950706 0.037857
C34   C     C_R   0.360629 0.522538 0.883117 -0.253879
C35   C     C_R   0.514342 0.490610 0.049282 0.037812
C36   C     C_3   0.859553 0.438334 0.164687 -0.430694
C37   C     C_3   0.874240 0.320494 0.185302 -0.847114
C38   C     C_3   0.140507 0.562029 0.835328 -0.430660
C39   C     C_3   0.125859 0.679913 0.815135 -0.847225
C40   C     C_3   0.504048 0.358608 0.220454 -0.879017
C41   C     C_3   0.495995 0.641462 0.779515 -0.879022
C42   C     C_3   0.169073 0.589846 0.184778 -0.912940
C43   C     C_3   0.830898 0.410114 0.815236 -0.912866
C44   C     C_3   0.367611 0.833527 0.335667 -0.949623
C45   C     C_R   0.730160 0.461227 0.087179 0.167203
C46   C     C_3   0.632383 0.166470 0.664329 -0.949651
C47   C     C_R   0.269853 0.538949 0.912821 0.167198
C48   C     C_R   0.542902 0.811536 0.505652 -0.038552
C49   C     C_R   0.457096 0.188464 0.494344 -0.038557
C50   C     C_R   0.360441 0.044789 0.390167 -0.209424
H1    H     H_    0.844197 0.358951 0.626556 0.133760
H2    H     H_    0.296104 0.199643 0.355047 0.156146
H3    H     H_    0.286585 0.017148 0.322857 0.165696
H4    H     H_    0.713414 0.982852 0.677138 0.165698
H5    H     H_    0.776721 0.599874 0.408832 0.128396
H6    H     H_    0.223280 0.400127 0.591169 0.128410
H7    H     H_    0.807052 0.286375 0.212235 0.263626
H8    H     H_    0.857891 0.280749 0.118680 0.255398
H9    H     H_    0.970146 0.306150 0.241765 0.250912
H10   H     H_    0.931034 0.473725 0.143335 0.201529
H11   H     H_    0.878466 0.475349 0.233289 0.213700
H12   H     H_    0.155808 0.641059 0.373453 0.133749
H13   H     H_    0.142132 0.719335 0.881891 0.255386
H14   H     H_    0.193126 0.714277 0.788373 0.263640
H15   H     H_    0.029989 0.694385 0.758671 0.250897
H16   H     H_    0.121654 0.525381 0.766581 0.213738
H17   H     H_    0.068974 0.526415 0.856519 0.201523
H18   H     H_    0.518481 0.313313 0.167928 0.243157
H19   H     H_    0.595660 0.375674 0.282737 0.258885
H20   H     H_    0.446551 0.306440 0.247155 0.230736
H21   H     H_    0.404388 0.624408 0.717223 0.258903
H22   H     H_    0.481561 0.686777 0.832029 0.243153
H23   H     H_    0.943776 0.658008 0.356720 0.146951
H24   H     H_    0.553518 0.693607 0.752823 0.230727
H25   H     H_    0.138920 0.525031 0.222510 0.253674
H26   H     H_    0.217003 0.653858 0.235044 0.246583
H27   H     H_    0.084066 0.621514 0.124456 0.226349
H28   H     H_    0.861093 0.474920 0.777522 0.253619
H29   H     H_    0.915885 0.378419 0.875560 0.226368
H30   H     H_    0.782948 0.346116 0.764957 0.246570
H31   H     H_    0.393728 0.756234 0.324598 0.232696
H32   H     H_    0.271105 0.825984 0.328051 0.240299
H33   H     H_    0.371403 0.886958 0.276885 0.242500
H34   H     H_    0.056235 0.342009 0.643296 0.147007
H35   H     H_    0.606256 0.243757 0.675400 0.232692
H36   H     H_    0.628594 0.113038 0.723111 0.242504
H37   H     H_    0.728886 0.174020 0.671944 0.240311
H38   H     H_    0.868694 0.411028 0.998492 0.163612
H39   H     H_    0.131224 0.588896 0.001514 0.163659
H40   H     H_    0.667784 0.479319 0.193789 0.169559
H41   H     H_    0.332223 0.520864 0.806204 0.169517
H42   H     H_    0.703898 0.800359 0.644946 0.156146
N1    N     N_R   0.799120 0.480200 0.517090 -0.094764
N2    N     N_R   0.200880 0.519800 0.482910 -0.094761
O1    O     O_R   0.580150 0.341050 0.504560 -0.604760
O2    O     O_R   0.419850 0.658950 0.495440 -0.604767
O3    O     O_R   0.388090 0.353760 0.493600 -0.619863
O4    O     O_R   0.611910 0.646240 0.506400 -0.619858
O5    O     O_R   0.650890 0.490020 0.640860 -0.613634
O6    O     O_R   0.349110 0.509980 0.359140 -0.613639
O7    O     O_R   0.458830 0.502730 0.629890 -0.609811
O8    O     O_R   0.541170 0.497270 0.370110 -0.609804
Zn1   Zn    Zn3+2 0.628240 0.491510 0.507320 0.930039
Zn2   Zn    Zn3+2 0.371760 0.508490 0.492680 0.930026

loop_
_geom_bond_atom_site_label_1
_geom_bond_atom_site_label_2
_ccdc_geom_bond_type
C14   H6    S    
C21   C26   A    
C23   C45   A    
C27   C29   A    
C14   C18   A    
O5    Zn1   S    
C2    C7    A    
C12   C48   S    
C11   H12   S    
C24   H39   S    
C25   C43   S    
C3    C49   A    
C7    C8    A    
C43   H28   S    
C15   C19   A    
C39   H14   S    
C42   H25   S    
C40   H20   S    
C30   C35   A    
C36   C37   S    
C24   C26   A    
C44   H32   S    
C38   C39   S    
C20   C25   A    
C28   C40   S    
C43   H29   S    
O4    Zn1   S    
C29   C33   A    
O6    Zn2   S    
C18   C19   A    
C34   H41   S    
C40   H19   S    
C41   H24   S    
C13   H1    S    
C9    C19   A    
C38   H16   S    
C22   C25   A    
C22   H38   S    
C12   O4    A    
C37   H8    S    
C16   C20   S    
C41   H21   S    
C46   H35   S    
C44   H33   S    
N2    Zn2   S    
C6    C44   S    
C39   H15   S    
C5    C49   A    
C9    H23   S    
C3    C50   A    
O1    Zn1   S    
C50   H3    S    
C22   C31   A    
C44   H31   S    
C2    H4    S    
C1    O3    A    
C5    C7    A    
C6    C8    A    
C43   H30   S    
C17   C21   S    
C13   N1    A    
C15   H5    S    
C2    C4    A    
C17   O8    A    
C24   C32   A    
C27   C41   S    
C1    O1    A    
C33   C34   A    
C23   H40   S    
C36   C45   S    
C9    C11   A    
C38   C47   S    
C37   H9    S    
C6    C48   A    
C41   H22   S    
C11   N2    A    
C21   C28   A    
O7    Zn2   S    
C23   C35   A    
O2    Zn2   S    
C40   H18   S    
C32   C47   A    
C36   H11   S    
C8    C50   A    
C26   C42   S    
C46   H37   S    
C4    C48   A    
C36   H10   S    
C10   C13   A    
C15   N1    A    
C3    H2    S    
C16   O5    A    
C20   C27   A    
C39   H13   S    
C5    C46   S    
C42   H26   S    
C28   C30   A    
C29   C31   A    
C30   C32   A    
C10   C18   A    
C10   H34   S    
C33   C35   A    
O8    Zn1   S    
C17   O6    A    
O3    Zn2   S    
C16   O7    A    
C38   H17   S    
C42   H27   S    
C31   C45   A    
C12   O2    A    
C34   C47   A    
C46   H36   S    
C1    C49   S    
C14   N2    A    
C37   H7    S    
N1    Zn1   S    
C4    H42   S    
