data_mof_unit_18381.cif
_audit_creation_date              2012-10-26T19:36:39-0400
_audit_creation_method            fapswitch 2.2
_symmetry_space_group_name_H-M    P1
_symmetry_Int_Tables_number       1
_space_group_crystal_system       triclinic
_cell_length_a                    17.741441
_cell_length_b                    16.44505
_cell_length_c                    10.882058
_cell_angle_alpha                 89.662026
_cell_angle_beta                  88.818214
_cell_angle_gamma                 89.37322
_cell_volume                      3174.02072603

loop_
_atom_site_label
_atom_site_type_symbol
_atom_type_description
_atom_site_fract_x
_atom_site_fract_y
_atom_site_fract_z
_atom_type_partial_charge
C1    C     C_R   0.355508 0.500409 0.498680 0.558870
C2    C     C_1   0.035320 0.506716 0.529387 0.057630
C3    C     C_R   0.156166 0.571628 0.568649 0.238104
C4    C     C_R   0.153609 0.437056 0.473082 0.230552
C5    C     C_R   0.235593 0.568216 0.560709 -0.181610
C6    C     C_R   0.232015 0.436555 0.462340 -0.128699
C7    C     C_R   0.273124 0.501576 0.506927 -0.091045
C8    C     C_R   0.503197 0.500467 0.259277 0.600902
C9    C     C_R   0.115986 0.504971 0.524617 0.050039
C10   C     C_R   0.521548 0.827790 0.606227 0.240552
C11   C     C_R   0.565891 0.169172 0.522443 0.238376
C12   C     C_3   0.566220 0.548539 0.920459 -0.215794
C13   C     C_R   0.521435 0.741963 0.602404 0.057456
C14   C     C_R   0.564993 0.255316 0.518004 0.022572
C15   C     C_R   0.477400 0.744370 0.399198 0.005266
C16   C     C_R   0.434138 0.257276 0.486458 0.007878
C17   C     C_R   0.476777 0.830069 0.398636 -0.202951
C18   C     C_R   0.432587 0.171632 0.487366 -0.204017
C19   C     C_R   0.498654 0.873004 0.502878 0.024156
C20   C     C_R   0.498956 0.126371 0.503909 0.033615
C21   C     C_1   0.497945 0.962483 0.503183 0.011316
C22   C     C_1   0.498046 0.036913 0.503550 0.014505
C23   C     C_R   0.845256 0.575044 0.547359 -0.117973
C24   C     C_R   0.645276 0.499766 0.502636 0.536802
C25   C     C_R   0.498606 0.499333 0.740579 0.551766
C26   C     C_3   0.437160 0.558156 0.076026 0.197843
C27   C     C_3   0.491165 0.411957 0.073439 0.185096
C28   C     C_3   0.422140 0.541344 0.934108 0.259882
C29   C     C_3   0.511072 0.406236 0.932247 0.297857
C30   C     C_3   0.580607 0.539150 0.061871 0.192008
C31   C     C_3   0.503997 0.501931 0.120839 0.046711
C32   C     C_3   0.497811 0.497372 0.878416 0.034873
C33   C     C_3   0.616549 0.881099 0.718942 0.009187
C34   C     C_R   0.852382 0.431939 0.501923 -0.096615
C35   C     C_3   0.654604 0.817837 0.801557 -0.279500
C36   C     C_3   0.737909 0.836324 0.817252 -0.495468
C37   C     C_3   0.652262 0.130031 0.662878 -0.007061
C38   C     C_3   0.726707 0.084219 0.680216 -0.254888
C39   C     C_3   0.749377 0.083630 0.814713 -0.495506
C40   C     C_3   0.323058 0.616621 0.145941 -0.005095
C41   C     C_3   0.258413 0.607490 0.239099 -0.253903
C42   C     C_3   0.196619 0.671204 0.219507 -0.494853
C43   C     C_3   0.401096 0.326921 0.178837 0.036608
C44   C     C_3   0.330772 0.281519 0.140000 -0.268149
C45   C     C_R   0.766864 0.574265 0.537555 0.099357
C46   C     C_3   0.310713 0.213025 0.229469 -0.493219
C47   C     C_3   0.316786 0.478536 0.810567 -0.344146
C48   C     C_3   0.478315 0.259114 0.894992 -0.291423
C49   C     C_3   0.420322 0.700594 0.903841 -0.333038
C50   C     C_3   0.628321 0.369781 0.799752 -0.255477
C51   C     C_3   0.664097 0.661761 0.063125 -0.334857
C52   C     C_3   0.672575 0.467103 0.200193 -0.308075
C53   C     C_3   0.721829 0.701128 0.453155 -0.284400
C54   C     C_3   0.779361 0.276814 0.477402 -0.337347
C55   C     C_3   0.151569 0.710829 0.622158 0.010638
C56   C     C_R   0.773560 0.428004 0.492287 0.103644
C57   C     C_3   0.189349 0.726889 0.745267 -0.266234
C58   C     C_3   0.241737 0.799712 0.736486 -0.485491
C59   C     C_3   0.097840 0.315432 0.518998 0.011516
C60   C     C_3   0.157731 0.247534 0.517832 -0.268866
C61   C     C_3   0.137548 0.180137 0.609241 -0.487922
C62   C     C_R   0.729388 0.500421 0.509555 0.023086
C63   C     C_R   0.887435 0.504600 0.528470 -0.028829
C64   C     C_1   0.967790 0.506815 0.530792 -0.014452
Cu1   Cu    Cu3+1 0.499980 0.580420 0.499990 0.918025
Cu2   Cu    Cu3+1 0.499980 0.419580 0.499990 0.901840
H1    H     H_    0.458174 0.620510 0.089208 0.115681
H2    H     H_    0.379538 0.140975 0.475356 0.099352
H3    H     H_    0.555673 0.612781 0.895895 0.134032
H4    H     H_    0.618048 0.534426 0.866024 0.113170
H5    H     H_    0.873356 0.631419 0.568109 0.122229
H6    H     H_    0.887753 0.378842 0.486318 0.119524
H7    H     H_    0.623663 0.941991 0.760363 0.157386
H8    H     H_    0.645458 0.883150 0.626695 0.118380
H9    H     H_    0.625867 0.817279 0.893311 0.171968
H10   H     H_    0.649888 0.756500 0.760814 0.147351
H11   H     H_    0.767744 0.837029 0.726446 0.143783
H12   H     H_    0.529977 0.370277 0.123292 0.096431
H13   H     H_    0.764020 0.788616 0.875732 0.140890
H14   H     H_    0.744460 0.896174 0.862357 0.149569
H15   H     H_    0.607701 0.100824 0.721283 0.135207
H16   H     H_    0.659826 0.193954 0.693144 0.109843
H17   H     H_    0.721269 0.020596 0.648134 0.162200
H18   H     H_    0.771821 0.113721 0.624042 0.158971
H19   H     H_    0.757109 0.146789 0.847482 0.145927
H20   H     H_    0.803354 0.049614 0.824354 0.142223
H21   H     H_    0.705488 0.053518 0.872675 0.140091
H22   H     H_    0.298973 0.620805 0.052596 0.158843
H23   H     H_    0.269249 0.616348 0.597407 0.123490
H24   H     H_    0.352714 0.673887 0.167983 0.108300
H25   H     H_    0.233890 0.545783 0.232525 0.187409
H26   H     H_    0.281223 0.615910 0.331919 0.182458
H27   H     H_    0.171464 0.663776 0.127661 0.149740
H28   H     H_    0.219962 0.733365 0.226722 0.138180
H29   H     H_    0.151621 0.663713 0.291034 0.157880
H30   H     H_    0.388958 0.353465 0.270547 0.192593
H31   H     H_    0.448858 0.282888 0.185752 0.106193
H32   H     H_    0.282385 0.324925 0.135520 0.180999
H33   H     H_    0.340413 0.255521 0.046989 0.161693
H34   H     H_    0.260669 0.385670 0.418327 0.129073
H35   H     H_    0.358420 0.169036 0.236204 0.148719
H36   H     H_    0.260669 0.180399 0.196271 0.147867
H37   H     H_    0.296822 0.238088 0.321720 0.131335
H38   H     H_    0.318840 0.483260 0.996954 0.316746
H39   H     H_    0.281498 0.423194 0.815343 0.131320
H40   H     H_    0.356529 0.471183 0.732764 0.179802
H41   H     H_    0.278759 0.531590 0.796829 0.139667
H42   H     H_    0.406807 0.357573 0.870097 0.290908
H43   H     H_    0.430056 0.222708 0.863571 0.120914
H44   H     H_    0.486985 0.246144 0.993504 0.129730
H45   H     H_    0.538071 0.708285 0.682872 0.141297
H46   H     H_    0.528694 0.238177 0.842122 0.136310
H47   H     H_    0.381950 0.613764 0.780451 0.273745
H48   H     H_    0.417119 0.741711 0.822741 0.161372
H49   H     H_    0.477160 0.707756 0.941595 0.145442
H50   H     H_    0.376939 0.722089 0.970678 0.121826
H51   H     H_    0.606019 0.332399 0.977054 0.235753
H52   H     H_    0.596990 0.328340 0.740635 0.172858
H53   H     H_    0.685531 0.343274 0.812308 0.107351
H54   H     H_    0.636277 0.428599 0.752259 0.161005
H55   H     H_    0.594778 0.625756 0.204441 0.272366
H56   H     H_    0.616764 0.286745 0.531591 0.153638
H57   H     H_    0.661993 0.726200 0.093007 0.134356
H58   H     H_    0.667454 0.661321 0.961366 0.142611
H59   H     H_    0.716004 0.633183 0.099933 0.145196
H60   H     H_    0.690778 0.496414 0.018301 0.262912
H61   H     H_    0.728500 0.436213 0.193506 0.124747
H62   H     H_    0.633910 0.424490 0.247197 0.159430
H63   H     H_    0.679228 0.523404 0.254029 0.146092
H64   H     H_    0.744451 0.678755 0.635666 0.234562
H65   H     H_    0.684469 0.753882 0.475302 0.137211
H66   H     H_    0.697914 0.668411 0.374105 0.161095
H67   H     H_    0.459253 0.712822 0.318403 0.135665
H68   H     H_    0.778697 0.723927 0.426908 0.119134
H69   H     H_    0.707969 0.355081 0.382299 0.251423
H70   H     H_    0.740576 0.225528 0.463291 0.183014
H71   H     H_    0.801417 0.272241 0.572042 0.146716
H72   H     H_    0.825896 0.271132 0.408057 0.133167
H73   H     H_    0.107525 0.758464 0.609231 0.143262
H74   H     H_    0.191024 0.718207 0.541906 0.117421
H75   H     H_    0.145103 0.738682 0.816946 0.160425
H76   H     H_    0.222357 0.672868 0.775229 0.163624
H77   H     H_    0.288239 0.787578 0.668882 0.153003
H78   H     H_    0.381649 0.289628 0.474763 0.121707
H79   H     H_    0.266654 0.810766 0.827579 0.145908
H80   H     H_    0.209941 0.855005 0.708025 0.143914
H81   H     H_    0.042305 0.288350 0.499259 0.145490
H82   H     H_    0.092191 0.342474 0.612768 0.115186
H83   H     H_    0.162724 0.221301 0.424081 0.171459
H84   H     H_    0.213231 0.272673 0.542421 0.146228
H85   H     H_    0.133356 0.204833 0.703965 0.145979
H86   H     H_    0.182102 0.132187 0.606414 0.143138
H87   H     H_    0.083002 0.152349 0.585408 0.142202
H88   H     H_    0.458744 0.862564 0.317326 0.101763
N1    N     N_R   0.499970 0.701220 0.499970 -0.250111
N2    N     N_2   0.738862 0.352957 0.461115 -0.523054
N3    N     N_R   0.499970 0.298780 0.499970 -0.249241
N4    N     N_2   0.356576 0.487028 0.924302 -0.478845
N5    N     N_2   0.463379 0.345166 0.873698 -0.438418
N6    N     N_2   0.405150 0.617711 0.866143 -0.528529
N7    N     N_2   0.590898 0.379358 0.918918 -0.510352
N8    N     N_2   0.597605 0.620227 0.110679 -0.533977
N9    N     N_2   0.646224 0.485065 0.078232 -0.498593
N10   N     N_2   0.726346 0.648120 0.559458 -0.496960
O1    O     O_R   0.391240 0.567930 0.499990 -0.495056
O2    O     O_3   0.632914 0.127031 0.537799 -0.590704
O3    O     O_3   0.372221 0.548413 0.154065 -0.550502
O4    O     O_3   0.414033 0.390872 0.093861 -0.553039
O5    O     O_3   0.115146 0.634612 0.625479 -0.572401
O6    O     O_3   0.113665 0.373200 0.425207 -0.573516
O7    O     O_R   0.391240 0.432070 0.499990 -0.521135
O8    O     O_R   0.499970 0.567910 0.317690 -0.514284
O9    O     O_R   0.499970 0.432090 0.317690 -0.521743
O10   O     O_R   0.608730 0.567880 0.500000 -0.467614
O11   O     O_R   0.608730 0.432120 0.500000 -0.521221
O12   O     O_R   0.500000 0.567910 0.682300 -0.522871
O13   O     O_R   0.500000 0.432090 0.682300 -0.477497
O14   O     O_3   0.538184 0.866671 0.714469 -0.591029

loop_
_geom_bond_atom_site_label_1
_geom_bond_atom_site_label_2
_ccdc_geom_bond_type
C48   H44   S    
C12   H3    S    
C34   C56   A    
C23   C45   A    
C38   H17   S    
C27   C29   S    
C42   H27   S    
C51   H57   S    
C41   C42   S    
C35   C36   S    
C39   H21   S    
C56   N2    S    
C27   H12   S    
C24   O10   A    
C52   H62   S    
C58   H79   S    
C29   N5    S    
H42   N5    S    
C43   O4    S    
C46   H36   S    
C35   H9    S    
C4    O6    S    
C57   H76   S    
C49   H49   S    
C14   H56   S    
C26   H1    S    
C19   C21   S    
C45   N10   S    
C29   C32   S    
C36   H11   S    
C54   N2    S    
C30   C31   S    
Cu1   O10   S    
C44   H33   S    
C25   O13   A    
C54   H71   S    
C18   H2    S    
Cu1   O1    S    
C45   C62   A    
C28   N6    S    
C55   H73   S    
C51   N8    S    
C13   N1    A    
C40   O3    S    
C1    C7    S    
C44   H32   S    
C58   H77   S    
C44   C46   S    
C47   H39   S    
C11   O2    S    
C10   C13   A    
Cu2   O9    S    
C53   H65   S    
C59   O6    S    
C15   N1    A    
C27   O4    S    
C56   C62   A    
C12   C30   S    
C59   H82   S    
C25   C32   S    
C23   C63   A    
C48   H43   S    
C16   N3    A    
C59   C60   S    
C50   H52   S    
C21   C22   T    
C12   C32   S    
C50   N7    S    
C51   H58   S    
C37   H15   S    
C30   N9    S    
C17   H88   S    
Cu2   O13   S    
C52   H61   S    
C2    C64   T    
C38   C39   S    
C26   O3    S    
C46   H35   S    
C11   C20   A    
Cu1   O8    S    
C27   C31   S    
C42   H29   S    
C51   H59   S    
C23   H5    S    
Cu2   O7    S    
C28   C32   S    
C4    C6    A    
C36   H14   S    
C16   H78   S    
C11   C14   A    
C5    C7    A    
C8    O9    A    
C3    O5    S    
C35   H10   S    
C14   N3    A    
H51   N7    S    
C1    O7    A    
C55   H74   S    
C50   H53   S    
C60   C61   S    
C10   O14   S    
C43   C44   S    
C48   H46   S    
C37   C38   S    
C3    C9    A    
C29   N7    S    
C39   H19   S    
C1    O1    A    
C10   C19   A    
C47   H40   S    
C54   H70   S    
C41   H26   S    
C28   N4    S    
C43   H30   S    
C49   N6    S    
C53   H66   S    
C60   H84   S    
C61   H85   S    
C37   O2    S    
C33   H7    S    
C40   C41   S    
C41   H25   S    
C20   C22   S    
C47   H41   S    
C55   C57   S    
Cu1   O12   S    
C50   H54   S    
C37   H16   S    
C52   H63   S    
C17   C19   A    
H60   N9    S    
C34   H6    S    
C48   N5    S    
H64   N10   S    
C15   C17   A    
C12   H4    S    
C24   C62   S    
C38   H18   S    
C33   O14   S    
C42   H28   S    
C8    C31   S    
C16   C18   A    
C53   H68   S    
C43   H31   S    
H38   N4    S    
C3    C5    A    
C36   H13   S    
C61   H87   S    
C58   H80   S    
C53   N10   S    
C6    C7    A    
C15   H67   S    
C46   H37   S    
C26   C28   S    
C57   H75   S    
C40   H22   S    
Cu1   N1    S    
C2    C9    S    
C25   O12   A    
C57   C58   S    
C54   H72   S    
H55   N8    S    
C34   C63   A    
C33   C35   S    
C49   H48   S    
C18   C20   A    
C60   H83   S    
H47   N6    S    
Cu2   O11   S    
C61   H86   S    
H69   N2    S    
C52   N9    S    
C63   C64   S    
C33   H8    S    
C26   C31   S    
C49   H50   S    
C13   H45   S    
Cu1   Cu2   S    
C30   N8    S    
C39   H20   S    
C40   H24   S    
C4    C9    A    
C24   O11   A    
C55   O5    S    
Cu2   N3    S    
C5    H23   S    
C8    O8    A    
C6    H34   S    
C47   N4    S    
C59   H81   S    
