data_mof_unit_44195.cif
_audit_creation_date              2013-03-05T16:31:29-0500
_audit_creation_method            fapswitch 2.2
_symmetry_space_group_name_H-M    P1
_symmetry_Int_Tables_number       1
_space_group_crystal_system       triclinic
_cell_length_a                    15.061736
_cell_length_b                    10.832855
_cell_length_c                    9.536681
_cell_angle_alpha                 89.815917
_cell_angle_beta                  90.146676
_cell_angle_gamma                 90.190245
_cell_volume                      1555.99848618

loop_
_atom_site_label
_atom_site_type_symbol
_atom_site_description
_atom_site_fract_x
_atom_site_fract_y
_atom_site_fract_z
_atom_type_partial_charge
O1    O     O_R   0.500000 0.319640 0.618810 -0.578924
O2    O     O_R   0.500010 0.319680 0.381230 -0.586572
C1    C     C_R   0.501343 0.262435 0.500209 0.795368
O3    O     O_R   0.370250 0.499950 0.618800 -0.590645
O4    O     O_R   0.370260 0.499990 0.381220 -0.595221
C2    C     C_R   0.328646 0.498949 0.499812 0.818479
Cu1   Cu    Cu3+1 0.500000 0.499980 0.640670 0.964454
Cu2   Cu    Cu3+1 0.500000 0.500020 0.359330 0.945245
O5    O     O_R   0.499990 0.680320 0.618770 -0.580474
O6    O     O_R   0.500000 0.680360 0.381190 -0.587618
O7    O     O_R   0.629740 0.500010 0.618780 -0.560958
O8    O     O_R   0.629750 0.500050 0.381200 -0.587696
C3    C     C_R   0.500717 0.737741 0.499966 0.830559
C4    C     C_R   0.671386 0.499532 0.500041 0.838538
C5    C     C_R   0.814465 0.528173 0.376692 -0.231516
C6    C     C_R   0.768235 0.498051 0.499717 -0.074925
C7    C     C_R   0.814658 0.465709 0.621930 -0.153456
C8    C     C_R   0.907168 0.465026 0.622750 0.100890
C9    C     C_R   0.953546 0.495898 0.499017 0.054010
C10   C     C_R   0.906942 0.527421 0.375473 0.104027
C11   C     C_R   0.954031 0.433962 0.745017 -0.167665
C12   C     C_R   0.046610 0.433335 0.744820 -0.228740
C13   C     C_R   0.093217 0.463601 0.622317 0.097004
C14   C     C_R   0.046598 0.495164 0.498784 0.058863
C15   C     C_R   0.092949 0.526447 0.375153 0.102977
C16   C     C_R   0.046100 0.557519 0.252882 -0.219902
C17   C     C_R   0.953538 0.557903 0.253005 -0.193081
C18   C     C_R   0.185716 0.463859 0.621406 -0.252285
C19   C     C_R   0.231866 0.496330 0.499120 -0.056826
C20   C     C_R   0.185423 0.526706 0.376186 -0.252450
H1    H     H_    0.778582 0.552981 0.282064 0.167126
H2    H     H_    0.778795 0.439737 0.715932 0.184917
H3    H     H_    0.919095 0.410422 0.840722 0.163877
H4    H     H_    0.081747 0.409464 0.840414 0.141903
H5    H     H_    0.221721 0.439589 0.716146 0.142986
H6    H     H_    0.221169 0.551970 0.281705 0.150116
H7    H     H_    0.081030 0.581591 0.157328 0.142619
H8    H     H_    0.918407 0.582181 0.157523 0.177539
C21   C     C_R   0.503056 0.063757 0.626332 0.115560
C22   C     C_R   0.509227 0.129597 0.500896 -0.098066
C23   C     C_R   0.526213 0.065126 0.376281 -0.213679
H9    H     H_    0.536277 0.113484 0.277979 0.170137
C24   C     C_R   0.525567 0.936469 0.376324 -0.213282
H10   H     H_    0.535416 0.889231 0.278256 0.158256
C25   C     C_R   0.507619 0.871022 0.500608 -0.097155
C26   C     C_R   0.501183 0.936668 0.626141 0.110557
C27   C     C_3   0.434367 0.932817 0.743029 -0.207493
C28   C     C_3   0.437189 0.073596 0.742620 -0.505131
H11   H     H_    0.463328 0.894464 0.841108 0.138246
H12   H     H_    0.374687 0.119805 0.709420 0.190522
H13   H     H_    0.467694 0.112612 0.839138 0.196153
C29   C     C_R   0.571097 0.545428 0.073835 0.229819
N1    N     N_R   0.500570 0.500930 0.147930 -0.183451
C30   C     C_R   0.433807 0.444333 0.074348 -0.085442
H14   H     H_    0.379529 0.400875 0.129946 0.140333
C31   C     C_R   0.433669 0.444614 0.925462 -0.091660
H15   H     H_    0.379261 0.401440 0.869775 0.137919
N2    N     N_R   0.500570 0.500890 0.852020 -0.214485
C32   C     C_R   0.571925 0.543537 0.926188 0.206814
C33   C     C_3   0.609498 0.671121 0.919711 0.126055
C34   C     C_3   0.606442 0.674037 0.079024 -0.559052
H16   H     H_    0.564814 0.738522 0.867950 0.111106
H17   H     H_    0.672224 0.679670 0.131637 0.225590
H18   H     H_    0.556290 0.739901 0.118323 0.172265
C35   C     C_R   0.344590 0.877903 0.705291 0.171109
C36   C     C_R   0.298354 0.913282 0.582929 -0.162326
C37   C     C_R   0.214643 0.863515 0.553494 -0.153872
C38   C     C_R   0.175950 0.778915 0.645850 -0.083966
C39   C     C_R   0.221502 0.742295 0.766724 -0.131457
C40   C     C_R   0.305567 0.790958 0.796077 -0.127387
H19   H     H_    0.326734 0.979761 0.510724 0.138042
H20   H     H_    0.179482 0.891187 0.459454 0.140138
H21   H     H_    0.110801 0.741357 0.623421 0.147169
H22   H     H_    0.191635 0.676106 0.837780 0.126554
H23   H     H_    0.339827 0.761549 0.890384 0.111380
N3    N     N_R   0.699936 0.673303 0.864039 0.154321
O9    O     O_R   0.719280 0.746528 0.760102 -0.358607
O10   O     O_R   0.761753 0.603837 0.917834 -0.414071

loop_
_geom_bond_atom_site_label_1
_geom_bond_atom_site_label_2
_geom_bond_distance
_ccdc_geom_bond_type
C8    C11   1.402100 A    
C23   H9    1.083195 S    
C9    C10   1.411472 A    
Cu1   Cu2   2.683048 S    
C27   H11   1.111029 S    
N1    C30   1.369139 A    
Cu1   O7    1.965758 S    
C16   C17   1.394172 A    
C18   C19   1.402432 A    
N3    O10   1.302339 A    
C37   H20   1.082366 S    
C29   C34   1.490724 S    
O4    C2    1.294446 A    
O7    C4    1.295934 A    
C11   H3    1.083981 S    
C17   H8    1.084086 S    
C35   C40   1.405651 A    
C31   H15   1.081269 S    
C33   H16   1.108603 S    
C8    C9    1.411503 A    
C34   H17   1.111039 S    
O5    C3    1.290819 A    
C26   C27   1.504087 S    
C28   H13   1.111766 S    
C27   C28   1.525486 S    
C18   H5    1.084638 S    
C6    C7    1.401749 A    
C13   C14   1.411593 A    
Cu1   N2    2.015629 S    
C28   H12   1.112491 S    
C36   C37   1.397774 A    
C32   C33   1.492888 S    
C11   C12   1.394438 A    
C23   C24   1.393714 A    
O3    Cu1   1.964828 S    
C15   C16   1.402047 A    
C5    C10   1.392997 A    
C12   H4    1.083962 S    
C30   C31   1.419868 A    
C37   C38   1.396138 A    
C14   C15   1.411529 A    
O3    C2    1.294927 A    
C21   C22   1.393909 A    
C38   C39   1.397034 A    
C38   H21   1.082127 S    
C25   C26   1.398158 A    
C33   N3    1.463320 S    
C33   C34   1.520563 S    
O1    C1    1.291678 A    
C34   H18   1.107640 S    
C24   H10   1.078356 S    
C19   C20   1.402472 A    
C29   C32   1.408373 A    
C36   H19   1.082491 S    
Cu2   O8    1.964826 S    
C7    C8    1.393403 A    
C39   H22   1.082579 S    
C13   C18   1.393237 A    
N3    O9    1.300579 A    
C24   C25   1.405534 A    
C21   C26   1.376946 A    
C22   C23   1.404863 A    
O8    C4    1.293880 A    
C1    C22   1.444288 S    
C4    C6    1.458876 S    
C29   N1    1.363200 A    
C15   C20   1.392816 A    
Cu1   O5    1.964061 S    
C30   H14   1.081276 S    
O1    Cu1   1.965355 S    
O2    Cu2   1.964061 S    
O6    C3    1.293835 A    
Cu2   N1    2.016087 S    
O4    Cu2   1.965760 S    
C16   H7    1.084067 S    
C5    H1    1.084263 S    
C10   C17   1.402089 A    
C20   H6    1.084689 S    
O2    C1    1.291458 A    
N2    C32   1.365167 A    
C3    C25   1.447230 S    
C31   N2    1.369065 A    
C9    C14   1.401581 A    
C39   C40   1.397904 A    
C2    C19   1.457857 S    
Cu2   O6    1.965355 S    
C35   C36   1.410065 A    
C40   H23   1.083295 S    
C7    H2    1.083710 S    
C12   C13   1.401915 A    
C27   C35   1.518354 S    
C5    C6    1.402859 A    
C21   C28   1.494168 S    
