data_mof_unit_15879.cif
_audit_creation_date              2012-12-10T16:42:57-0500
_audit_creation_method            fapswitch 2.2
_symmetry_space_group_name_H-M    P1
_symmetry_Int_Tables_number       1
_space_group_crystal_system       triclinic
_cell_length_a                    7.447796
_cell_length_b                    8.740975
_cell_length_c                    12.949416
_cell_angle_alpha                 87.677639
_cell_angle_beta                  79.356316
_cell_angle_gamma                 102.729938
_cell_volume                      805.244416012

loop_
_atom_site_label
_atom_site_type_symbol
_atom_type_description
_atom_site_fract_x
_atom_site_fract_y
_atom_site_fract_z
_atom_type_partial_charge
C1    C     C_R   0.453058 0.200153 0.505262 0.794415
C2    C     C_R   0.546942 0.799849 0.494726 0.794590
C3    C     C_R   0.467099 0.498809 0.701207 0.781821
C4    C     C_R   0.532901 0.501187 0.298793 0.781797
C5    C     C_R   0.550246 0.496241 0.185773 -0.038775
C6    C     C_R   0.449752 0.503747 0.814228 -0.038766
C7    C     C_R   0.272141 0.541134 0.983586 -0.231308
C8    C     C_R   0.727846 0.458837 0.016419 -0.231309
C9    C     C_R   0.287469 0.534672 0.875523 -0.209935
C10   C     C_R   0.712510 0.465291 0.124483 -0.209990
C11   C     C_R   0.596739 0.479326 0.861048 -0.280746
C12   C     C_R   0.403267 0.520672 0.138951 -0.280730
C13   C     C_R   0.581818 0.484456 0.969131 0.181721
C14   C     C_R   0.418181 0.515532 0.030870 0.181721
C15   C     C_2   0.426211 0.032617 0.514958 0.124913
C16   C     C_2   0.573788 0.967387 0.484993 0.124895
Cu1   Cu    Cu3+1 0.686350 0.517570 0.488220 0.955785
Cu2   Cu    Cu3+1 0.313650 0.482430 0.511780 0.955710
H1    H     H_    0.277958 0.544734 0.186347 0.145522
H2    H     H_    0.722056 0.455276 0.813650 0.145533
H3    H     H_    0.826347 0.444205 0.160219 0.152764
H4    H     H_    0.173611 0.555733 0.839794 0.152726
H5    H     H_    0.147195 0.566657 0.030022 0.137179
H6    H     H_    0.852781 0.433300 0.969985 0.137166
H7    H     H_    0.933834 0.376272 0.582995 0.234412
H8    H     H_    0.066166 0.623729 0.417005 0.234435
N1    N     N_2   0.033570 0.455950 0.529530 -0.213495
N2    N     N_2   0.966430 0.544050 0.470470 -0.213384
O1    O     O_R   0.621060 0.286250 0.492350 -0.554235
O2    O     O_R   0.378940 0.713750 0.507650 -0.554210
O3    O     O_R   0.306310 0.256580 0.512240 -0.556588
O4    O     O_R   0.693690 0.743420 0.487760 -0.556608
O5    O     O_R   0.631800 0.512400 0.642670 -0.599085
O6    O     O_R   0.368200 0.487600 0.357330 -0.599110
O7    O     O_R   0.317060 0.482730 0.662570 -0.598652
O8    O     O_R   0.682940 0.517270 0.337430 -0.598547
O9    O     O_3   0.244136 0.942573 0.548679 -0.553662
C17   C     C_3   0.198317 0.933701 0.659976 0.092891
H9    H     H_    0.189393 0.051146 0.687777 0.136414
H10   H     H_    0.303937 0.888903 0.695839 0.112809
C18   C     C_3   0.008127 0.820336 0.698097 -0.701097
H11   H     H_    0.014268 0.700835 0.674061 0.255279
H12   H     H_    0.969129 0.814059 0.785442 0.172344
H13   H     H_    0.898927 0.861062 0.663825 0.259253
O10   O     O_3   0.755865 0.057418 0.451245 -0.553667
C19   C     C_3   0.801553 0.066413 0.339960 0.093052
H14   H     H_    0.696205 0.111818 0.304225 0.113031
H15   H     H_    0.809748 0.948893 0.312043 0.136046
C20   C     C_3   0.992184 0.179195 0.301826 -0.701091
H16   H     H_    0.030925 0.185738 0.214472 0.172337
H17   H     H_    0.986825 0.298690 0.326083 0.255461
H18   H     H_    0.101154 0.137739 0.335865 0.258968

loop_
_geom_bond_atom_site_label_1
_geom_bond_atom_site_label_2
_ccdc_geom_bond_type
C16   O10   S    
C1    O3    A    
C4    O8    A    
O9    C17   S    
C1    C15   S    
Cu1   O8    S    
H7    N1    S    
C2    C16   S    
C18   H11   S    
H8    N2    S    
C6    C11   A    
C3    O7    A    
C2    O2    A    
C3    C6    S    
C20   H18   S    
C6    C9    A    
C1    O1    A    
Cu1   Cu2   S    
C5    C10   A    
C13   C14   A    
C17   H10   S    
C18   H12   S    
C19   C20   S    
C8    C13   A    
Cu1   O5    S    
C5    C12   A    
C7    H5    S    
C12   H1    S    
C8    C10   A    
C8    H6    S    
C12   C14   A    
C19   H15   S    
Cu2   O6    S    
C10   H3    S    
C17   H9    S    
C11   H2    S    
C18   H13   S    
C4    O6    A    
C9    H4    S    
C3    O5    A    
Cu2   O2    S    
C15   C16   D    
C11   C13   A    
Cu1   O1    S    
C17   C18   S    
C2    O4    A    
C20   H16   S    
Cu2   O7    S    
N1    N2    D    
C7    C9    A    
Cu1   O4    S    
C19   H14   S    
C15   O9    S    
Cu2   O3    S    
O10   C19   S    
Cu1   N2    S    
C7    C14   A    
Cu2   N1    S    
C4    C5    S    
C20   H17   S    
