data_mof_unit_40302.cif
_audit_creation_date              2013-03-05T16:47:20-0500
_audit_creation_method            fapswitch 2.2
_symmetry_space_group_name_H-M    P1
_symmetry_Int_Tables_number       1
_space_group_crystal_system       triclinic
_cell_length_a                    10.885325
_cell_length_b                    10.92003
_cell_length_c                    9.697651
_cell_angle_alpha                 89.695195
_cell_angle_beta                  90.911519
_cell_angle_gamma                 90.279393
_cell_volume                      1152.56569234

loop_
_atom_site_label
_atom_site_type_symbol
_atom_site_description
_atom_site_fract_x
_atom_site_fract_y
_atom_site_fract_z
_atom_type_partial_charge
O1    O     O_R   0.500020 0.321960 0.617040 -0.532895
O2    O     O_R   0.499980 0.321920 0.382900 -0.603896
C1    C     C_R   0.493929 0.265241 0.500396 0.753731
O3    O     O_R   0.319660 0.500030 0.617070 -0.588479
O4    O     O_R   0.319620 0.499990 0.382930 -0.562606
C2    C     C_R   0.262227 0.502342 0.498611 0.803873
Cu1   Cu    Cu3+1 0.500020 0.500020 0.638630 0.972482
Cu2   Cu    Cu3+1 0.499980 0.499980 0.361370 0.938021
O5    O     O_R   0.500020 0.678080 0.617100 -0.574861
O6    O     O_R   0.499980 0.678040 0.382960 -0.584651
O7    O     O_R   0.680380 0.500010 0.617070 -0.565616
O8    O     O_R   0.680340 0.499970 0.382930 -0.594074
C3    C     C_R   0.503265 0.734593 0.499677 0.835867
C4    C     C_R   0.737722 0.498851 0.501459 0.789685
H1    H     H_    0.243674 0.614425 0.875477 0.157981
C5    C     C_R   0.207752 0.688905 0.075881 -0.134000
H2    H     H_    0.244908 0.778371 0.051341 0.141505
C6    C     C_R   0.160629 0.665773 0.206836 -0.112035
H3    H     H_    0.161107 0.737924 0.283059 0.128079
C7    C     C_R   0.112615 0.549671 0.238631 0.128189
C8    C     C_R   0.112003 0.457344 0.138816 -0.118708
H4    H     H_    0.074870 0.367497 0.162073 0.130214
C9    C     C_R   0.159699 0.480557 0.008641 -0.141427
H5    H     H_    0.161027 0.407795 0.933640 0.128557
C10   C     C_R   0.206827 0.596503 0.976615 -0.113140
C11   C     C_R   0.931394 0.521530 0.379940 -0.238497
H6    H     H_    0.879067 0.537986 0.285904 0.158065
C12   C     C_R   0.871631 0.499180 0.504150 -0.082807
C13   C     C_R   0.941254 0.480020 0.626615 -0.005123
C14   C     C_R   0.068275 0.483198 0.620751 -0.222895
H7    H     H_    0.120642 0.466537 0.714258 0.154742
C15   C     C_R   0.128176 0.504701 0.496407 -0.078835
C16   C     C_R   0.058422 0.525185 0.374394 -0.003234
C17   C     C_R   0.874654 0.550755 0.857700 -0.107446
H8    H     H_    0.905529 0.642477 0.832313 0.128334
C18   C     C_R   0.822151 0.527960 0.985923 -0.157767
H9    H     H_    0.812104 0.602013 0.058489 0.125731
C19   C     C_R   0.782684 0.409777 0.020246 -0.131877
H10   H     H_    0.742715 0.392040 0.119862 0.156003
C20   C     C_R   0.794426 0.314478 0.925717 -0.115073
H11   H     H_    0.763263 0.223180 0.952201 0.135669
C21   C     C_R   0.846166 0.337063 0.796910 -0.107861
H12   H     H_    0.854691 0.262786 0.724144 0.121584
C22   C     C_R   0.886369 0.455468 0.762353 0.122888
C23   C     C_2   0.487787 0.933326 0.387480 -0.120592
C24   C     C_2   0.514046 0.866421 0.500022 -0.243040
H13   H     H_    0.464815 0.889864 0.289833 0.164129
H14   H     H_    0.544744 0.908927 0.595511 0.179010
C25   C     C_2   0.496765 0.067048 0.390248 -0.287810
C26   C     C_2   0.469331 0.134045 0.501922 0.197029
H15   H     H_    0.531948 0.110947 0.298014 0.151321
C27   C     C_2   0.449758 0.413616 0.921791 -0.053309
N1    N     N_2   0.498640 0.498660 0.846910 -0.285803
H16   H     H_    0.403100 0.338359 0.870344 0.190853
H17   H     H_    0.545258 0.568990 0.894284 0.199449
C28   C     C_2   0.451816 0.412436 0.077406 -0.051782
N2    N     N_2   0.498610 0.498630 0.153040 -0.286460
H18   H     H_    0.409361 0.334668 0.128102 0.160252
H19   H     H_    0.537019 0.573682 0.106265 0.191508
N3    N     N_R   0.403528 0.082750 0.616748 0.117843
O9    O     O_R   0.435316 0.110400 0.742773 -0.393512
O10   O     O_R   0.304775 0.017466 0.595075 -0.362485

loop_
_geom_bond_atom_site_label_1
_geom_bond_atom_site_label_2
_geom_bond_distance
_ccdc_geom_bond_type
O4    Cu2   1.977684 S    
C14   C15   1.398166 A    
C9    H5    1.080351 S    
C20   H11   1.082474 S    
C13   C14   1.384995 A    
Cu2   N2    2.020261 S    
C11   C16   1.385014 A    
C11   C12   1.397838 A    
C23   C25   1.463411 S    
Cu2   O8    1.971068 S    
C26   N3    1.442785 S    
C15   C16   1.413108 A    
C20   C21   1.398603 A    
O2    C1    1.296237 A    
O8    C4    1.299476 A    
Cu1   Cu2   2.688767 S    
C13   C22   1.476912 S    
C5    C6    1.398484 A    
O1    Cu1   1.956768 S    
C23   C24   1.337998 D    
C7    C8    1.401296 A    
C19   C20   1.398161 A    
C11   H6    1.082160 S    
C14   H7    1.078485 S    
C21   C22   1.403627 A    
O3    Cu1   1.971069 S    
C7    C16   1.473868 S    
C18   C19   1.398388 A    
C12   C13   1.413807 A    
C1    C26   1.456223 S    
C27   H16   1.083733 S    
C17   H8    1.083288 S    
C17   C18   1.397399 A    
C23   H13   1.086545 S    
C8    C9    1.394135 A    
O4    C2    1.293154 A    
O7    C4    1.291992 A    
C24   H14   1.085279 S    
N2    H19   1.025184 S    
O3    C2    1.299293 A    
H1    C10   1.082061 S    
C21   H12   1.083223 S    
Cu1   N1    2.020096 S    
N1    H17   1.025152 S    
C4    C12   1.457451 S    
Cu1   O5    1.954494 S    
C9    C10   1.399024 A    
C17   C22   1.403285 A    
C27   N1    1.293522 D    
C6    C7    1.403618 A    
N3    O10   1.301877 A    
C25   C26   1.348372 D    
C2    C15   1.459356 S    
C5    C10   1.398162 A    
C28   N2    1.293888 D    
C6    H3    1.083159 S    
O5    C3    1.293208 A    
C3    C24   1.443797 S    
C18   H9    1.081879 S    
Cu1   O7    1.977683 S    
O1    C1    1.293149 A    
C8    H4    1.083297 S    
Cu2   O6    1.956768 S    
O2    Cu2   1.954493 S    
C27   C28   1.508897 S    
C5    H2    1.082322 S    
C28   H18   1.084171 S    
N3    O9    1.301529 A    
C25   H15   1.086765 S    
O6    C3    1.292181 A    
C19   H10   1.081944 S    
