data_mof_unit_7310.cif
_audit_creation_date              2013-03-05T15:42:41-0500
_audit_creation_method            fapswitch 2.2
_symmetry_space_group_name_H-M    P1
_symmetry_Int_Tables_number       1
_space_group_crystal_system       triclinic
_cell_length_a                    7.742507
_cell_length_b                    8.598966
_cell_length_c                    27.594205
_cell_angle_alpha                 90.298227
_cell_angle_beta                  86.610103
_cell_angle_gamma                 93.752594
_cell_volume                      1830.00647852

loop_
_atom_site_label
_atom_site_type_symbol
_atom_site_description
_atom_site_fract_x
_atom_site_fract_y
_atom_site_fract_z
_atom_type_partial_charge
O1    O     O_R   0.389250 0.738570 0.503220 -0.582374
O2    O     O_R   0.610750 0.261430 0.496780 -0.582980
O3    O     O_R   0.678390 0.711630 0.494810 -0.652301
O4    O     O_R   0.321610 0.288370 0.505190 -0.654044
C1    C     C_R   0.545314 0.794542 0.498685 0.941794
C2    C     C_R   0.454686 0.205461 0.501317 0.941148
O5    O     O_R   0.355440 0.513440 0.575450 -0.625564
O6    O     O_R   0.644560 0.486560 0.424550 -0.627053
O7    O     O_R   0.644590 0.486500 0.567040 -0.616677
O8    O     O_R   0.355410 0.513500 0.432960 -0.610897
C3    C     C_R   0.503170 0.497637 0.593961 0.910994
C4    C     C_R   0.496153 0.500216 0.406078 0.911417
Zn1   Zn    Zn3+2 0.306940 0.517990 0.505620 0.975578
Zn2   Zn    Zn3+2 0.693060 0.482010 0.494380 0.973521
C5    C     C_R   0.615949 0.554128 0.822246 0.632440
C6    C     C_R   0.413350 0.359751 0.178364 0.649609
O9    O     O_2   0.719306 0.660807 0.796694 -0.540359
O10   O     O_2   0.402966 0.225744 0.203966 -0.517958
N1    N     N_R   0.520975 0.441290 0.798582 -0.324302
N2    N     N_R   0.440498 0.499853 0.201395 -0.329335
C7    C     C_R   0.418954 0.328102 0.823022 0.655459
C8    C     C_R   0.458466 0.637252 0.176154 0.631429
C9    C     C_R   0.654740 0.401487 0.716617 -0.009511
C10   C     C_R   0.616053 0.544741 0.272629 -0.023806
C11   C     C_R   0.650711 0.421058 0.666562 -0.269915
C12   C     C_R   0.628699 0.543094 0.322861 -0.297393
C13   C     C_R   0.371006 0.531846 0.676724 -0.303345
C14   C     C_R   0.324615 0.458959 0.334235 -0.283782
C15   C     C_R   0.373232 0.518799 0.726949 -0.023825
C16   C     C_R   0.307003 0.459645 0.284346 0.014018
C17   C     C_R   0.515497 0.451638 0.747095 0.283969
C18   C     C_R   0.454267 0.501900 0.252967 0.272538
C19   C     C_R   0.488080 0.453168 0.898710 -0.041883
C20   C     C_R   0.426655 0.493618 0.101487 -0.051749
C21   C     C_R   0.602384 0.561607 0.872832 -0.020123
C22   C     C_R   0.393008 0.355562 0.128440 -0.007966
C23   C     C_R   0.697651 0.676331 0.897898 -0.089227
C24   C     C_R   0.342431 0.217050 0.104966 -0.108992
C25   C     C_R   0.398887 0.332871 0.873753 -0.080292
C26   C     C_R   0.464213 0.635357 0.125385 -0.058845
C27   C     C_R   0.509292 0.484953 0.646556 -0.006940
C28   C     C_R   0.484095 0.499861 0.353551 0.008787
H1    H     H_    0.262141 0.582054 0.661065 0.153941
H2    H     H_    0.212620 0.425676 0.358316 0.144083
H3    H     H_    0.792732 0.755996 0.879067 0.217701
H4    H     H_    0.315227 0.109346 0.124996 0.192891
C29   C     C_R   0.496910 0.619538 0.023333 -0.052722
C30   C     C_R   0.356313 0.351371 0.975886 -0.053901
C31   C     C_R   0.364015 0.351322 0.027058 0.094831
C32   C     C_R   0.541147 0.595936 0.973559 0.082584
C33   C     C_R   0.427183 0.488814 0.050527 0.050004
C34   C     C_R   0.461641 0.466628 0.949461 0.058438
C35   C     C_R   0.524856 0.765125 0.047516 0.276143
C36   C     C_R   0.255132 0.238618 0.949851 0.305138
C37   C     C_R   0.506721 0.770917 0.098247 -0.186979
C38   C     C_R   0.282524 0.227582 0.899418 -0.130911
O11   O     O_2   0.476337 0.774061 0.200123 -0.529011
O12   O     O_2   0.333267 0.214970 0.798104 -0.524908
C39   C     C_R   0.669409 0.691607 0.947747 -0.081850
C40   C     C_R   0.323050 0.216030 0.055245 -0.038494
H5    H     H_    0.751729 0.576117 0.338132 0.148710
H6    H     H_    0.756747 0.382816 0.642970 0.176401
H7    H     H_    0.528145 0.881906 0.116418 0.218013
H8    H     H_    0.204924 0.141344 0.879987 0.228310
H9    H     H_    0.750936 0.777667 0.965843 0.213404
H10   H     H_    0.285816 0.105398 0.039196 0.207074
C41   C     C_2   0.563810 0.955827 0.507229 -0.223612
C42   C     C_2   0.436183 0.044187 0.492768 -0.225967
N3    N     N_2   0.950320 0.457960 0.486880 -0.167756
N4    N     N_2   0.049680 0.542040 0.513120 -0.167727
H11   H     H_    0.013973 0.383654 0.463716 0.182702
H12   H     H_    0.986035 0.616372 0.536274 0.185657
C43   C     C_2   0.225033 0.579283 0.756517 0.480634
H13   H     H_    0.110082 0.609208 0.738829 0.078182
O13   O     O_2   0.229418 0.600469 0.800196 -0.546249
C44   C     C_2   0.131761 0.416249 0.267344 0.430041
H14   H     H_    0.027891 0.375778 0.293315 0.049782
O14   O     O_2   0.099043 0.426470 0.224863 -0.532477
C45   C     C_2   0.775095 0.592885 0.242386 0.518657
H15   H     H_    0.881261 0.658272 0.258835 0.069124
O15   O     O_2   0.792841 0.557104 0.199607 -0.519258
C46   C     C_2   0.806399 0.327997 0.735154 0.460013
H16   H     H_    0.916615 0.306203 0.710430 0.058914
O16   O     O_2   0.810345 0.288507 0.777474 -0.529247
N5    N     N_R   0.554656 0.909735 0.021503 0.175350
O17   O     O_R   0.468124 0.935548 0.983635 -0.393085
O18   O     O_R   0.655343 0.021922 0.038333 -0.339317
N6    N     N_R   0.108574 0.150150 0.972545 0.200837
O19   O     O_R   0.002474 0.217527 0.003072 -0.336383
O20   O     O_R   0.066425 0.009773 0.957542 -0.355886
C47   C     C_2   0.696605 0.004791 0.542563 0.400909
H17   H     H_    0.819890 0.951096 0.541030 0.064329
O21   O     O_2   0.665646 0.097130 0.575238 -0.563587
C48   C     C_2   0.303398 0.995267 0.457427 0.401245
H18   H     H_    0.180218 0.049138 0.458916 0.061843
O22   O     O_2   0.334262 0.902779 0.424787 -0.547818

loop_
_geom_bond_atom_site_label_1
_geom_bond_atom_site_label_2
_geom_bond_distance
_ccdc_geom_bond_type
C36   N6    1.437489 S    
C9    C46   1.487041 S    
C13   C15   1.392261 A    
C43   H13   1.085922 S    
C1    C41   1.405041 S    
N1    C17   1.427292 S    
C8    O11   1.349798 S    
N5    O17   1.301805 A    
C19   C34   1.408560 A    
C30   C36   1.424696 A    
C20   C33   1.406381 A    
C19   C25   1.405897 A    
C31   C40   1.411016 A    
O1    C1    1.270424 A    
C32   C39   1.409193 A    
N1    C7    1.367216 A    
C12   H5    1.084615 S    
C44   O14   1.218641 D    
C15   C43   1.488555 S    
Zn1   N4    2.014383 S    
O4    Zn1   1.985100 S    
N3    H11   1.029276 S    
C4    C28   1.457912 S    
C5    N1    1.365782 A    
C14   C16   1.391477 A    
C31   C33   1.417811 A    
C37   H7    1.083481 S    
C32   C34   1.417238 A    
C38   H8    1.083523 S    
C6    N2    1.368985 A    
C29   C35   1.425589 A    
C2    C42   1.404971 S    
C40   H10   1.076598 S    
C43   O13   1.220160 D    
O2    C2    1.270421 A    
C5    C21   1.395096 A    
C29   C32   1.412618 A    
C35   C37   1.399572 A    
C36   C38   1.398959 A    
N5    O18   1.301452 A    
C41   C42   1.364198 D    
C44   H14   1.085941 S    
O4    C2    1.289818 A    
C11   C27   1.399606 A    
C47   H17   1.085735 S    
C45   O15   1.220477 D    
C29   C33   1.414057 A    
C14   H2    1.084757 S    
C42   C48   1.497549 S    
C9    C17   1.416130 A    
O5    C3    1.295307 A    
O7    Zn2   2.018521 S    
C10   C18   1.420219 A    
C47   O21   1.221799 D    
C16   C44   1.485764 S    
C13   C27   1.396258 A    
C10   C45   1.483066 S    
C25   C38   1.399064 A    
C7    C25   1.399994 A    
C30   C34   1.417886 A    
O6    C4    1.296713 A    
C26   C37   1.399148 A    
C8    C26   1.399062 A    
C41   C47   1.497555 S    
C48   H18   1.085755 S    
C48   O22   1.221802 D    
O7    C3    1.294884 A    
C23   C39   1.386877 A    
O3    Zn2   1.985100 S    
O8    C4    1.292507 A    
C24   C40   1.388904 A    
C30   C31   1.416826 A    
N6    O20   1.301602 A    
C46   O16   1.220531 D    
Zn2   N3    2.014382 S    
C20   C26   1.404572 A    
O1    Zn1   1.961202 S    
C23   H3    1.083372 S    
C12   C28   1.394833 A    
N2    C18   1.433293 S    
C5    O9    1.350152 S    
O6    Zn2   1.985894 S    
C21   C23   1.397743 A    
C10   C12   1.395551 A    
N2    C8    1.369660 A    
O3    C1    1.289839 A    
O8    Zn1   2.018521 S    
C35   N5    1.437672 S    
C22   C24   1.397309 A    
C7    O12   1.349746 S    
C15   C17   1.419460 A    
C6    C22   1.395825 A    
C16   C18   1.419181 A    
C14   C28   1.396955 A    
C19   C21   1.409542 A    
C3    C27   1.459780 S    
C20   C22   1.405743 A    
C11   H6    1.084372 S    
C9    C11   1.394723 A    
N3    N4    1.275321 D    
O2    Zn2   1.961202 S    
C24   H4    1.083348 S    
C45   H15   1.085729 S    
C13   H1    1.084521 S    
O5    Zn1   1.985894 S    
N6    O19   1.302116 A    
C6    O10   1.350188 S    
C46   H16   1.086063 S    
N4    H12   1.029239 S    
C39   H9    1.080614 S    
