data_mof_unit_31109.cif
_audit_creation_date              2013-03-05T16:17:09-0500
_audit_creation_method            fapswitch 2.2
_symmetry_space_group_name_H-M    P1
_symmetry_Int_Tables_number       1
_space_group_crystal_system       triclinic
_cell_length_a                    8.337016
_cell_length_b                    18.87965
_cell_length_c                    19.171397
_cell_angle_alpha                 102.853822
_cell_angle_beta                  95.30327
_cell_angle_gamma                 91.133135
_cell_volume                      2926.83551935

loop_
_atom_site_label
_atom_site_type_symbol
_atom_site_description
_atom_site_fract_x
_atom_site_fract_y
_atom_site_fract_z
_atom_type_partial_charge
P1    P     P_3+3 0.945300 0.665790 0.568510 0.572327
O1    O     O_2   0.117290 0.676350 0.548250 -0.329233
O2    O     O_3   0.869060 0.586940 0.542720 -0.333864
O3    O     O_3   0.356990 0.628630 0.417250 -0.314160
O4    O     O_2   0.240463 0.756228 0.465225 -0.376950
O5    O     O_3   0.975302 0.686318 0.662967 -0.579963
O6    O     O_3   0.325532 0.737213 0.336152 -0.529117
H1    H     H_    0.292265 0.626587 0.290676 0.128440
C1    C     C_3   0.308930 0.686595 0.209412 -0.775002
H2    H     H_    0.176733 0.691795 0.201889 0.271355
H3    H     H_    0.367944 0.736633 0.200875 0.313110
P2    P     P_3+3 0.360080 0.438780 0.334620 0.567494
P3    P     P_3+3 0.908798 0.576621 0.284550 0.509719
O7    O     O_2   0.186600 0.460070 0.325400 -0.338812
O8    O     O_3   0.942970 0.591450 0.378940 -0.305472
O9    O     O_2   0.056811 0.537654 0.254730 -0.384768
O10   O     O_3   0.348848 0.343656 0.310393 -0.541737
O11   O     O_3   0.927933 0.657815 0.255237 -0.561736
C2    C     C_3   0.835456 0.713611 0.291244 0.752342
H4    H     H_    0.765222 0.697385 0.331842 -0.014507
C3    C     C_3   0.950360 0.776969 0.329747 -0.803344
H5    H     H_    0.020204 0.761629 0.375442 0.253380
H6    H     H_    0.033955 0.790869 0.292458 0.285771
C4    C     C_3   0.775265 0.361004 0.306510 0.346343
H7    H     H_    0.663646 0.379403 0.330275 0.130295
H8    H     H_    0.865761 0.406680 0.313782 0.132233
C5    C     C_3   0.733125 0.329514 0.226369 -0.815998
H9    H     H_    0.642803 0.283712 0.217994 0.273755
H10   H     H_    0.681458 0.371139 0.199441 0.211450
H11   H     H_    0.842581 0.309503 0.200766 0.285330
Ba1   Ba    Ba6+2 0.153490 0.533960 0.468530 1.720365
C6    C     C_3   0.965216 0.622973 0.690118 0.416706
H12   H     H_    0.080723 0.595885 0.687349 -0.003910
H13   H     H_    0.873195 0.582755 0.660191 0.174782
C7    C     C_3   0.924873 0.642810 0.767830 -0.967660
H14   H     H_    0.994376 0.692484 0.798025 0.268900
H15   H     H_    0.952786 0.597277 0.794372 0.230300
H16   H     H_    0.794966 0.653445 0.769857 0.277706
C8    C     C_3   0.246074 0.314662 0.351581 0.347055
H17   H     H_    0.154509 0.352500 0.373730 0.098156
H18   H     H_    0.319777 0.300235 0.397125 0.112922
C9    C     C_3   0.159353 0.246959 0.303491 -0.627121
H19   H     H_    0.071964 0.262551 0.262970 0.252439
H20   H     H_    0.094807 0.215957 0.335899 0.216877
H21   H     H_    0.246270 0.211469 0.273709 0.279701
P4    P     P_3+3 0.865000 0.334200 0.431430 0.475745
O12   O     O_2   0.693010 0.323600 0.451730 -0.346323
O13   O     O_3   0.941240 0.413050 0.457220 -0.382473
O14   O     O_3   0.453310 0.371360 0.582690 -0.349023
O15   O     O_3   0.839277 0.306329 0.337463 -0.583750
P5    P     P_3+3 0.896918 0.411535 0.712842 0.516929
O16   O     O_3   0.371310 0.539060 0.587050 -0.313074
O17   O     O_3   0.867330 0.408540 0.621000 -0.406976
O18   O     O_2   0.763838 0.458104 0.749028 -0.341602
O19   O     O_3   0.854097 0.323914 0.723940 -0.431661
Ba2   Ba    Ba6+2 0.656680 0.466030 0.531410 1.667549
P6    P     P_3+3 0.378194 0.722327 0.422418 0.545760
C10   C     C_3   0.359998 0.675462 0.284425 0.437991
H22   H     H_    0.490817 0.665820 0.288749 0.052161
H23   H     H_    0.342746 0.639322 0.168486 0.196219
O20   O     O_3   0.438990 0.460930 0.412890 -0.337253
C11   C     C_3   0.360575 0.697900 0.734884 0.417306
H24   H     H_    0.390930 0.755100 0.733653 0.151845
H25   H     H_    0.255604 0.682050 0.695593 0.118191
C12   C     C_3   0.330678 0.697628 0.812079 -1.060515
H26   H     H_    0.446972 0.702411 0.846425 0.290801
H27   H     H_    0.257909 0.744612 0.833852 0.261896
H28   H     H_    0.264096 0.647139 0.814422 0.244081
P7    P     P_3+3 0.445188 0.564338 0.679952 0.529782
O21   O     O_2   0.623700 0.539890 0.674570 -0.326642
O22   O     O_3   0.493190 0.657317 0.714054 -0.527661
H29   H     H_    0.883304 0.825948 0.350821 0.229096
C13   C     C_3   0.921092 0.273875 0.669707 0.532413
H30   H     H_    0.859181 0.274493 0.615974 0.104239
H31   H     H_    0.051978 0.286412 0.670420 -0.024980
C14   C     C_3   0.898741 0.197581 0.681999 -0.849596
H32   H     H_    0.769345 0.179870 0.672254 0.250047
H33   H     H_    0.967368 0.158856 0.644777 0.192380
H34   H     H_    0.942610 0.196608 0.738102 0.312308
P8    P     P_3+3 0.440397 0.277723 0.574525 0.485325
C15   C     C_3   0.394749 0.265439 0.702932 0.032890
H35   H     H_    0.292453 0.227024 0.677664 0.058415
O23   O     O_2   0.565803 0.245708 0.523134 -0.363868
O24   O     O_3   0.517719 0.260488 0.656948 -0.529168
H36   H     H_    0.351423 0.321818 0.715634 0.126332
C16   C     C_3   0.460514 0.243475 0.772254 0.549248
H37   H     H_    0.514131 0.189347 0.757132 0.036291
C17   C     C_R   0.015929 0.951032 0.521656 0.014699
C18   C     C_R   0.110716 0.906157 0.557412 0.087051
C19   C     C_R   0.265754 0.931321 0.589255 -0.144536
C20   C     C_R   0.325104 0.000475 0.586857 -0.174043
C21   C     C_R   0.229198 0.046705 0.554146 0.142145
C22   C     C_R   0.073897 0.022157 0.521266 0.052791
C23   C     C_R   0.285846 0.117377 0.555129 -0.239240
C24   C     C_R   0.186426 0.166527 0.527607 0.011173
C25   C     C_R   0.031375 0.141784 0.492796 0.031876
C26   C     C_R   0.976809 0.068746 0.488498 0.065065
C27   C     C_R   0.236316 0.240138 0.535106 0.210818
C28   C     C_R   0.131352 0.288229 0.509914 -0.522933
C29   C     C_R   0.981108 0.265007 0.472179 0.204219
C30   C     C_R   0.931041 0.189733 0.462418 -0.095094
C31   C     C_R   0.862287 0.925541 0.487880 0.055948
C32   C     C_R   0.802598 0.855024 0.490301 -0.004731
C33   C     C_R   0.898780 0.808931 0.525916 -0.099744
C34   C     C_R   0.049731 0.837131 0.561380 -0.050948
H38   H     H_    0.341518 0.897390 0.615997 0.166232
H39   H     H_    0.445248 0.018402 0.611964 0.139755
H40   H     H_    0.170857 0.344462 0.516569 0.166642
H41   H     H_    0.406390 0.134153 0.579903 0.160821
H42   H     H_    0.120438 0.806453 0.593425 0.174792
C35   C     C_R   0.784345 0.160706 0.423274 0.012246
C36   C     C_R   0.729118 0.087730 0.417322 -0.116034
C37   C     C_R   0.824610 0.042409 0.452458 -0.018397
C38   C     C_R   0.767810 0.970791 0.452028 -0.003570
C39   C     C_R   0.579106 0.059384 0.378374 0.415166
C40   C     C_R   0.521317 0.988876 0.380188 0.191907
C41   C     C_R   0.614695 0.944953 0.417351 -0.106280
C42   C     C_R   0.645137 0.831003 0.457868 -0.150751
C43   C     C_R   0.554434 0.876093 0.421821 -0.000790
C44   C     C_R   0.578352 0.765035 0.467658 0.075365
C45   C     C_R   0.665762 0.729978 0.515014 0.319194
C46   C     C_R   0.833119 0.739064 0.529463 0.102385
H43   H     H_    0.711159 0.196193 0.398890 0.211638
H44   H     H_    0.432715 0.859088 0.399802 0.199454
N1    N     N_R   0.438101 0.552088 0.971962 -0.072452
N2    N     N_R   0.483807 0.554473 0.041125 -0.059569
C47   C     C_2   0.598365 0.515801 0.293708 -0.087821
C48   C     C_3   0.728365 0.515783 0.244156 0.108705
C49   C     C_2   0.658036 0.526533 0.172828 -0.237393
C50   C     C_2   0.508607 0.498275 0.147108 -0.154570
C51   C     C_2   0.407618 0.466331 0.196606 0.281960
C52   C     C_1   0.460829 0.477423 0.267802 -0.005249
N3    N     N_R   0.384634 0.435178 0.025986 0.054702
N4    N     N_R   0.336652 0.433004 0.957367 0.033734
C53   C     C_R   0.361303 0.491534 0.929060 0.184784
C54   C     C_R   0.454829 0.496382 0.070045 0.220667
C55   C     C_R   0.399191 0.519113 0.809184 -0.182433
C56   C     C_R   0.345390 0.513311 0.736533 0.235355
C57   C     C_R   0.100259 0.448929 0.751381 0.181998
C58   C     C_R   0.153452 0.454437 0.823872 -0.166765
C59   C     C_R   0.304494 0.488490 0.853061 0.047175
C60   C     C_R   0.200062 0.475339 0.707531 -0.473248
H45   H     H_    0.735516 0.547275 0.138687 0.208975
H46   H     H_    0.512182 0.548242 0.831496 0.157375
H47   H     H_    0.076353 0.433335 0.857666 0.191485
H48   H     H_    0.158761 0.471142 0.651482 0.148118
S1    S     S_3+6 0.302659 0.233426 0.827012 -0.009165
O25   O     O_2   0.373660 0.238066 0.902964 -0.187246
O26   O     O_2   0.183580 0.291960 0.826114 -0.303746
O27   O     O_3   0.208945 0.151462 0.794567 -0.563783
H49   H     H_    0.131671 0.146819 0.829723 0.395100
N5    N     N_R   0.584421 0.296071 0.813422 0.269702
O28   O     O_R   0.721229 0.273534 0.836810 -0.309145
O29   O     O_R   0.554140 0.364595 0.832622 -0.361738
S2    S     S_3+6 0.459813 0.113095 0.330071 -0.012684
O30   O     O_2   0.324342 0.070395 0.280354 -0.178033
O31   O     O_2   0.390403 0.170264 0.385273 -0.373819
O32   O     O_3   0.575423 0.152355 0.280502 -0.510084
H50   H     H_    0.539986 0.202926 0.286736 0.362704
N6    N     N_R   0.365769 0.961831 0.345084 0.269363
O33   O     O_R   0.236426 0.982832 0.375546 -0.368528
O34   O     O_R   0.354250 0.910855 0.286484 -0.295401
N7    N     N_R   0.723999 0.738083 0.238737 0.220110
O35   O     O_R   0.711990 0.705202 0.171062 -0.369197
O36   O     O_R   0.636633 0.793835 0.259410 -0.394033
S3    S     S_3+6 0.572464 0.715416 0.587362 -0.017144
O37   O     O_2   0.400093 0.735643 0.585740 -0.306202
O38   O     O_2   0.585956 0.636194 0.583288 -0.236306
O39   O     O_3   0.672869 0.766362 0.662780 -0.569295
H51   H     H_    0.710028 0.732422 0.692562 0.387995
S4    S     S_3+6 0.245167 0.402454 0.153767 0.048469
O40   O     O_2   0.317898 0.337752 0.108884 -0.201324
O41   O     O_2   0.142619 0.375070 0.203044 -0.244706
O42   O     O_3   0.121247 0.440384 0.099243 -0.484748
H52   H     H_    0.120569 0.492515 0.123357 0.335085
N8    N     N_R   0.639287 0.543749 0.368863 0.263990
O43   O     O_R   0.644290 0.613390 0.393239 -0.485636
O44   O     O_R   0.728344 0.505252 0.404086 -0.336946

loop_
_geom_bond_atom_site_label_1
_geom_bond_atom_site_label_2
_geom_bond_distance
_ccdc_geom_bond_type
O5    C6    1.410441 S    
S4    O40   1.502777 D    
N7    O35   1.301498 A    
S2    O30   1.502369 D    
C47   N8    1.426366 S    
C5    H10   1.105630 S    
O39   H51   0.985134 S    
C60   H48   1.082646 S    
C24   C25   1.418636 A    
C4    C5    1.524127 S    
Ba1   O16   2.757330 S    
P8    O24   1.751324 S    
C48   C49   1.494952 S    
C15   H35   1.109440 S    
C24   C27   1.415013 A    
C8    H18   1.107874 S    
C43   H44   1.076410 S    
C45   S3    1.721928 S    
S4    O41   1.496617 D    
C51   S4    1.803403 S    
P3    O11   1.755374 S    
C14   H33   1.109495 S    
C21   C22   1.408522 A    
C2    C3    1.524619 S    
C34   H42   1.079471 S    
C4    H8    1.110694 S    
C40   N6    1.433502 S    
C55   C59   1.409345 A    
P7    O21   1.572567 D    
C41   C43   1.407679 A    
O10   C8    1.398632 S    
O42   H52   0.990308 S    
C57   C60   1.395363 A    
C33   C46   1.436123 A    
C39   C40   1.415519 A    
P1    Ba1   3.397712 S    
C40   C41   1.409675 A    
P1    O1    1.540370 D    
C13   H30   1.111318 S    
P7    O22   1.755631 S    
Ba1   O20   2.940934 S    
C42   C43   1.401681 A    
C36   C37   1.415612 A    
C11   H25   1.091024 S    
O16   P7    1.785141 S    
H1    C10   1.107161 S    
C47   C52   1.337238 D    
P3    C48   1.871468 S    
S1    O25   1.503384 D    
C12   H27   1.110187 S    
P2    O10   1.750413 S    
N3    C54   1.356016 A    
C14   H34   1.107839 S    
Ba1   Ba2   4.653410 S    
C1    H2    1.107396 S    
O7    Ba1   2.829119 S    
O6    C10   1.405967 S    
C15   C16   1.535689 S    
P8    C27   1.856194 S    
C17   C18   1.413128 A    
N1    C53   1.359688 A    
N8    O44   1.297111 A    
N2    C54   1.361406 A    
C3    H5    1.102563 S    
C16   S1    1.790004 S    
C5    H11   1.109200 S    
S3    O38   1.487326 D    
C13   H31   1.110188 S    
C23   C24   1.412047 A    
C9    H20   1.108747 S    
P8    O23   1.542579 D    
C33   C34   1.408465 A    
C8    C9    1.523941 S    
C4    O15   1.392229 S    
S4    O42   1.683875 S    
P4    O13   1.562553 S    
S1    O26   1.501943 D    
C3    H29   1.107630 S    
C35   H43   1.068879 S    
P1    O5    1.758466 S    
O3    Ba1   2.830135 S    
C6    C7    1.523936 S    
C20   H39   1.083741 S    
C7    H16   1.108013 S    
C4    H7    1.102249 S    
C19   H38   1.083735 S    
C56   C60   1.398149 A    
C20   C21   1.404577 A    
C16   H37   1.112837 S    
O11   C2    1.409818 S    
C10   H22   1.107856 S    
O1    Ba1   2.818339 S    
P1    O2    1.562552 S    
C7    H14   1.106946 S    
C6    H13   1.093641 S    
O32   H50   0.989990 S    
O3    P6    1.754058 S    
P4    O12   1.540777 D    
C11   H24   1.110168 S    
C31   C38   1.417900 A    
C16   N5    1.461530 S    
N3    N4    1.330532 A    
O2    Ba2   2.818143 S    
S2    O32   1.684021 S    
C28   C29   1.397923 A    
P2    O7    1.513919 D    
C35   C36   1.420745 A    
C12   H28   1.105217 S    
C25   C26   1.425793 A    
S1    O27   1.681080 S    
C21   C23   1.402095 A    
C2    N7    1.463294 S    
C14   H32   1.109578 S    
O2    Ba1   2.954800 S    
S2    O31   1.499824 D    
C1    H3    1.107524 S    
C45   C46   1.396728 A    
P6    C44   1.885491 S    
N8    O43   1.292170 A    
C55   H46   1.083112 S    
C28   H40   1.081667 S    
C12   H26   1.110774 S    
Ba2   O21   2.829245 S    
Ba1   O13   2.817487 S    
C3    H6    1.110846 S    
P2    Ba1   3.416651 S    
S3    O37   1.493541 D    
C13   C14   1.521041 S    
C32   C42   1.419761 A    
C9    H19   1.107500 S    
P4    Ba2   3.398340 S    
C47   C48   1.505770 S    
C22   C26   1.415455 A    
C8    H17   1.104493 S    
C15   O24   1.403973 S    
C44   C45   1.399109 A    
C7    H15   1.110278 S    
C37   C38   1.421794 A    
O17   Ba2   2.749465 S    
P7    C56   1.843106 S    
O13   Ba2   2.955726 S    
P4    C29   1.902130 S    
C17   C22   1.419929 A    
C1    C10   1.522635 S    
P2    C52   1.862584 S    
C11   C12   1.524418 S    
C39   S2    1.778311 S    
Ba2   O20   2.756701 S    
C50   C54   1.496154 S    
N5    O29   1.300440 A    
C58   H47   1.083209 S    
C17   C31   1.405451 A    
C57   C58   1.399578 A    
O8    Ba1   2.748828 S    
N4    C53   1.355106 A    
C49   H45   1.086843 S    
C30   C35   1.407158 A    
O14   Ba2   2.829463 S    
C55   C56   1.402803 A    
P4    O15   1.752297 S    
C23   H41   1.080796 S    
O14   P8    1.739993 S    
O4    P6    1.539888 D    
C1    H23   1.109471 S    
N6    O33   1.300521 A    
P5    O18   1.547492 D    
C2    H4    1.107116 S    
P3    O8    1.763595 S    
C50   C51   1.534709 S    
C49   C50   1.350132 D    
C6    H12   1.099344 S    
P2    O20   1.544910 S    
C19   C20   1.398904 A    
N1    N2    1.335944 A    
C58   C59   1.410606 A    
C29   C30   1.439679 A    
O6    P6    1.756235 S    
C11   O22   1.395669 S    
P5    O19   1.748314 S    
C31   C32   1.424011 A    
C42   C44   1.411481 A    
C38   C41   1.408427 A    
O19   C13   1.405943 S    
O16   Ba2   2.940009 S    
C53   C59   1.478031 S    
N5    O28   1.300970 A    
S3    O39   1.685847 S    
C27   C28   1.404212 A    
P3    O9    1.539469 D    
C18   C34   1.409839 A    
C32   C33   1.434305 A    
O27   H49   0.990594 S    
N7    O36   1.301377 A    
P1    C46   1.931676 S    
P5    O17   1.743298 S    
C18   C19   1.403521 A    
C25   C30   1.425787 A    
C26   C37   1.412384 A    
C9    H21   1.107034 S    
C36   C39   1.425188 A    
C15   H36   1.113058 S    
C51   C52   1.364140 D    
N6    O34   1.301129 A    
O12   Ba2   2.818904 S    
C5    H9    1.109362 S    
P5    C57   1.845876 S    
