data_mof_unit_68397.cif
_audit_creation_date              2012-12-10T17:47:40-0500
_audit_creation_method            fapswitch 2.2
_symmetry_space_group_name_H-M    P1
_symmetry_Int_Tables_number       1
_space_group_crystal_system       triclinic
_cell_length_a                    10.755875
_cell_length_b                    10.739603
_cell_length_c                    10.052852
_cell_angle_alpha                 92.032429
_cell_angle_beta                  88.433034
_cell_angle_gamma                 98.217816
_cell_volume                      1148.30522235

loop_
_atom_site_label
_atom_site_type_symbol
_atom_type_description
_atom_site_fract_x
_atom_site_fract_y
_atom_site_fract_z
_atom_type_partial_charge
C1    C     C_R   0.494563 0.258868 0.497164 0.897374
C2    C     C_3   0.877617 0.502314 0.503966 -0.185470
C3    C     C_3   0.947281 0.633082 0.459239 0.090242
C4    C     C_3   0.912021 0.396783 0.409371 -0.557745
C5    C     C_R   0.334058 0.073396 0.670901 -0.241538
C6    C     C_R   0.293429 0.996497 0.779253 0.159489
C7    C     C_R   0.377379 0.923802 0.831618 0.172736
C8    C     C_R   0.480779 0.899730 0.753262 0.451817
C9    C     C_R   0.492448 0.942727 0.621388 -0.090557
C10   C     C_R   0.441723 0.050465 0.595093 -0.003457
C11   C     C_R   0.496366 0.124177 0.489456 -0.148211
C12   C     C_R   0.257954 0.501238 0.501893 1.006735
C13   C     C_R   0.575452 0.072532 0.392773 0.118668
C14   C     C_R   0.595724 0.947555 0.404069 0.175731
C15   C     C_R   0.543523 0.879006 0.513047 -0.204906
C16   C     C_R   0.310082 0.335865 0.128158 0.495528
C17   C     C_R   0.206285 0.277288 0.055177 0.294772
C18   C     C_R   0.204838 0.292177 0.917807 0.303480
C19   C     C_R   0.310634 0.353745 0.855410 -0.173106
C20   C     C_R   0.405113 0.427901 0.926397 -0.055267
C21   C     C_R   0.403752 0.426099 0.069744 -0.013995
C22   C     C_R   0.599434 0.555545 0.067031 0.225781
C23   C     C_R   0.517110 0.741282 0.502877 0.924578
C24   C     C_R   0.593896 0.565667 0.927456 0.527692
C25   C     C_R   0.741643 0.501946 0.499992 0.988289
C26   C     C_3   0.062270 0.479346 0.648665 -0.095800
C27   C     C_3   0.919443 0.474864 0.647050 -0.018028
C28   C     C_3   0.093587 0.637966 0.462462 0.696247
C29   C     C_3   0.055280 0.397722 0.406565 0.513628
C30   C     C_3   0.120818 0.505096 0.505145 -0.169921
H1    H     H_    0.877105 0.406253 0.308190 0.227336
H2    H     H_    0.922842 0.644060 0.355064 0.194752
H3    H     H_    0.276683 0.140613 0.638859 0.197316
H4    H     H_    0.083754 0.387027 0.676124 0.227579
H5    H     H_    0.316512 0.342324 0.750009 0.227606
H6    H     H_    0.891151 0.547214 0.718524 0.219729
H7    H     H_    0.861549 0.304865 0.441117 0.240087
N1    N     N_R   0.498810 0.498800 0.142780 -0.133892
N2    N     N_R   0.498760 0.498720 0.857170 -0.160746
O1    O     O_R   0.500000 0.316780 0.614690 -0.627101
O2    O     O_R   0.499990 0.316750 0.385360 -0.548674
O3    O     O_R   0.314800 0.499990 0.614670 -0.643423
O4    O     O_R   0.314790 0.499970 0.385330 -0.481463
O5    O     O_R   0.500010 0.683250 0.614640 -0.614110
O6    O     O_R   0.500000 0.683220 0.385310 -0.574165
O7    O     O_R   0.685210 0.500030 0.614670 -0.630104
O8    O     O_R   0.685200 0.500010 0.385330 -0.610828
Zn1   Zn    Zn3+2 0.500010 0.500020 0.653130 0.995552
Zn2   Zn    Zn3+2 0.499990 0.499980 0.346870 1.077649
I1    I     I_    0.133159 0.599553 0.816697 -0.194395
O9    O     O_3   0.147957 0.664988 0.335352 -0.755257
H8    H     H_    0.124745 0.746540 0.308358 0.354879
I2    I     I_    0.663644 0.175129 0.225858 -0.240137
I3    I     I_    0.101322 0.960589 0.838448 -0.127819
I4    I     I_    0.353897 0.853300 0.027447 -0.145063
O10   O     O_3   0.573499 0.845098 0.810231 -0.710635
H9    H     H_    0.650348 0.861030 0.752905 0.356533
I5    I     I_    0.728927 0.871375 0.277287 -0.124150
I6    I     I_    0.788674 0.576919 0.124331 -0.212778
O11   O     O_3   0.321217 0.299073 0.254448 -0.669945
H10   H     H_    0.292181 0.207289 0.258044 0.367666
O12   O     O_3   0.113995 0.197118 0.119263 -0.688641
H11   H     H_    0.032246 0.225056 0.102093 0.370037
O13   O     O_3   0.106578 0.241681 0.839015 -0.743889
H12   H     H_    0.030970 0.215700 0.894540 0.384460
O14   O     O_3   0.692539 0.636507 0.863032 -0.716997
H13   H     H_    0.665422 0.651492 0.773239 0.384295
I7    I     I_    0.825619 0.299652 0.729282 -0.255396
O15   O     O_3   0.148369 0.731141 0.553934 -0.735737
H14   H     H_    0.138980 0.814989 0.520202 0.370871
O16   O     O_3   0.904397 0.734424 0.531208 -0.742929
H15   H     H_    0.927603 0.731024 0.625480 0.385882
O17   O     O_3   0.102868 0.413746 0.275572 -0.690144
H16   H     H_    0.060183 0.475175 0.229353 0.366452
I8    I     I_    0.087254 0.210524 0.459556 -0.255047

loop_
_geom_bond_atom_site_label_1
_geom_bond_atom_site_label_2
_ccdc_geom_bond_type
C8    C9    A    
C16   C21   A    
C23   O6    A    
O17   H16   S    
C2    C4    S    
C28   O15   S    
C1    C11   S    
C7    I4    S    
C8    O10   S    
C7    C8    A    
O8    Zn2   S    
N1    Zn2   S    
C26   C27   S    
O12   H11   S    
C3    C28   S    
C12   O4    A    
C26   I1    S    
C5    C6    A    
C28   O9    S    
C29   O17   S    
C22   N1    A    
C24   N2    A    
O10   H9    S    
C18   C19   A    
C16   O11   S    
C12   O3    A    
C27   I7    S    
C1    O1    A    
C26   H4    S    
C21   N1    A    
C19   C20   A    
C16   C17   A    
C5    H3    S    
C2    C27   S    
C9    C10   A    
C25   O8    A    
C4    C29   S    
C24   O14   S    
C15   C23   S    
O14   H13   S    
C13   C14   A    
C3    H2    S    
C6    I3    S    
O2    Zn2   S    
C13   I2    S    
C14   I5    S    
O7    Zn1   S    
O9    H8    S    
C22   I6    S    
C20   N2    A    
O4    Zn2   S    
C23   O5    A    
O11   H10   S    
C3    O16   S    
C29   C30   S    
C17   O12   S    
O6    Zn2   S    
C17   C18   A    
O3    Zn1   S    
C4    H7    S    
C1    O2    A    
C26   C30   S    
C22   C24   A    
O1    Zn1   S    
C12   C30   S    
C6    C7    A    
C29   I8    S    
C27   H6    S    
O13   H12   S    
C28   C30   S    
C2    C3    S    
C9    C15   A    
C5    C10   A    
C19   H5    S    
C11   C13   A    
C18   O13   S    
C2    C25   S    
O15   H14   S    
C4    H1    S    
C10   C11   A    
O16   H15   S    
C20   C21   A    
C14   C15   A    
C25   O7    A    
O5    Zn1   S    
N2    Zn1   S    
