data_mof_unit_57833.cif
_audit_creation_date              2012-12-10T18:56:22-0500
_audit_creation_method            fapswitch 2.2
_symmetry_space_group_name_H-M    P1
_symmetry_Int_Tables_number       1
_space_group_crystal_system       triclinic
_cell_length_a                    10.78615
_cell_length_b                    9.844151
_cell_length_c                    19.113107
_cell_angle_alpha                 90.513047
_cell_angle_beta                  91.042624
_cell_angle_gamma                 89.012998
_cell_volume                      2028.72620126

loop_
_atom_site_label
_atom_site_type_symbol
_atom_type_description
_atom_site_fract_x
_atom_site_fract_y
_atom_site_fract_z
_atom_type_partial_charge
C1    C     C_R   0.874701 0.497449 0.494809 -0.172670
C2    C     C_R   0.128431 0.504433 0.517501 -0.156777
C3    C     C_R   0.665845 0.560059 0.961778 0.380485
C4    C     C_R   0.526220 0.373900 0.036890 0.370301
C5    C     C_R   0.680095 0.553611 0.034515 0.391973
C6    C     C_R   0.527406 0.365936 0.963759 0.389202
C7    C     C_R   0.603533 0.467290 0.072146 -0.179725
C8    C     C_R   0.588859 0.466425 0.926798 -0.154613
C9    C     C_R   0.261022 0.501455 0.507691 0.885289
C10   C     C_R   0.740429 0.498814 0.495944 0.892358
C11   C     C_R   0.507278 0.498852 0.365281 0.996504
C12   C     C_R   0.500924 0.500633 0.634146 1.070831
C13   C     C_R   0.066625 0.380935 0.525068 -0.064046
C14   C     C_R   0.936806 0.622438 0.490718 -0.060296
C15   C     C_R   0.941765 0.375232 0.507898 -0.040027
C16   C     C_R   0.061264 0.627222 0.508659 -0.060066
C17   C     C_R   0.423031 0.516331 0.754227 0.323981
C18   C     C_R   0.534954 0.612889 0.249894 0.307670
C19   C     C_R   0.584310 0.370285 0.260646 0.352976
C20   C     C_R   0.645598 0.482720 0.733636 0.322480
C21   C     C_R   0.444906 0.508199 0.826155 0.460192
C22   C     C_R   0.556088 0.603939 0.177959 0.419940
C23   C     C_R   0.616874 0.364740 0.190402 0.458830
C24   C     C_R   0.665635 0.462638 0.805813 0.429195
C25   C     C_R   0.566114 0.479502 0.851648 -0.129591
C26   C     C_R   0.597317 0.480089 0.148320 -0.141670
C27   C     C_R   0.572770 0.071353 0.546607 -0.008471
C28   C     C_R   0.424923 0.928418 0.454361 -0.032174
C29   C     C_R   0.425431 0.072914 0.454103 -0.008376
C30   C     C_R   0.573850 0.927148 0.546010 0.001252
C31   C     C_R   0.523050 0.501634 0.708675 -0.393757
C32   C     C_R   0.539244 0.493802 0.290589 -0.438565
N1    N     N_R   0.500000 0.857200 0.500000 -0.129385
N2    N     N_R   0.500000 0.142800 0.500000 -0.127844
O1    O     O_R   0.316770 0.614620 0.500000 -0.630842
O2    O     O_R   0.683230 0.385380 0.500000 -0.618938
O3    O     O_R   0.683230 0.614620 0.500000 -0.616301
O4    O     O_R   0.316770 0.385380 0.500000 -0.622272
O5    O     O_R   0.500030 0.614710 0.398180 -0.589645
O6    O     O_R   0.499970 0.385290 0.601820 -0.605586
O7    O     O_R   0.499970 0.614710 0.601820 -0.640001
O8    O     O_R   0.500030 0.385290 0.398180 -0.579984
Zn1   Zn    Zn3+2 0.500000 0.653120 0.500000 0.974229
Zn2   Zn    Zn3+2 0.500000 0.346880 0.500000 0.995503
C33   C     C_1   0.648550 0.142809 0.597104 0.256383
N3    N     N_1   0.710517 0.197824 0.637981 -0.169977
C34   C     C_1   0.343087 0.855806 0.407258 0.311752
N4    N     N_1   0.276686 0.798527 0.369481 -0.173137
C35   C     C_1   0.345443 0.147141 0.406100 0.296326
N5    N     N_1   0.280867 0.205887 0.367467 -0.197118
C36   C     C_1   0.653298 0.853519 0.594264 0.248070
N6    N     N_1   0.717755 0.796039 0.633313 -0.225808
C37   C     C_1   0.128954 0.260838 0.553779 0.246199
N7    N     N_1   0.178493 0.165735 0.576922 -0.180922
C38   C     C_1   0.877419 0.744953 0.462880 0.217202
N8    N     N_1   0.830523 0.842142 0.440377 -0.219009
C39   C     C_1   0.889047 0.241765 0.497297 0.210362
N9    N     N_1   0.849356 0.134552 0.488164 -0.213930
C40   C     C_1   0.115727 0.759073 0.522494 0.205010
N10   N     N_1   0.158020 0.864265 0.534150 -0.204430
O9    O     O_3   0.301787 0.524752 0.729236 -0.567111
C41   C     C_3   0.273250 0.658942 0.707870 -0.261795
H1    H     H_    0.281626 0.666611 0.650332 0.177040
H2    H     H_    0.330958 0.738306 0.733948 0.130322
H3    H     H_    0.175095 0.682107 0.720461 0.185932
O10   O     O_3   0.498667 0.736441 0.278608 -0.568832
C42   C     C_3   0.605313 0.814688 0.291370 -0.141479
H4    H     H_    0.577190 0.909951 0.318656 0.181864
H5    H     H_    0.649696 0.843682 0.241752 0.199377
H6    H     H_    0.673635 0.760419 0.325929 0.132903
O11   O     O_3   0.588608 0.250755 0.298336 -0.544991
C43   C     C_3   0.708496 0.232797 0.327918 -0.210899
H7    H     H_    0.705909 0.147981 0.365625 0.188774
H8    H     H_    0.740077 0.324657 0.357159 0.123332
H9    H     H_    0.776548 0.204001 0.287343 0.158937
O12   O     O_3   0.740043 0.468737 0.685148 -0.599438
C44   C     C_3   0.845150 0.545724 0.703910 -0.138216
H10   H     H_    0.888096 0.581663 0.655282 0.164006
H11   H     H_    0.915605 0.480434 0.730850 0.207452
H12   H     H_    0.823043 0.637045 0.736579 0.162257
O13   O     O_3   0.344596 0.512911 0.870403 -0.518976
C45   C     C_3   0.333714 0.644104 0.900119 -0.320601
H13   H     H_    0.337671 0.725555 0.860254 0.143079
H14   H     H_    0.405657 0.659813 0.941482 0.131515
H15   H     H_    0.242278 0.653503 0.925506 0.194716
O14   O     O_3   0.540999 0.718948 0.137231 -0.540289
C46   C     C_3   0.416154 0.730240 0.114635 -0.265206
H16   H     H_    0.402253 0.829656 0.088514 0.189038
H17   H     H_    0.350822 0.727183 0.159022 0.181457
H18   H     H_    0.393843 0.650071 0.075398 0.115779
O15   O     O_3   0.653027 0.240010 0.162377 -0.514734
C47   C     C_3   0.777937 0.243804 0.141693 -0.306085
H19   H     H_    0.817200 0.139000 0.143670 0.195696
H20   H     H_    0.837025 0.308039 0.176673 0.114566
H21   H     H_    0.783645 0.277962 0.086721 0.158315
O16   O     O_3   0.781891 0.427232 0.832316 -0.570043
C48   C     C_3   0.798252 0.285282 0.826030 -0.296635
H22   H     H_    0.886734 0.255703 0.852658 0.191761
H23   H     H_    0.804912 0.253634 0.770271 0.200800
H24   H     H_    0.722723 0.229691 0.851603 0.149882
O17   O     O_3   0.731276 0.654667 0.924816 -0.546428
C49   C     C_3   0.661944 0.777349 0.922212 -0.291450
H25   H     H_    0.580489 0.767374 0.886274 0.124460
H26   H     H_    0.631998 0.812326 0.974970 0.194272
H27   H     H_    0.721290 0.857394 0.900832 0.181211
O18   O     O_3   0.451345 0.288187 0.073770 -0.542398
C50   C     C_3   0.332435 0.348584 0.079298 -0.263319
H28   H     H_    0.293854 0.382464 0.027738 0.186398
H29   H     H_    0.334158 0.434665 0.117230 0.133049
H30   H     H_    0.268644 0.271955 0.099867 0.186618
O19   O     O_3   0.756748 0.644053 0.069400 -0.537728
C51   C     C_3   0.879717 0.593715 0.067112 -0.271928
H31   H     H_    0.912087 0.581029 0.012456 0.199263
H32   H     H_    0.889912 0.496363 0.095721 0.123963
H33   H     H_    0.941144 0.668131 0.093623 0.178782
O20   O     O_3   0.457581 0.270593 0.927385 -0.547998
C52   C     C_3   0.505709 0.138538 0.940271 -0.239365
H34   H     H_    0.462739 0.095009 0.987188 0.215527
H35   H     H_    0.608737 0.134626 0.946204 0.118797
H36   H     H_    0.480850 0.072353 0.895058 0.156268

loop_
_geom_bond_atom_site_label_1
_geom_bond_atom_site_label_2
_ccdc_geom_bond_type
C30   C36   S    
C28   C34   S    
C12   O6    A    
O17   C49   S    
C15   C39   S    
C19   O11   S    
O19   C51   S    
C38   N8    T    
C51   H32   S    
C48   H22   S    
C29   C35   S    
C44   H10   S    
C12   O7    A    
C7    C26   S    
C11   O8    A    
C10   O3    A    
C28   C29   A    
C24   O16   S    
O18   C50   S    
O20   C52   S    
C20   O12   S    
C49   H27   S    
C23   C26   A    
C2    C13   A    
C47   H19   S    
C41   H2    S    
C17   O9    S    
C20   C24   A    
C50   H28   S    
C1    C15   A    
C2    C16   A    
C41   H3    S    
C3    O17   S    
C14   C38   S    
C40   N10   T    
C18   C22   A    
C27   C30   A    
C8    C25   S    
O7    Zn1   S    
C49   H25   S    
O8    Zn2   S    
C4    C7    A    
C19   C32   A    
C51   H31   S    
C48   H23   S    
O13   C45   S    
C13   C37   S    
C44   H11   S    
C27   N2    A    
C42   H4    S    
N1    Zn1   S    
N2    Zn2   S    
O12   C44   S    
C4    C6    A    
C3    C8    A    
C52   H36   S    
O15   C47   S    
C5    C7    A    
C19   C23   A    
C6    C8    A    
C5    O19   S    
C33   N3    T    
C4    O18   S    
C29   N2    A    
C47   H21   S    
C17   C21   A    
C36   N6    T    
C42   H5    S    
C16   C40   S    
O3    Zn1   S    
C49   H26   S    
O4    Zn2   S    
C41   H1    S    
C34   N4    T    
O16   C48   S    
C27   C33   S    
C47   H20   S    
C24   C25   A    
C11   O5    A    
C6    O20   S    
C43   H8    S    
C21   O13   S    
C28   N1    A    
C45   H13   S    
C45   H14   S    
C13   C15   A    
C12   C31   S    
C17   C31   A    
C50   H30   S    
C23   O15   S    
O2    Zn2   S    
C18   C32   A    
C48   H24   S    
O1    Zn1   S    
C44   H12   S    
C21   C25   A    
C30   N1    A    
O14   C46   S    
C1    C10   S    
C43   H7    S    
C3    C5    A    
C11   C32   S    
O5    Zn1   S    
C37   N7    T    
C18   O10   S    
C45   H15   S    
C42   H6    S    
C52   H35   S    
O11   C43   S    
C52   H34   S    
C43   H9    S    
C39   N9    T    
C50   H29   S    
C9    O4    A    
O10   C42   S    
C14   C16   A    
C22   O14   S    
O9    C41   S    
O6    Zn2   S    
C46   H16   S    
C35   N5    T    
C22   C26   A    
C46   H18   S    
C9    O1    A    
C46   H17   S    
C10   O2    A    
C1    C14   A    
C2    C9    S    
C51   H33   S    
C20   C31   A    
