data_mof_unit_28814.cif
_audit_creation_date              2013-03-05T15:48:06-0500
_audit_creation_method            fapswitch 2.2
_symmetry_space_group_name_H-M    P1
_symmetry_Int_Tables_number       1
_space_group_crystal_system       triclinic
_cell_length_a                    15.017093
_cell_length_b                    13.083784
_cell_length_c                    11.854585
_cell_angle_alpha                 101.017807
_cell_angle_beta                  94.891016
_cell_angle_gamma                 92.466407
_cell_volume                      2273.74123457

loop_
_atom_site_label
_atom_site_type_symbol
_atom_site_description
_atom_site_fract_x
_atom_site_fract_y
_atom_site_fract_z
_atom_type_partial_charge
O1    O     O_R   0.504720 0.354460 0.582000 -0.523794
O2    O     O_R   0.495280 0.645540 0.418000 -0.521551
O3    O     O_R   0.493480 0.341410 0.386200 -0.557419
O4    O     O_R   0.506520 0.658590 0.613800 -0.563759
C1    C     C_R   0.501432 0.299171 0.477282 0.935378
C2    C     C_R   0.499845 0.700946 0.522701 0.946028
O5    O     O_R   0.375880 0.506510 0.597910 -0.510751
O6    O     O_R   0.624120 0.493490 0.402090 -0.513393
O7    O     O_R   0.364640 0.493450 0.402110 -0.615675
O8    O     O_R   0.635360 0.506550 0.597890 -0.615905
C3    C     C_R   0.328931 0.499204 0.499397 0.939600
C4    C     C_R   0.670994 0.499386 0.500161 0.925355
Cu1   Cu    Cu3+1 0.506660 0.507730 0.615930 1.115326
Cu2   Cu    Cu3+1 0.493340 0.492270 0.384070 1.112379
C5    C     C_R   0.819145 0.595874 0.530915 0.278569
C6    C     C_R   0.178956 0.406689 0.457618 0.256660
C7    C     C_R   0.767916 0.500812 0.496855 -0.251084
C8    C     C_R   0.231796 0.499967 0.497050 -0.246101
C9    C     C_R   0.806600 0.409339 0.445973 0.278957
C10   C     C_R   0.192019 0.594352 0.533697 0.267511
C11   C     C_R   0.898050 0.412944 0.426283 0.002112
C12   C     C_R   0.098533 0.599521 0.512656 -0.003302
C13   C     C_R   0.951240 0.506654 0.468997 -0.047400
C14   C     C_R   0.045174 0.506063 0.470442 -0.039787
C15   C     C_R   0.910992 0.600411 0.512451 -0.089649
C16   C     C_R   0.085591 0.410915 0.434650 -0.100914
C17   C     C_R   0.938014 0.326680 0.362255 0.036937
C18   C     C_R   0.056861 0.695877 0.527728 0.019603
C19   C     C_R   0.031941 0.323437 0.371977 0.351228
C20   C     C_R   0.963249 0.696237 0.531087 0.355775
C21   C     C_R   0.499318 0.815505 0.537660 -0.204308
C22   C     C_R   0.503352 0.184730 0.462119 -0.215388
C23   C     C_R   0.451676 0.012333 0.355202 -0.124095
C24   C     C_R   0.552168 0.987659 0.644148 -0.112353
C25   C     C_R   0.465413 0.118526 0.358717 0.328072
C26   C     C_R   0.538260 0.881466 0.640605 0.322317
C27   C     C_R   0.536351 0.140328 0.556180 0.318863
C28   C     C_R   0.466074 0.860115 0.443933 0.317664
C29   C     C_R   0.523440 0.032249 0.550180 -0.061823
C30   C     C_R   0.479745 0.968003 0.449572 -0.068550
H1    H     H_    0.419883 0.964753 0.276133 0.233715
H2    H     H_    0.584724 0.034934 0.722901 0.233028
N1    N     N_R   0.516670 0.519360 0.790130 -0.243591
N2    N     N_R   0.483330 0.480640 0.209870 -0.243003
C31   C     C_R   0.419636 0.394190 0.017145 0.064766
C32   C     C_R   0.580256 0.606015 0.982765 0.066493
C33   C     C_R   0.417736 0.415522 0.139071 0.258327
C34   C     C_R   0.582010 0.584830 0.860782 0.256054
C35   C     C_R   0.542906 0.536404 0.157967 0.510952
C36   C     C_R   0.457131 0.463545 0.841975 0.510652
C37   C     C_R   0.530792 0.536669 0.035916 -0.116247
C38   C     C_R   0.469195 0.463411 0.964019 -0.116913
N3    N     N_R   0.779242 0.684721 0.593256 0.133471
O9    O     O_R   0.710003 0.722996 0.546513 -0.324982
O10   O     O_R   0.811983 0.727052 0.697739 -0.297751
N4    N     N_R   0.216694 0.308386 0.464730 0.177491
O11   O     O_R   0.291180 0.283499 0.421404 -0.367464
O12   O     O_R   0.180035 0.247088 0.524497 -0.242776
C39   C     C_3   0.378675 0.290725 0.948350 -0.617317
H3    H     H_    0.381722 0.229314 0.001301 0.258760
H4    H     H_    0.307959 0.297958 0.916763 0.265586
H5    H     H_    0.418116 0.261162 0.875733 0.279173
C40   C     C_3   0.621243 0.709428 0.051623 -0.618264
H6    H     H_    0.618360 0.770872 0.998712 0.257576
H7    H     H_    0.581681 0.739033 0.124118 0.279707
H8    H     H_    0.691907 0.702102 0.083363 0.263508
N5    N     N_R   0.756286 0.310866 0.430883 0.105569
O13   O     O_R   0.786106 0.238507 0.483084 -0.274996
O14   O     O_R   0.683701 0.290990 0.360389 -0.338443
N6    N     N_R   0.243717 0.677994 0.611126 0.130756
O15   O     O_R   0.314126 0.721911 0.579572 -0.364099
O16   O     O_R   0.221287 0.708591 0.715379 -0.265024
C41   C     C_3   0.883652 0.246777 0.269517 -0.557381
H9    H     H_    0.869476 0.174060 0.301656 0.284373
H10   H     H_    0.820504 0.277767 0.238620 0.246708
H11   H     H_    0.920352 0.227523 0.191476 0.235856
C42   C     C_3   0.108709 0.796948 0.522918 -0.555108
H12   H     H_    0.128046 0.842049 0.611516 0.279055
H13   H     H_    0.168858 0.782474 0.475411 0.249663
H14   H     H_    0.068275 0.845721 0.473615 0.248394
N7    N     N_R   0.072482 0.235876 0.307588 0.152446
O17   O     O_R   0.049173 0.141279 0.317503 -0.259790
O18   O     O_R   0.128388 0.250292 0.233222 -0.312979
N8    N     N_R   0.921174 0.793737 0.540671 0.159779
O19   O     O_R   0.944881 0.869551 0.627860 -0.250762
O20   O     O_R   0.867094 0.810829 0.455402 -0.256598
N9    N     N_R   0.415531 0.796593 0.344805 0.137033
O21   O     O_R   0.337005 0.754950 0.354349 -0.317845
O22   O     O_R   0.449402 0.776807 0.246137 -0.349957
N10   N     N_R   0.584665 0.204510 0.656725 0.135980
O23   O     O_R   0.659180 0.255378 0.647652 -0.277359
O24   O     O_R   0.550186 0.219766 0.755107 -0.357857
N11   N     N_R   0.562810 0.843618 0.743956 0.119835
O25   O     O_R   0.641091 0.871987 0.799816 -0.312605
O26   O     O_R   0.500150 0.808028 0.798088 -0.295138
N12   N     N_R   0.441128 0.156230 0.255156 0.124631
O27   O     O_R   0.363266 0.127112 0.198440 -0.311518
O28   O     O_R   0.503809 0.192982 0.201943 -0.298052
N13   N     N_R   0.375020 0.418441 0.777815 0.123896
O29   O     O_R   0.373034 0.331700 0.702596 -0.310510
O30   O     O_R   0.299959 0.458659 0.804155 -0.310622
N14   N     N_R   0.625033 0.581443 0.222075 0.123870
O31   O     O_R   0.627074 0.668404 0.296929 -0.305483
O32   O     O_R   0.700061 0.541078 0.195836 -0.344648
C43   C     C_3   0.661667 0.627855 0.811833 -0.536667
H15   H     H_    0.706059 0.685137 0.874901 0.224928
H16   H     H_    0.705312 0.563360 0.784153 0.225385
H17   H     H_    0.640766 0.666845 0.740499 0.282275
C44   C     C_3   0.338127 0.372117 0.187799 -0.546817
H18   H     H_    0.293368 0.315405 0.124543 0.227183
H19   H     H_    0.359941 0.332097 0.257570 0.288621
H20   H     H_    0.294607 0.436354 0.216849 0.221741

loop_
_geom_bond_atom_site_label_1
_geom_bond_atom_site_label_2
_geom_bond_distance
_ccdc_geom_bond_type
N2    C35   1.385857 A    
N9    O21   1.300492 A    
C40   H7    1.105074 S    
C3    C8    1.457085 S    
N11   O25   1.301520 A    
C17   C19   1.408510 A    
C41   H9    1.109327 S    
C24   H2    1.081021 S    
N7    O17   1.301357 A    
C42   H12   1.109955 S    
O5    C3    1.296601 A    
C43   H16   1.108035 S    
C36   N13   1.432866 S    
C27   N10   1.438668 S    
O1    C1    1.307671 A    
C5    N3    1.436538 S    
C9    C11   1.412797 A    
C14   C16   1.416060 A    
C25   N12   1.433238 S    
C44   H19   1.095299 S    
C5    C15   1.415358 A    
N4    O11   1.298619 A    
C31   C33   1.421749 A    
O4    Cu1   1.978890 S    
C23   C25   1.387978 A    
C26   N11   1.432757 S    
C34   C43   1.506582 S    
C35   C37   1.443472 A    
N12   O28   1.301315 A    
C4    C7    1.458761 S    
C36   C38   1.443015 A    
C13   C14   1.409640 A    
C9    N5    1.438037 S    
N6    O15   1.298209 A    
N1    C34   1.382509 A    
C8    C10   1.404716 A    
N2    C33   1.383496 A    
C1    C22   1.475413 S    
C42   H13   1.108881 S    
C2    C21   1.475725 S    
C11   C17   1.420799 A    
C40   H8    1.109640 S    
C39   H3    1.110297 S    
N11   O26   1.301367 A    
C12   C18   1.419086 A    
Cu1   Cu2   2.706660 S    
C41   H10   1.108366 S    
C10   N6    1.436760 S    
O2    C2    1.306922 A    
N7    O18   1.301431 A    
N3    O10   1.301201 A    
C6    C16   1.410780 A    
C43   H17   1.098760 S    
C32   C34   1.422152 A    
C39   H4    1.109644 S    
C23   C30   1.397938 A    
N5    O13   1.301125 A    
C22   C25   1.417772 A    
N8    O19   1.301529 A    
O4    C2    1.303274 A    
C44   H20   1.107743 S    
C35   N14   1.432581 S    
C31   C38   1.417988 A    
C33   C44   1.506690 S    
C32   C37   1.418553 A    
C24   C29   1.398380 A    
N5    O14   1.300504 A    
O7    Cu2   1.962929 S    
C6    N4    1.441721 S    
C19   N7    1.439026 S    
N10   O24   1.300392 A    
N13   O29   1.299905 A    
O6    C4    1.294052 A    
N12   O27   1.301564 A    
C22   C27   1.415817 A    
N14   O32   1.301271 A    
C18   C42   1.518545 S    
O7    C3    1.303478 A    
O3    Cu2   1.978891 S    
O8    C4    1.306088 A    
N13   O30   1.301241 A    
C10   C12   1.411588 A    
C11   C13   1.416737 A    
C41   H11   1.110362 S    
C12   C14   1.414602 A    
O1    Cu1   1.966909 S    
Cu1   N1    2.033532 S    
Cu2   N2    2.033530 S    
C42   H14   1.110356 S    
C15   C20   1.420024 A    
C5    C7    1.405188 A    
C31   C39   1.515514 S    
C39   H5    1.104935 S    
O6    Cu2   1.956373 S    
N8    O20   1.301296 A    
O3    C1    1.302800 A    
O8    Cu1   1.962928 S    
N1    C36   1.385460 A    
N3    O9    1.300605 A    
C43   H15   1.105861 S    
C28   N9    1.438074 S    
C21   C28   1.415196 A    
C32   C40   1.515379 S    
C23   H1    1.081270 S    
C18   C20   1.409914 A    
C37   C38   1.406337 A    
C27   C29   1.406378 A    
C44   H18   1.105942 S    
C28   C30   1.405653 A    
N10   O23   1.300180 A    
C7    C9    1.406175 A    
N4    O12   1.301519 A    
C24   C26   1.388186 A    
C13   C15   1.418023 A    
C20   N8    1.437246 S    
N14   O31   1.299751 A    
O2    Cu2   1.966910 S    
C40   H6    1.110265 S    
C29   C30   1.412620 A    
O5    Cu1   1.956370 S    
C16   C19   1.415842 A    
C6    C8    1.404622 A    
N9    O22   1.300351 A    
C21   C26   1.417174 A    
N6    O16   1.301773 A    
C17   C41   1.517303 S    
