data_mof_unit_17395.cif
_audit_creation_date              2012-12-11T14:17:39-0500
_audit_creation_method            fapswitch 2.2
_symmetry_space_group_name_H-M    P1
_symmetry_Int_Tables_number       1
_space_group_crystal_system       triclinic
_cell_length_a                    6.952189
_cell_length_b                    13.781626
_cell_length_c                    20.418573
_cell_angle_alpha                 102.414221
_cell_angle_beta                  90.037123
_cell_angle_gamma                 91.078055
_cell_volume                      1910.25202433

loop_
_atom_site_label
_atom_site_type_symbol
_atom_type_description
_atom_site_fract_x
_atom_site_fract_y
_atom_site_fract_z
_atom_type_partial_charge
O1    O     O_R   0.506860 0.599390 0.449240 -0.534587
O2    O     O_R   0.180220 0.594600 0.586780 -0.541124
O3    O     O_R   0.004500 0.400610 0.550760 -0.530914
C1    C     C_R   0.349961 0.618363 0.612443 0.652549
O4    O     O_R   0.177490 0.611290 0.451970 -0.550395
O5    O     O_R   0.001750 0.417420 0.414990 -0.536619
C2    C     C_R   0.347276 0.635779 0.434049 0.752573
O6    O     O_R   0.509610 0.582580 0.585010 -0.544287
O7    O     O_3   0.337420 0.436370 0.488020 -0.372523
V1    V     V_3+5 0.064680 0.511800 0.502220 1.443797
O8    O     O_R   0.671710 0.405400 0.413220 -0.557569
C3    C     C_R   0.838172 0.387020 0.385753 0.769301
O9    O     O_R   0.674440 0.388710 0.548030 -0.553060
C4    C     C_R   0.841933 0.363446 0.565147 0.780442
V2    V     V_3+5 0.564010 0.488200 0.497780 1.426830
O10   O     O_3   0.841140 0.563630 0.511980 -0.378348
C5    C     C_R   0.915751 0.115680 0.607421 0.376120
H1    H     H_    0.991226 0.998027 0.689361 0.169142
C6    C     C_R   0.848388 0.284751 0.602274 -0.228251
C7    C     C_R   0.821989 0.308838 0.925985 0.390684
C8    C     C_R   0.827300 0.385277 0.891123 -0.282536
C9    C     C_R   0.857430 0.366100 0.822067 0.399402
C10   C     C_R   0.865403 0.266158 0.784271 0.017335
C11   C     C_R   0.887563 0.188955 0.820792 -0.106020
C12   C     C_R   0.864782 0.240793 0.712025 0.055054
C13   C     C_R   0.907122 0.142434 0.678187 -0.062580
C14   C     C_R   0.947537 0.071707 0.714893 -0.110119
C15   C     C_R   0.939897 0.093265 0.784255 -0.001247
C16   C     C_R   0.822255 0.309083 0.671733 -0.280326
C17   C     C_R   0.892191 0.187606 0.569528 0.395754
C18   C     C_R   0.863701 0.211691 0.892285 -0.178943
H2    H     H_    0.769369 0.382102 0.692470 0.198707
H3    H     H_    0.816476 0.461556 0.918482 0.146465
C19   C     C_2   0.987593 0.305014 0.277657 -0.262758
C20   C     C_2   0.832340 0.327846 0.316315 -0.357507
H4    H     H_    0.129024 0.330375 0.297515 0.140565
H5    H     H_    0.691039 0.305964 0.294561 0.120844
C21   C     C_2   0.966222 0.254899 0.204747 0.386610
C22   C     C_2   0.876625 0.164439 0.185728 -0.248991
C23   C     C_2   0.212144 0.779428 0.785328 -0.111643
C24   C     C_2   0.361876 0.796023 0.828512 0.360976
H6    H     H_    0.076276 0.814810 0.799748 0.100704
C25   C     C_2   0.217068 0.706977 0.719782 -0.143672
C26   C     C_2   0.362429 0.697579 0.674332 -0.129381
H7    H     H_    0.090427 0.658941 0.708249 0.118789
C27   C     C_R   0.441632 0.882723 0.390184 -0.196095
H8    H     H_    0.473834 0.007741 0.311640 0.121726
H9    H     H_    0.485025 0.957365 0.415405 0.112284
C28   C     C_R   0.362362 0.713617 0.395826 -0.119627
C29   C     C_R   0.319495 0.690657 0.073549 0.419431
C30   C     C_R   0.315443 0.615609 0.109476 -0.176968
C31   C     C_R   0.331916 0.638177 0.178866 -0.201116
C32   C     C_R   0.352943 0.737440 0.215334 0.047566
C33   C     C_R   0.369465 0.815114 0.178901 -0.089258
C34   C     C_R   0.365042 0.760769 0.286826 0.095945
C35   C     C_R   0.412610 0.859160 0.320425 0.006093
C36   C     C_R   0.432919 0.933781 0.284598 -0.206558
C37   C     C_R   0.402184 0.915028 0.214875 0.500718
C38   C     C_R   0.333729 0.689317 0.326395 -0.275286
C39   C     C_R   0.417439 0.810101 0.427990 0.431063
C40   C     C_R   0.353029 0.789579 0.107313 -0.166976
H10   H     H_    0.287911 0.613983 0.305011 0.108846
H11   H     H_    0.333974 0.575606 0.202462 0.114260
H12   H     H_    0.301214 0.538811 0.083091 0.122983
O11   O     O_R   0.203230 0.917310 0.915020 -0.559148
O12   O     O_R   0.535500 0.888690 0.048040 -0.536499
O13   O     O_R   0.711080 0.082610 0.085000 -0.527726
C41   C     C_R   0.365802 0.864053 0.065928 0.844996
O14   O     O_R   0.532630 0.905370 0.913230 -0.536577
O15   O     O_R   0.708190 0.099410 0.949230 -0.543567
C42   C     C_R   0.363125 0.877235 0.889775 0.709196
O16   O     O_R   0.206120 0.900510 0.050790 -0.550145
O17   O     O_3   0.375360 0.063570 0.011990 -0.372689
V3    V     V_3+5 0.648170 0.988200 0.997780 1.518168
O18   O     O_R   0.038240 0.111390 0.951940 -0.538408
C43   C     C_R   0.870435 0.135704 0.933350 0.756780
O19   O     O_R   0.041120 0.094710 0.086750 -0.541827
C44   C     C_R   0.874516 0.113088 0.114078 0.883511
V4    V     V_3+5 0.148810 0.011930 0.002180 1.506561
O20   O     O_3   0.871750 0.936430 0.988010 -0.399552
O21   O     O_3   0.925928 0.162673 0.501121 -0.540744
C45   C     C_3   0.750104 0.156236 0.465449 -0.236625
H13   H     H_    0.724026 0.227066 0.449939 0.139822
H14   H     H_    0.622845 0.136734 0.493645 0.106917
H15   H     H_    0.761995 0.097565 0.419064 0.158028
O22   O     O_3   0.032174 0.299790 0.153479 -0.537635
C46   C     C_3   0.179930 0.370844 0.174862 -0.202993
H16   H     H_    0.302033 0.338219 0.197463 0.103291
H17   H     H_    0.123285 0.437055 0.210032 0.139969
H18   H     H_    0.236648 0.395623 0.130347 0.151449
C47   C     C_2   0.823522 0.103076 0.234989 0.278915
H19   H     H_    0.802060 0.135695 0.287525 0.070414
O23   O     O_2   0.811341 0.012731 0.217294 -0.515068
O24   O     O_3   0.527125 0.740878 0.813000 -0.548698
C48   C     C_3   0.540333 0.673506 0.855838 -0.256171
H20   H     H_    0.409810 0.624559 0.852070 0.135269
H21   H     H_    0.565842 0.712858 0.908724 0.157256
H22   H     H_    0.665153 0.625111 0.840174 0.193249
C49   C     C_2   0.526303 0.770104 0.678962 0.479399
H23   H     H_    0.657758 0.748294 0.651533 0.029296
O25   O     O_2   0.513152 0.855921 0.710029 -0.518864
O26   O     O_3   0.460796 0.830961 0.495677 -0.589250
C50   C     C_3   0.307287 0.883118 0.530866 -0.260820
H24   H     H_    0.170368 0.839167 0.521257 0.157183
H25   H     H_    0.292201 0.957140 0.518140 0.190019
H26   H     H_    0.338179 0.895832 0.585376 0.189589
O27   O     O_3   0.307678 0.666849 0.004227 -0.582837
C51   C     C_3   0.114997 0.641701 0.985198 -0.311862
H27   H     H_    0.015092 0.701470 0.008563 0.154875
H28   H     H_    0.070865 0.569852 0.997667 0.165547
H29   H     H_    0.102442 0.632794 0.930064 0.157480
O28   O     O_3   0.424372 0.991271 0.180217 -0.541878
C52   C     C_3   0.337909 0.080224 0.213479 -0.208634
H30   H     H_    0.435973 0.124451 0.251842 0.108672
H31   H     H_    0.198745 0.066265 0.236706 0.135306
H32   H     H_    0.311189 0.126379 0.176342 0.172213
O29   O     O_3   0.964451 0.020669 0.575063 -0.566980
C53   C     C_3   0.794812 0.962043 0.562189 -0.208284
H33   H     H_    0.711745 0.961701 0.608744 0.152837
H34   H     H_    0.834487 0.884231 0.540565 0.177998
H35   H     H_    0.702981 0.987244 0.524877 0.170626
O30   O     O_3   0.801927 0.330608 0.995079 -0.544011
C54   C     C_3   0.610325 0.357860 0.011212 -0.202598
H36   H     H_    0.505988 0.299362 0.985912 0.140446
H37   H     H_    0.577560 0.430463 0.998695 0.133497
H38   H     H_    0.591196 0.366405 0.066086 0.159000
O31   O     O_3   0.894334 0.447377 0.794269 -0.569104
C55   C     C_3   0.095562 0.461393 0.791651 -0.282694
H39   H     H_    0.163388 0.398157 0.756767 0.158596
H40   H     H_    0.162612 0.472525 0.842335 0.142659
H41   H     H_    0.125823 0.529302 0.772395 0.160398
C56   C     C_2   0.024027 0.017511 0.814678 0.373482
H42   H     H_    0.934828 0.973188 0.841073 0.044420
O32   O     O_2   0.196305 0.003252 0.808335 -0.523712

loop_
_geom_bond_atom_site_label_1
_geom_bond_atom_site_label_2
_ccdc_geom_bond_type
O12   C41   A    
C34   C35   A    
O11   V4    S    
C34   C38   A    
O17   V3    S    
C48   H20   S    
C1    O6    A    
C55   H39   S    
O21   C45   S    
C18   C43   S    
C48   H22   S    
C54   H36   S    
O19   C44   A    
C35   C36   A    
C13   C14   A    
C28   C39   A    
C21   O22   S    
C37   O28   S    
C5    C13   A    
C20   H5    S    
C16   H2    S    
O5    C3    A    
C21   C22   D    
C26   C49   S    
C54   H37   S    
C8    H3    S    
V2    O10   S    
O12   V3    S    
C51   H27   S    
C19   C20   D    
O14   C42   A    
C53   H33   S    
O1    C2    A    
O8    V2    S    
C23   C25   S    
C24   O24   S    
C56   H42   S    
O15   V3    S    
C10   C11   A    
O1    V2    S    
O7    V1    S    
C7    O30   S    
C5    O29   S    
C24   C42   S    
C52   H32   S    
C23   H6    S    
V3    O20   S    
C8    C9    A    
C5    C17   A    
O26   C50   S    
O13   C44   A    
C39   O26   S    
C22   C47   S    
O28   C52   S    
C36   C37   A    
C32   C34   A    
C12   C16   A    
C27   H9    S    
H1    C14   S    
C30   C31   A    
C22   C44   S    
C2    C28   S    
C47   H19   S    
O4    C2    A    
O22   C46   S    
C54   H38   S    
C1    C26   S    
C12   C13   A    
C32   C33   A    
C15   C56   S    
C53   H35   S    
O2    C1    A    
O18   C43   A    
C47   O23   D    
C49   H23   S    
C41   O16   A    
C29   C30   A    
O17   V4    S    
O19   V4    S    
O14   V3    S    
C50   H25   S    
O13   V3    S    
C3    C20   S    
C25   H7    S    
O3    C4    A    
C23   C24   D    
C49   O25   D    
O6    V2    S    
C45   H14   S    
C46   H17   S    
C25   C26   D    
O15   C43   A    
C29   O27   S    
O27   C51   S    
O31   C55   S    
C6    C16   A    
C55   H41   S    
C50   H24   S    
C31   C32   A    
C52   H30   S    
C33   C37   A    
C38   H10   S    
C27   C39   A    
C19   C21   S    
C4    C6    S    
C30   H12   S    
C11   C15   A    
C31   H11   S    
C55   H40   S    
O5    V1    S    
O8    C3    A    
C48   H21   S    
C33   C40   A    
O16   V4    S    
C45   H15   S    
C28   C38   A    
C51   H29   S    
C17   O21   S    
O9    V2    S    
O7    V2    S    
C11   C18   A    
O4    V1    S    
O3    V1    S    
O11   C42   A    
O29   C53   S    
C40   C41   S    
C9    O31   S    
C51   H28   S    
C50   H26   S    
C19   H4    S    
C10   C12   A    
O24   C48   S    
C53   H34   S    
V4    O20   S    
C7    C8    A    
C46   H16   S    
C56   O32   D    
C45   H13   S    
C46   H18   S    
C27   C35   A    
H8    C36   S    
C29   C40   A    
C9    C10   A    
V1    O10   S    
C52   H31   S    
O30   C54   S    
O9    C4    A    
C6    C17   A    
O18   V4    S    
C14   C15   A    
C7    C18   A    
O2    V1    S    
