data_mof_unit_61576.cif
_audit_creation_date              2012-12-10T18:33:09-0500
_audit_creation_method            fapswitch 2.2
_symmetry_space_group_name_H-M    P1
_symmetry_Int_Tables_number       1
_space_group_crystal_system       triclinic
_cell_length_a                    38.737078
_cell_length_b                    45.306617
_cell_length_c                    29.712969
_cell_angle_alpha                 90.022699
_cell_angle_beta                  130.908384
_cell_angle_gamma                 89.9695
_cell_volume                      39410.9618981

loop_
_atom_site_label
_atom_site_type_symbol
_atom_type_description
_atom_site_fract_x
_atom_site_fract_y
_atom_site_fract_z
_atom_type_partial_charge
C1    C     C_R   0.790434 0.790481 0.081263 0.927768
C2    C     C_R   0.534419 0.752637 0.999255 0.347572
C3    C     C_3   0.827937 0.117522 0.184033 -0.478498
C4    C     C_3   0.596261 0.639066 0.768457 -0.173149
C5    C     C_3   0.404300 0.639723 0.233032 -0.171470
C6    C     C_3   0.096946 0.138291 0.769975 -0.168861
C7    C     C_3   0.904803 0.140361 0.234332 -0.168432
C8    C     C_3   0.573049 0.614819 0.719525 -0.516760
C9    C     C_3   0.427438 0.615434 0.281861 -0.516450
C10   C     C_3   0.073732 0.114057 0.721025 -0.518243
C11   C     C_3   0.927914 0.116046 0.283110 -0.518052
C12   C     C_1   0.562797 0.563039 0.625165 -0.045751
C13   C     C_R   0.962392 0.254641 0.994686 0.344945
C14   C     C_1   0.437102 0.562986 0.374736 -0.045141
C15   C     C_1   0.062830 0.063009 0.625216 -0.046852
C16   C     C_1   0.937090 0.062976 0.374717 -0.046369
C17   C     C_3   0.644197 0.646644 0.789136 0.153488
C18   C     C_3   0.355679 0.646590 0.210780 0.153043
C19   C     C_3   0.144208 0.146595 0.789215 0.154047
C20   C     C_3   0.855643 0.146589 0.210779 0.154247
C21   C     C_3   0.650058 0.593396 0.766792 0.252340
C22   C     C_3   0.350603 0.593018 0.232392 0.250991
C23   C     C_3   0.150852 0.093678 0.766235 0.252634
C24   C     C_R   0.033186 0.254204 0.996781 0.326595
C25   C     C_3   0.851305 0.092753 0.231855 0.252857
C26   C     C_3   0.604507 0.605388 0.706763 0.020628
C27   C     C_3   0.395290 0.605286 0.293046 0.019865
C28   C     C_3   0.104523 0.105355 0.706812 0.021086
C29   C     C_3   0.895230 0.105256 0.292987 0.020865
C30   C     C_3   0.615265 0.632945 0.685920 0.305957
C31   C     C_3   0.383047 0.632424 0.313000 0.306746
C32   C     C_3   0.113871 0.133305 0.685152 0.307261
C33   C     C_3   0.881734 0.132008 0.312151 0.306650
C34   C     C_3   0.639482 0.656906 0.735433 -0.385321
C35   C     C_3   0.907025 0.840043 0.272315 -0.270459
C36   C     C_3   0.358886 0.656403 0.263533 -0.387790
C37   C     C_3   0.138112 0.157259 0.734677 -0.387159
C38   C     C_3   0.857601 0.155998 0.262708 -0.387889
C39   C     C_R   0.818037 0.750583 0.001375 0.924611
C40   C     C_R   0.181939 0.750598 0.998602 0.916643
C41   C     C_R   0.318056 0.250592 0.001405 0.916848
C42   C     C_R   0.681938 0.250603 0.998596 0.916872
C43   C     C_1   0.581626 0.582128 0.661902 0.068842
C44   C     C_1   0.418203 0.582040 0.337931 0.069579
C45   C     C_1   0.081668 0.082091 0.661966 0.068745
C46   C     C_3   0.095027 0.839277 0.726060 -0.282723
C47   C     C_1   0.918169 0.082019 0.337889 0.069184
C48   C     C_1   0.667504 0.669126 0.835626 0.012025
C49   C     C_1   0.332433 0.669091 0.164322 0.015157
C50   C     C_1   0.167502 0.169092 0.835679 0.014142
C51   C     C_1   0.832414 0.169091 0.164324 0.014391
C52   C     C_1   0.686700 0.687542 0.873716 -0.103183
C53   C     C_1   0.313290 0.687526 0.126267 -0.103092
C54   C     C_1   0.186682 0.187528 0.873736 -0.104105
C55   C     C_1   0.813282 0.187527 0.126268 -0.104733
C56   C     C_R   0.040558 0.959499 0.580953 0.894454
C57   C     C_3   0.406809 0.339990 0.272510 -0.282368
C58   C     C_R   0.959468 0.959484 0.419073 0.895531
C59   C     C_R   0.540557 0.459499 0.580952 0.894342
C60   C     C_R   0.459459 0.459497 0.419053 0.894868
C61   C     C_R   0.459250 0.540559 0.418590 0.900868
C62   C     C_R   0.540727 0.540570 0.581392 0.900221
C63   C     C_R   0.959250 0.040559 0.418589 0.901794
C64   C     C_R   0.040737 0.040560 0.581408 0.900217
C65   C     C_R   0.653775 0.750040 0.052334 -0.277313
C66   C     C_R   0.370366 0.777833 0.998203 -0.277724
C67   C     C_R   0.127256 0.277452 0.997597 -0.251743
C68   C     C_3   0.594754 0.339378 0.726258 -0.281707
C69   C     C_R   0.871032 0.277683 0.999385 -0.279668
C70   C     C_R   0.618974 0.751028 0.054753 0.377990
C71   C     C_R   0.404243 0.780261 0.994255 0.382824
C72   C     C_R   0.090957 0.279748 0.996851 0.370298
C73   C     C_R   0.905077 0.280063 0.995764 0.371391
C74   C     C_R   0.573043 0.751586 0.000900 -0.031198
C75   C     C_R   0.424210 0.754272 0.993895 -0.029107
C76   C     C_R   0.071472 0.253682 0.997779 -0.046455
C77   C     C_R   0.924661 0.254044 0.994798 -0.030095
C78   C     C_R   0.563084 0.750178 0.946311 -0.276783
C79   C     C_3   0.865996 0.881062 0.190587 0.219892
C80   C     C_R   0.408949 0.726608 0.995743 -0.274443
C81   C     C_R   0.087894 0.226077 0.997892 -0.279333
C82   C     C_R   0.908913 0.226397 0.995715 -0.286598
C83   C     C_R   0.597788 0.748453 0.943820 -0.019126
C84   C     C_R   0.375274 0.724124 0.000073 -0.007101
C85   C     C_R   0.123418 0.223713 0.997013 -0.002146
C86   C     C_R   0.875089 0.223949 0.999791 -0.001139
C87   C     C_2   0.903535 0.810238 0.293076 0.490891
C88   C     C_2   0.101657 0.810139 0.706693 0.495362
C89   C     C_2   0.402922 0.310273 0.293128 0.495979
C90   C     C_3   0.130859 0.880194 0.807540 0.217116
C91   C     C_2   0.600981 0.310149 0.706697 0.494267
C92   C     C_2   0.564169 0.664990 0.747953 0.545696
C93   C     C_2   0.435857 0.666043 0.254509 0.541291
C94   C     C_2   0.064327 0.163778 0.750260 0.538649
C95   C     C_2   0.935841 0.167028 0.256521 0.536439
C96   C     C_2   0.583873 0.744784 0.884183 0.439170
C97   C     C_2   0.364189 0.694011 0.007074 0.429925
C98   C     C_2   0.135904 0.193612 0.992124 0.424856
C99   C     C_2   0.863501 0.193821 0.005938 0.422421
C100  C     C_2   0.938661 0.834205 0.259380 0.631967
C101  C     C_3   0.366451 0.380982 0.190741 0.216409
C102  C     C_2   0.061705 0.831762 0.735504 0.646143
C103  C     C_2   0.438692 0.333928 0.260058 0.645386
C104  C     C_2   0.561631 0.332081 0.736140 0.645229
C105  C     C_R   0.209504 0.790484 0.918736 0.926125
C106  C     C_3   0.631258 0.380318 0.807802 0.216453
C107  C     C_3   0.897250 0.902660 0.243543 -0.404867
C108  C     C_3   0.099703 0.901583 0.754150 -0.405366
C109  C     C_3   0.397686 0.402567 0.243738 -0.404413
C110  C     C_3   0.600088 0.401735 0.754468 -0.404819
C111  C     C_1   0.937883 0.936757 0.375792 -0.088564
C112  C     C_1   0.062205 0.936800 0.624280 -0.088723
C113  C     C_1   0.437855 0.436804 0.375710 -0.087301
C114  C     C_1   0.562202 0.436801 0.624282 -0.087389
C115  C     C_3   0.858797 0.852007 0.213314 -0.105171
C116  C     C_R   0.290471 0.290483 0.081264 0.925236
C117  C     C_3   0.141434 0.852012 0.786657 -0.107277
C118  C     C_3   0.358808 0.352048 0.213263 -0.107780
C119  C     C_3   0.641404 0.352018 0.786669 -0.107642
C120  C     C_3   0.925741 0.863662 0.323439 0.230739
C121  C     C_3   0.076742 0.863195 0.675577 0.230021
C122  C     C_3   0.425440 0.363661 0.323519 0.230157
C123  C     C_3   0.576420 0.363259 0.675697 0.230575
C124  C     C_3   0.899495 0.893651 0.295783 0.010292
C125  C     C_3   0.100738 0.893676 0.704233 0.011792
C126  C     C_3   0.399477 0.393719 0.295675 0.010386
C127  C     C_R   0.709509 0.290484 0.918736 0.926855
C128  C     C_3   0.600712 0.393682 0.704247 0.010523
C129  C     C_3   0.850059 0.888811 0.271092 -0.531803
C130  C     C_3   0.151314 0.890478 0.732336 -0.532976
C131  C     C_3   0.349870 0.389111 0.270503 -0.531263
C132  C     C_3   0.651158 0.390275 0.731925 -0.531613
C133  C     C_R   0.682053 0.749511 0.998813 0.935229
C134  C     C_R   0.317862 0.749608 0.000975 0.945509
C135  C     C_R   0.182077 0.249586 0.998905 0.941120
C136  C     C_R   0.817906 0.249561 0.001065 0.943949
C137  C     C_3   0.827360 0.862411 0.226850 0.242128
C138  C     C_R   0.643767 0.749081 0.997712 -0.104492
C139  C     C_3   0.174305 0.864110 0.776639 0.243544
C140  C     C_3   0.327159 0.362695 0.226309 0.243587
C141  C     C_3   0.674107 0.363899 0.776211 0.242285
C142  C     C_1   0.920396 0.917363 0.339719 0.096988
C143  C     C_1   0.079767 0.917414 0.660362 0.096264
C144  C     C_1   0.420366 0.417432 0.339598 0.096887
C145  C     C_1   0.579754 0.417417 0.660369 0.097095
C146  C     C_1   0.833817 0.830277 0.165237 0.118550
C147  C     C_1   0.166289 0.830300 0.834784 0.118995
C148  C     C_1   0.333852 0.330301 0.165206 0.119594
C149  C     C_R   0.355392 0.750182 0.000543 -0.096957
C150  C     C_1   0.666273 0.330300 0.834785 0.119382
C151  C     C_1   0.813555 0.812310 0.126288 0.010486
C152  C     C_1   0.186446 0.812324 0.873726 0.013236
C153  C     C_1   0.313601 0.312320 0.126281 0.014838
C154  C     C_1   0.686443 0.312324 0.873725 0.013635
C155  C     C_R   0.847139 0.751830 0.949005 -0.231732
C156  C     C_R   0.152833 0.752709 0.050958 -0.228968
C157  C     C_R   0.347162 0.252266 0.949056 -0.229568
C158  C     C_R   0.652811 0.252713 0.050915 -0.228918
C159  C     C_R   0.882516 0.751747 0.948127 -0.118115
C160  C     C_R   0.143854 0.249867 0.997992 -0.106684
C161  C     C_R   0.117508 0.752664 0.051938 -0.121371
C162  C     C_R   0.382509 0.252296 0.948126 -0.121840
C163  C     C_R   0.617475 0.252758 0.051868 -0.121970
C164  C     C_R   0.928007 0.751250 0.001631 -0.006115
C165  C     C_R   0.072032 0.751360 0.998548 0.015792
C166  C     C_R   0.427999 0.251519 0.001583 0.015714
C167  C     C_R   0.571998 0.251583 0.998457 0.015607
C168  C     C_R   0.937584 0.751127 0.056058 -0.193503
C169  C     C_R   0.062406 0.750408 0.944116 -0.216621
C170  C     C_R   0.437609 0.250991 0.056021 -0.217913
C171  C     C_R   0.855546 0.250047 0.000838 -0.096306
C172  C     C_R   0.562382 0.250657 0.944032 -0.217781
C173  C     C_R   0.902352 0.751419 0.057601 0.439953
C174  C     C_R   0.097562 0.750598 0.942422 0.402268
C175  C     C_R   0.402416 0.251099 0.057648 0.402467
C176  C     C_R   0.597554 0.250750 0.942366 0.402921
C177  C     C_R   0.856568 0.751282 0.003233 -0.167889
C178  C     C_R   0.143385 0.751302 0.996744 -0.151837
C179  C     C_R   0.356608 0.251300 0.003286 -0.150894
C180  C     C_R   0.643373 0.251339 0.996707 -0.151956
C181  C     C_R   0.709313 0.709488 0.918582 0.924627
C182  C     C_R   0.462014 0.754800 0.993833 0.350911
C183  C     C_R   0.290717 0.709485 0.081419 0.922661
C184  C     C_R   0.209287 0.209486 0.918583 0.922230
C185  C     C_R   0.790718 0.209485 0.081419 0.921412
C186  C     C_R   0.034601 0.751235 0.999411 0.326711
C187  C     C_R   0.965468 0.751159 0.000829 0.330850
C188  C     C_R   0.534563 0.251539 0.999309 0.327618
C189  C     C_R   0.465442 0.251501 0.000746 0.327596
C190  C     C_3   0.673437 0.618132 0.814679 -0.480045
C191  C     C_3   0.327245 0.617776 0.184546 -0.477380
C192  C     C_3   0.174199 0.118410 0.814138 -0.479287
H1    H     H_    0.689117 0.750321 0.093337 0.206795
H2    H     H_    0.205335 0.873034 0.820064 0.117588
H3    H     H_    0.510733 0.240805 0.806392 0.366583
H4    H     H_    0.530712 0.660979 0.733872 0.063188
H5    H     H_    0.469742 0.662536 0.269619 0.071993
H6    H     H_    0.031343 0.159261 0.737273 0.067113
H7    H     H_    0.970081 0.163970 0.272548 0.067125
H8    H     H_    0.738255 0.593774 0.752998 0.406765
H9    H     H_    0.260257 0.591586 0.242205 0.406589
H10   H     H_    0.236979 0.095898 0.748797 0.405329
H11   H     H_    0.759284 0.089680 0.238414 0.405475
H12   H     H_    0.506137 0.673392 0.579626 0.412679
H13   H     H_    0.294895 0.371210 0.183670 0.117688
H14   H     H_    0.490837 0.673757 0.421733 0.413850
H15   H     H_    0.003461 0.172684 0.581040 0.412452
H16   H     H_    0.988238 0.174169 0.422747 0.413687
H17   H     H_    0.549655 0.751067 0.844635 0.082851
H18   H     H_    0.372522 0.674988 0.993524 0.076807
H19   H     H_    0.127149 0.174649 0.005241 0.071677
H20   H     H_    0.871442 0.174870 0.991751 0.074440
H21   H     H_    0.033251 0.880146 0.473846 0.403810
H22   H     H_    0.971581 0.878302 0.522353 0.404125
H23   H     H_    0.532625 0.379971 0.474340 0.404156
H24   H     H_    0.705324 0.372766 0.819529 0.118584
H25   H     H_    0.470948 0.378537 0.522808 0.403918
H26   H     H_    0.935154 0.813775 0.237531 0.116222
H27   H     H_    0.065555 0.811047 0.756819 0.137235
H28   H     H_    0.435141 0.313463 0.238273 0.139919
H29   H     H_    0.565435 0.311402 0.757521 0.137473
H30   H     H_    0.936199 0.893627 0.148306 0.401547
H31   H     H_    0.054504 0.888643 0.841237 0.402636
H32   H     H_    0.437523 0.392948 0.149617 0.402953
H33   H     H_    0.555651 0.389295 0.842588 0.403064
H34   H     H_    0.850376 0.885258 0.308417 0.257219
H35   H     H_    0.153220 0.887775 0.696785 0.256908
H36   H     H_    0.349867 0.385699 0.307587 0.257052
H37   H     H_    0.652788 0.387463 0.696145 0.257286
H38   H     H_    0.916414 0.855916 0.349774 0.154703
H39   H     H_    0.088391 0.856475 0.651401 0.155419
H40   H     H_    0.415786 0.356063 0.349561 0.155306
H41   H     H_    0.354616 0.797655 0.998041 0.196061
H42   H     H_    0.587781 0.356405 0.651243 0.155434
H43   H     H_    0.829515 0.909153 0.247722 0.191493
H44   H     H_    0.170201 0.911170 0.756427 0.192323
H45   H     H_    0.329536 0.409498 0.246977 0.193710
H46   H     H_    0.670263 0.410925 0.755942 0.193546
H47   H     H_    0.812200 0.751887 0.907113 0.176177
H48   H     H_    0.187769 0.753396 0.092807 0.176262
H49   H     H_    0.312220 0.252571 0.907179 0.175419
H50   H     H_    0.687746 0.253315 0.092776 0.176292
H51   H     H_    0.874131 0.751987 0.905478 0.174786
H52   H     H_    0.142891 0.297363 0.997893 0.199602
H53   H     H_    0.125922 0.753555 0.094582 0.174063
H54   H     H_    0.374103 0.252851 0.905472 0.173275
H55   H     H_    0.625882 0.253625 0.094509 0.173560
H56   H     H_    0.972636 0.751023 0.097530 0.214050
H57   H     H_    0.027344 0.749715 0.902751 0.186348
H58   H     H_    0.472674 0.250705 0.097420 0.186461
H59   H     H_    0.527320 0.250054 0.902656 0.186112
H60   H     H_    0.641019 0.575157 0.782567 0.118138
H61   H     H_    0.360708 0.575109 0.217328 0.118883
H62   H     H_    0.142832 0.075118 0.782657 0.117467
H63   H     H_    0.855563 0.297538 0.999661 0.196551
H64   H     H_    0.862312 0.075151 0.217416 0.117695
H65   H     H_    0.678115 0.610365 0.853930 0.174341
H66   H     H_    0.323655 0.610310 0.145943 0.176996
H67   H     H_    0.179865 0.110368 0.853947 0.175720
H68   H     H_    0.825245 0.110331 0.145987 0.175943
H69   H     H_    0.601921 0.629678 0.807484 0.120713
H70   H     H_    0.399742 0.630632 0.194592 0.125909
H71   H     H_    0.103622 0.128661 0.809533 0.123578
H72   H     H_    0.901163 0.131528 0.196415 0.123337
H73   H     H_    0.565729 0.595346 0.734982 0.170491
H74   H     H_    0.883524 0.925475 0.228323 0.176340
H75   H     H_    0.435791 0.596258 0.267002 0.171477
H76   H     H_    0.067435 0.094304 0.737079 0.169540
H77   H     H_    0.937160 0.097145 0.268808 0.169678
H78   H     H_    0.539277 0.622087 0.677737 0.252427
H79   H     H_    0.460695 0.622914 0.324173 0.253223
H80   H     H_    0.039481 0.121055 0.679735 0.252746
H81   H     H_    0.960703 0.123724 0.325827 0.252730
H82   H     H_    0.674015 0.661154 0.750619 0.174957
H83   H     H_    0.323898 0.660129 0.247219 0.174877
H84   H     H_    0.172201 0.162013 0.748837 0.174462
H85   H     H_    0.111756 0.924629 0.769827 0.175556
H86   H     H_    0.822261 0.159267 0.245465 0.174507
H87   H     H_    0.621068 0.678304 0.718063 0.263685
H88   H     H_    0.376652 0.677980 0.281313 0.263685
H89   H     H_    0.119124 0.178468 0.717676 0.263968
H90   H     H_    0.874800 0.177720 0.280782 0.263773
H91   H     H_    0.638978 0.625942 0.679092 0.174202
H92   H     H_    0.358874 0.624900 0.318688 0.173961
H93   H     H_    0.137140 0.126819 0.677281 0.173594
H94   H     H_    0.857210 0.124023 0.316900 0.173904
H95   H     H_    0.527735 0.750039 0.905161 0.167959
H96   H     H_    0.384172 0.425415 0.228422 0.177424
H97   H     H_    0.424871 0.706737 0.996301 0.166585
H98   H     H_    0.072204 0.206156 0.997578 0.159924
H99   H     H_    0.924548 0.206520 0.995716 0.159171
H100  H     H_    0.708213 0.623160 0.831318 0.245917
H101  H     H_    0.292026 0.622299 0.166798 0.245791
H102  H     H_    0.208537 0.123945 0.829776 0.245315
H103  H     H_    0.792372 0.121597 0.165373 0.245636
H104  H     H_    0.832173 0.892228 0.159375 0.112336
H105  H     H_    0.163773 0.892133 0.840339 0.114389
H106  H     H_    0.332736 0.392251 0.159291 0.115803
H107  H     H_    0.612360 0.424756 0.770101 0.176557
H108  H     H_    0.664296 0.392160 0.840412 0.115286
H109  H     H_    0.932322 0.902961 0.259572 0.293811
H110  H     H_    0.063943 0.900690 0.735645 0.293661
H111  H     H_    0.432864 0.402704 0.260113 0.293645
H112  H     H_    0.564405 0.400995 0.736271 0.293692
H113  H     H_    0.833754 0.812416 0.330757 0.413789
H114  H     H_    0.176370 0.816302 0.677234 0.408300
H115  H     H_    0.332498 0.313068 0.329803 0.408626
H116  H     H_    0.675091 0.315806 0.676180 0.408819
H117  H     H_    0.918831 0.806995 0.339045 0.133755
H118  H     H_    0.794929 0.870882 0.184365 0.110777
H119  H     H_    0.088363 0.807275 0.661518 0.132893
H120  H     H_    0.417940 0.307092 0.338998 0.132311
H121  H     H_    0.587435 0.307234 0.661413 0.132685
H122  H     H_    0.647517 0.797340 0.140089 0.369314
H123  H     H_    0.462999 0.825443 0.080926 0.357990
H124  H     H_    0.003381 0.307731 0.905660 0.355220
H125  H     H_    0.964726 0.324555 0.083826 0.352563
H126  H     H_    0.977132 0.765068 0.217891 0.397745
H127  H     H_    0.010713 0.740568 0.806442 0.367744
H128  H     H_    0.489194 0.241899 0.193776 0.366974
N1    N     N_R   0.498100 0.734534 0.961927 -0.158088
N2    N     N_R   0.990503 0.750788 0.947778 -0.153676
N3    N     N_R   0.509546 0.251689 0.052384 -0.153766
N4    N     N_R   0.490459 0.251331 0.947673 -0.154134
N5    N     N_R   0.043504 0.751610 0.051786 -0.155539
N6    N     N_R   0.956570 0.750757 0.948461 -0.156913
N7    N     N_R   0.543476 0.251713 0.051691 -0.158108
N8    N     N_R   0.456530 0.251319 0.948366 -0.158479
N9    N     N_R   0.462652 0.735454 0.959559 -0.155966
N10   N     N_R   0.996785 0.236203 0.959152 -0.163954
N11   N     N_R   0.961987 0.236388 0.958171 -0.154674
N12   N     N_R   0.498252 0.772986 0.030988 -0.051831
N13   N     N_R   0.533706 0.772088 0.033315 -0.050249
N14   N     N_R   0.999291 0.272095 0.033337 -0.065258
N15   N     N_R   0.034106 0.271899 0.034345 -0.050780
N16   N     N_R   0.009568 0.751569 0.052470 -0.149155
O1    O     O_R   0.798060 0.763370 0.096070 -0.558345
O2    O     O_R   0.502080 0.530770 0.561700 -0.620918
O3    O     O_2   0.167656 0.057270 0.708841 -0.284628
O4    O     O_3   0.214715 0.105940 0.749688 -0.577663
O5    O     O_2   0.776041 0.059138 0.175856 -0.252830
O6    O     O_2   0.832682 0.053825 0.284036 -0.286699
O7    O     O_3   0.781976 0.100964 0.240049 -0.576854
O8    O     O_2   0.584541 0.671049 0.597183 -0.254261
O9    O     O_2   0.541639 0.625089 0.567872 -0.255871
O10   O     O_3   0.530840 0.665427 0.619986 -0.543973
O11   O     O_2   0.411181 0.670289 0.401056 -0.255157
O12   O     O_2   0.455405 0.624822 0.431641 -0.255980
O13   O     O_R   0.997920 0.030770 0.438300 -0.621907
O14   O     O_3   0.466780 0.665787 0.381153 -0.541039
O15   O     O_2   0.080744 0.171653 0.595920 -0.256366
O16   O     O_2   0.039240 0.125152 0.567673 -0.256847
O17   O     O_3   0.028758 0.164769 0.621193 -0.542209
O18   O     O_2   0.907666 0.169599 0.399593 -0.254196
O19   O     O_2   0.953066 0.124616 0.431224 -0.255927
O20   O     O_3   0.964747 0.166183 0.382022 -0.541838
O21   O     O_2   0.609166 0.733525 0.877994 -0.547788
O22   O     O_2   0.347818 0.689855 0.030335 -0.568715
O23   O     O_2   0.153845 0.189363 0.970935 -0.567393
O24   O     O_R   0.002080 0.030770 0.561700 -0.620437
O25   O     O_2   0.847177 0.189553 0.029230 -0.569886
O26   O     O_2   0.009382 0.837088 0.392679 -0.261569
O27   O     O_2   0.006417 0.888729 0.364935 -0.230828
O28   O     O_3   0.999603 0.877904 0.444499 -0.539220
O29   O     O_2   0.994863 0.834518 0.602008 -0.255078
O30   O     O_2   0.993170 0.885597 0.628474 -0.229819
O31   O     O_3   0.005264 0.876873 0.553411 -0.539011
O32   O     O_2   0.508883 0.336802 0.393409 -0.256661
O33   O     O_2   0.506528 0.388375 0.365802 -0.229192
O34   O     O_3   0.498966 0.377832 0.444749 -0.539929
O35   O     O_R   0.440430 0.530760 0.438330 -0.586525
O36   O     O_2   0.494291 0.334846 0.602649 -0.257328
O37   O     O_2   0.493195 0.386007 0.629299 -0.229834
O38   O     O_3   0.504633 0.377004 0.553656 -0.539172
O39   O     O_2   0.966798 0.852087 0.270334 -0.441748
O40   O     O_2   0.031745 0.848603 0.722323 -0.436261
O41   O     O_2   0.467091 0.351668 0.271334 -0.436941
O42   O     O_2   0.531895 0.349058 0.723241 -0.436692
O43   O     O_2   0.887092 0.846171 0.134860 -0.275441
O44   O     O_2   0.845153 0.891833 0.085887 -0.268639
O45   O     O_3   0.931371 0.895571 0.177047 -0.490803
O46   O     O_R   0.559570 0.530760 0.561670 -0.586071
O47   O     O_2   0.108143 0.843163 0.858864 -0.271809
O48   O     O_2   0.146283 0.889545 0.909089 -0.268118
O49   O     O_3   0.060958 0.891448 0.814305 -0.489506
O50   O     O_2   0.387763 0.345768 0.135617 -0.274142
O51   O     O_2   0.346360 0.391553 0.086454 -0.264308
O52   O     O_3   0.432480 0.395007 0.178127 -0.488679
O53   O     O_2   0.608731 0.343558 0.859677 -0.272224
O54   O     O_2   0.647362 0.389860 0.909768 -0.265732
O55   O     O_3   0.561905 0.391989 0.815426 -0.488828
O56   O     O_R   0.940430 0.030760 0.438330 -0.586318
O57   O     O_R   0.059570 0.030760 0.561670 -0.586893
O58   O     O_R   0.763350 0.798040 0.026640 -0.623308
O59   O     O_R   0.236650 0.798040 0.973360 -0.622090
O60   O     O_R   0.263350 0.298040 0.026640 -0.619393
O61   O     O_R   0.201940 0.763370 0.903930 -0.560998
O62   O     O_R   0.736650 0.298040 0.973360 -0.621200
O63   O     O_R   0.716420 0.732650 0.034650 -0.619234
O64   O     O_R   0.283580 0.732650 0.965350 -0.585878
O65   O     O_R   0.216420 0.232650 0.034650 -0.585024
O66   O     O_R   0.783580 0.232650 0.965350 -0.585041
O67   O     O_R   0.681710 0.767330 0.965220 -0.592953
O68   O     O_R   0.318290 0.767330 0.034780 -0.626711
O69   O     O_R   0.181710 0.267330 0.965220 -0.623734
O70   O     O_R   0.818290 0.267330 0.034780 -0.627846
O71   O     O_R   0.736630 0.701940 0.973210 -0.627630
O72   O     O_R   0.298060 0.263370 0.096070 -0.561140
O73   O     O_R   0.263370 0.701940 0.026790 -0.597529
O74   O     O_R   0.236630 0.201940 0.973210 -0.597122
O75   O     O_R   0.763370 0.201940 0.026790 -0.597795
O76   O     O_R   0.701920 0.736610 0.903790 -0.581519
O77   O     O_R   0.298080 0.736610 0.096210 -0.611127
O78   O     O_R   0.201920 0.236610 0.903790 -0.611573
O79   O     O_R   0.798080 0.236610 0.096210 -0.611119
O80   O     O_R   0.818270 0.732650 0.034640 -0.565297
O81   O     O_R   0.181730 0.732650 0.965360 -0.566157
O82   O     O_R   0.318270 0.232650 0.034640 -0.567693
O83   O     O_R   0.701940 0.263370 0.903930 -0.561104
O84   O     O_R   0.681730 0.232650 0.965360 -0.566672
O85   O     O_R   0.783570 0.767330 0.965210 -0.622224
O86   O     O_R   0.216430 0.767330 0.034790 -0.621121
O87   O     O_R   0.283570 0.267330 0.965210 -0.620067
O88   O     O_R   0.716430 0.267330 0.034790 -0.620410
O89   O     O_R   0.059430 0.969340 0.561280 -0.607871
O90   O     O_R   0.940570 0.969340 0.438720 -0.608232
O91   O     O_R   0.559430 0.469340 0.561280 -0.607257
O92   O     O_R   0.440570 0.469340 0.438720 -0.607995
O93   O     O_2   0.765703 0.846182 0.236426 -0.244547
O94   O     O_R   0.001940 0.969340 0.561310 -0.600275
O95   O     O_2   0.795911 0.806405 0.215471 -0.259738
O96   O     O_3   0.847477 0.827769 0.322991 -0.576643
O97   O     O_2   0.240186 0.850865 0.773264 -0.224154
O98   O     O_2   0.210047 0.809320 0.790519 -0.258233
O99   O     O_3   0.160655 0.830838 0.683326 -0.583272
O100  O     O_2   0.264952 0.346880 0.235113 -0.228440
O101  O     O_2   0.295232 0.306843 0.214780 -0.260300
O102  O     O_3   0.346475 0.328298 0.322205 -0.582075
O103  O     O_2   0.739467 0.350268 0.772038 -0.221211
O104  O     O_2   0.709292 0.308944 0.789733 -0.258295
O105  O     O_R   0.998060 0.969340 0.438690 -0.598984
O106  O     O_3   0.659627 0.330448 0.682498 -0.582667
O107  O     O_2   0.886196 0.788874 0.259887 -0.509987
O108  O     O_2   0.119318 0.788811 0.739951 -0.510352
O109  O     O_2   0.385570 0.288902 0.259961 -0.507764
O110  O     O_2   0.618596 0.288814 0.739939 -0.510595
O111  O     O_2   0.604315 0.729273 0.125064 -0.235318
O112  O     O_2   0.683360 0.741068 0.173032 -0.237798
O113  O     O_3   0.627869 0.784427 0.141981 -0.469328
O114  O     O_2   0.424223 0.815383 0.941196 -0.220977
O115  O     O_2   0.382170 0.837896 0.967579 -0.247821
O116  O     O_R   0.501940 0.469340 0.561310 -0.600121
O117  O     O_3   0.468296 0.826685 0.052578 -0.476536
O118  O     O_2   0.086776 0.324226 0.052161 -0.178493
O119  O     O_2   0.086122 0.337683 0.971964 -0.256710
O120  O     O_3   0.012318 0.315338 0.943280 -0.453818
O121  O     O_2   0.925792 0.315444 0.943831 -0.177597
O122  O     O_2   0.884157 0.337932 0.970867 -0.248694
O123  O     O_3   0.970054 0.325943 0.055523 -0.462027
O124  O     O_2   0.888465 0.776902 0.126022 -0.306415
O125  O     O_2   0.908694 0.724366 0.142840 -0.254058
O126  O     O_3   0.972598 0.762605 0.181192 -0.531644
O127  O     O_R   0.498060 0.469340 0.438690 -0.598702
O128  O     O_2   0.110262 0.774845 0.871841 -0.260548
O129  O     O_2   0.092278 0.722168 0.858893 -0.273935
O130  O     O_3   0.026835 0.759720 0.817735 -0.500989
O131  O     O_2   0.389370 0.276163 0.127293 -0.263936
O132  O     O_2   0.407675 0.223503 0.141828 -0.274225
O133  O     O_3   0.472934 0.261023 0.182115 -0.503678
O134  O     O_2   0.610338 0.275048 0.871914 -0.260832
O135  O     O_2   0.592296 0.222377 0.858806 -0.275958
O136  O     O_3   0.526882 0.259946 0.817688 -0.502367
O137  O     O_2   0.574833 0.690236 0.747293 -0.512563
O138  O     O_R   0.497920 0.530770 0.438300 -0.620533
O139  O     O_2   0.424314 0.691060 0.254864 -0.526194
O140  O     O_2   0.074054 0.189218 0.749028 -0.526643
O141  O     O_2   0.923504 0.191840 0.256459 -0.527891
O142  O     O_2   0.726513 0.561553 0.819072 -0.248534
O143  O     O_2   0.667504 0.556092 0.711168 -0.283882
O144  O     O_3   0.715804 0.604252 0.752990 -0.576015
O145  O     O_2   0.274757 0.560219 0.178063 -0.248164
O146  O     O_2   0.332481 0.554868 0.286147 -0.284919
O147  O     O_3   0.282865 0.602489 0.243120 -0.576159
O148  O     O_2   0.227802 0.062807 0.816545 -0.251258
S1    S     S_3+6 0.807860 0.834608 0.249546 0.038639
S2    S     S_3+6 0.082569 0.751646 0.871804 0.068891
S3    S     S_3+6 0.417268 0.252768 0.128144 0.066649
S4    S     S_3+6 0.582602 0.251842 0.871775 0.067514
S5    S     S_3+6 0.690473 0.577619 0.761884 0.015066
S6    S     S_3+6 0.309680 0.576429 0.235517 0.014933
S7    S     S_3+6 0.190768 0.078735 0.759675 0.013005
S8    S     S_3+6 0.810013 0.075438 0.233508 0.012290
S9    S     S_3+6 0.566916 0.648577 0.615028 0.045385
S10   S     S_3+6 0.430215 0.648277 0.384412 0.045983
S11   S     S_3+6 0.064461 0.148672 0.614765 0.044605
S12   S     S_3+6 0.197626 0.837736 0.756901 0.043999
S13   S     S_3+6 0.927880 0.148044 0.383936 0.046239
S14   S     S_3+6 0.987385 0.866665 0.381480 0.056531
S15   S     S_3+6 0.015334 0.864775 0.614585 0.058533
S16   S     S_3+6 0.487066 0.366475 0.381989 0.058052
S17   S     S_3+6 0.514968 0.365020 0.615066 0.057697
S18   S     S_3+6 0.882060 0.877742 0.145254 0.053699
S19   S     S_3+6 0.111881 0.875147 0.849240 0.054839
S20   S     S_3+6 0.382923 0.377407 0.145900 0.056232
S21   S     S_3+6 0.612637 0.375494 0.849965 0.055977
S22   S     S_3+6 0.307194 0.335100 0.248708 0.041412
S23   S     S_3+6 0.696942 0.337338 0.756073 0.045229
S24   S     S_3+6 0.634435 0.750478 0.125655 0.084590
S25   S     S_3+6 0.418752 0.815962 0.986813 0.084171
S26   S     S_3+6 0.069767 0.315414 0.991859 0.100080
S27   S     S_3+6 0.920305 0.315768 0.989438 0.104038
S28   S     S_3+6 0.917135 0.753700 0.127974 0.056193
Zn1   Zn    Zn3+2 0.773170 0.726840 0.046290 1.117324
Zn2   Zn    Zn3+2 0.461680 0.500060 0.500210 1.070368
Zn3   Zn    Zn3+2 0.038320 0.000060 0.499790 1.068333
Zn4   Zn    Zn3+2 0.961680 0.000060 0.500210 1.068887
Zn5   Zn    Zn3+2 0.226830 0.726840 0.953710 1.135951
Zn6   Zn    Zn3+2 0.273170 0.226840 0.046290 1.133513
Zn7   Zn    Zn3+2 0.726830 0.226840 0.953710 1.134128
Zn8   Zn    Zn3+2 0.726820 0.773140 0.953570 1.070066
Zn9   Zn    Zn3+2 0.273180 0.773140 0.046430 1.053151
Zn10  Zn    Zn3+2 0.226820 0.273140 0.953570 1.060309
Zn11  Zn    Zn3+2 0.773180 0.273140 0.046430 1.053796
Zn12  Zn    Zn3+2 0.538320 0.500060 0.499790 1.072893

loop_
_geom_bond_atom_site_label_1
_geom_bond_atom_site_label_2
_ccdc_geom_bond_type
C21   C26   S    
H114  O99   S    
C8    C26   S    
H15   O17   S    
C163  H55   S    
O63   Zn1   S    
C17   C48   S    
H32   O52   S    
O134  S4    D    
C140  H13   S    
C94   O140  D    
C91   H121  S    
C120  S14   S    
H14   O14   S    
C31   S10   S    
O55   S21   S    
O101  S22   D    
C53   C183  S    
C68   C119  S    
C128  C145  S    
C29   C33   S    
N1    N9    A    
C127  C154  S    
C157  C179  A    
C169  H57   S    
C64   O24   A    
C158  C180  A    
C13   N14   A    
C11   H81   S    
O18   S13   D    
C127  O83   A    
C131  C140  S    
C19   C37   S    
C111  C142  T    
C156  C178  A    
O30   S15   D    
C42   C180  S    
C6    C94   S    
C129  H34   S    
C70   C74   A    
C169  C174  A    
C192  H67   S    
O27   S14   D    
C35   C115  S    
C32   S11   S    
C59   O116  A    
C81   H98   S    
C63   O56   A    
O59   Zn9   S    
C2    N13   A    
O46   Zn12  S    
C161  H53   S    
C117  C139  S    
C38   H90   S    
C107  C124  S    
C118  C140  S    
O64   Zn5   S    
C25   H64   S    
C25   C29   S    
N10   N11   A    
C134  O64   A    
C90   C117  S    
C164  C168  A    
C66   C149  A    
C120  H38   S    
O50   S20   D    
O52   S20   S    
C5    C18   S    
C135  O65   A    
O121  S27   D    
O135  S4    D    
C46   C117  S    
O19   S13   D    
O74   Zn6   S    
C12   C62   S    
C136  C171  S    
O66   Zn7   S    
C86   C99   S    
O97   S12   D    
C58   O90   A    
C129  H43   S    
C22   C27   S    
C119  C141  S    
O47   S19   D    
C148  C153  T    
C173  S28   S    
C98   O23   D    
O88   Zn11  S    
H31   O49   S    
C71   S25   S    
C21   S5    S    
C33   C38   S    
C8    H73   S    
C92   H4    S    
C67   H52   S    
O37   S17   D    
C130  H44   S    
C98   H19   S    
C189  N3    A    
O32   S16   D    
C97   O22   D    
C113  C144  T    
C88   O108  D    
C62   O2    A    
O87   Zn10  S    
C96   O21   D    
C77   C82   A    
O124  S28   D    
O8    S9    D    
O80   Zn1   S    
N3    N7    A    
C64   O57   A    
O103  S23   D    
C133  O63   A    
C82   H99   S    
C60   O92   A    
C48   C52   T    
C129  C137  S    
O36   S17   D    
C137  S1    S    
H30   O45   S    
O83   Zn7   S    
C73   C77   A    
C31   C36   S    
C122  S16   S    
C157  C162  A    
C83   C138  A    
C161  C165  A    
O20   S13   S    
C18   C49   S    
C110  C128  S    
C57   C118  S    
C127  O62   A    
C187  N16   A    
C87   H117  S    
O142  S5    D    
C162  H54   S    
O95   S1    D    
C79   C115  S    
C105  O59   A    
O5    S8    D    
H115  O102  S    
O126  S28   S    
C132  H37   S    
H22   O31   S    
O38   S17   S    
C102  O40   D    
C121  C125  S    
C6    C19   S    
C9    H75   S    
C115  C146  S    
C188  N4    A    
C10   H76   S    
C29   C47   S    
C101  C118  S    
O24   Zn4   S    
C49   C53   T    
O29   S15   D    
O79   Zn11  S    
C65   C70   A    
H21   O28   S    
C121  S15   S    
C67   C72   A    
C158  H50   S    
C191  H66   S    
C132  H46   S    
C8    H78   S    
C137  H118  S    
C107  H109  S    
C35   C87   S    
C131  H36   S    
O14   S10   S    
C115  C137  S    
C85   C160  A    
O73   Zn5   S    
C63   O13   A    
C51   C55   T    
C103  H28   S    
C84   C149  A    
O127  Zn12  S    
O117  S25   S    
C40   O81   A    
O13   Zn3   S    
C24   N10   A    
C35   C120  S    
C16   C47   T    
C23   C192  S    
O123  S27   S    
O57   Zn3   S    
C30   C34   S    
C155  C159  A    
N12   N13   A    
C72   S26   S    
C89   O109  D    
N14   N15   A    
C23   C28   S    
C134  C149  S    
C1    O58   A    
H8    O144  S    
C93   H5    S    
C5    C9    S    
O99   S12   S    
C123  H42   S    
C136  O70   A    
C2    N1    A    
O111  S24   D    
C95   O141  D    
C32   C37   S    
O106  S23   S    
O93   S1    D    
C158  C163  A    
C106  S21   S    
O3    S7    D    
C156  C161  A    
C26   C30   S    
C105  O61   A    
O16   S11   D    
H127  O130  S    
C108  H85   S    
C37   H89   S    
O71   Zn1   S    
C181  O76   A    
C62   O46   A    
O49   S19   S    
C132  C141  S    
C192  H102  S    
C188  N7    A    
C168  H56   S    
C73   S27   S    
C41   C179  S    
C114  C145  T    
C61   O35   A    
O119  S26   D    
C166  C170  A    
C17   C190  S    
C182  N9    A    
O77   Zn9   S    
C172  H59   S    
C40   O86   A    
C165  C186  S    
O114  S25   D    
C166  C189  S    
C3    H103  S    
C68   C123  S    
H125  O123  S    
C185  O75   A    
N2    N6    A    
C125  C143  S    
C59   O91   A    
C167  C188  S    
C189  N8    A    
C126  C144  S    
C30   H91   S    
O136  S4    S    
O86   Zn9   S    
O44   S18   D    
C99   O25   D    
C91   O110  D    
C175  S3    S    
C146  C151  T    
C109  C126  S    
C191  H101  S    
O120  S26   S    
O65   Zn6   S    
C15   C45   T    
C159  C164  A    
N5    N16   A    
C184  O78   A    
C22   C191  S    
C135  O69   A    
C75   C182  S    
C1    O1    A    
O70   Zn11  S    
H126  O126  S    
C81   C85   A    
C172  C176  A    
O128  S2    D    
O34   S16   S    
C34   H87   S    
C121  H39   S    
C106  C119  S    
C78   H95   S    
C80   C84   A    
C21   H60   S    
C50   C54   T    
C57   C89   S    
O78   Zn10  S    
C84   C97   S    
C112  C143  T    
C20   C51   S    
C37   H84   S    
O94   Zn4   S    
C141  S23   S    
O82   Zn6   S    
C30   S9    S    
C101  C109  S    
C103  O41   D    
O84   Zn7   S    
C116  O72   A    
C170  H58   S    
C69   C171  A    
C36   H88   S    
C22   H61   S    
O143  S5    D    
C57   C122  S    
O76   Zn8   S    
C109  H96   S    
C78   C83   A    
C190  H100  S    
O56   Zn4   S    
O138  Zn12  S    
C15   C64   S    
C60   O127  A    
C69   C73   A    
C16   C63   S    
C134  O68   A    
C174  C178  A    
C4    C8    S    
C119  C150  S    
C9    H79   S    
C155  H47   S    
C133  C138  S    
C10   H80   S    
C165  C169  A    
C11   H77   S    
O45   S18   S    
C23   H62   S    
O17   S11   S    
C130  C139  S    
C41   O87   A    
C141  H24   S    
C159  H51   S    
C39   C177  S    
C65   H1    S    
C170  C175  A    
C92   O137  D    
C57   C103  S    
C18   C191  S    
H33   O55   S    
C66   H41   S    
C58   C111  S    
O104  S23   D    
H128  O133  S    
C3    C25   S    
O4    S7    S    
C52   C181  S    
C183  O73   A    
C162  C166  A    
H23   O34   S    
O112  S24   D    
C101  S20   S    
C27   C31   S    
C116  O60   A    
O144  S5    S    
C56   O89   A    
C42   O84   A    
C46   C102  S    
C33   S13   S    
C66   C71   A    
C28   C32   S    
N4    N8    A    
C110  H107  S    
C107  H74   S    
C79   C107  S    
O91   Zn12  S    
O15   S11   D    
H16   O20   S    
O116  Zn2   S    
C116  C153  S    
O125  S28   D    
C4    C17   S    
C123  C128  S    
O58   Zn8   S    
C130  H35   S    
O90   Zn4   S    
C5    H70   S    
C54   C184  S    
C176  S4    S    
C89   H120  S    
C9    C27   S    
C14   C44   T    
C10   C28   S    
C105  C152  S    
C88   H119  S    
O31   S15   S    
C135  C160  S    
C22   S6    S    
C24   C76   S    
C68   C104  S    
C6    C10   S    
C167  C172  A    
C133  O67   A    
C122  H40   S    
H122  O113  S    
O146  S6    D    
C117  C147  S    
C118  C148  S    
C31   H92   S    
C101  H106  S    
C82   C86   A    
C41   O82   A    
C19   C50   S    
C59   C114  S    
C182  N12   A    
O96   S1    S    
C124  C129  S    
C1    C151  S    
O51   S20   D    
H124  O120  S    
C90   C108  S    
C79   S18   S    
O81   Zn5   S    
C140  S22   S    
C33   H94   S    
C7    C20   S    
C74   C78   A    
C123  S17   S    
C136  O66   A    
C18   C36   S    
C155  C177  A    
C56   O94   A    
C4    C92   S    
C39   O85   A    
C109  H111  S    
C186  N5    A    
C110  H112  S    
O2    Zn2   S    
C24   N15   A    
C72   C76   A    
C164  C187  S    
C90   S19   S    
O98   S12   D    
C185  O79   A    
C100  O39   D    
C156  H48   S    
C7    C11   S    
C174  S2    S    
O12   S10   D    
H3    O136  S    
O131  S3    D    
O145  S6    D    
H123  O117  S    
C12   C43   T    
C79   H104  S    
C80   H97   S    
C83   C96   S    
C187  N6    A    
C3    H68   S    
C70   S24   S    
C68   C91   S    
H25   O38   S    
C184  O74   A    
O113  S24   S    
H11   O7    S    
H9    O147  S    
C157  H49   S    
O148  S7    D    
C85   C98   S    
C139  S12   S    
O100  S22   D    
C125  C130  S    
C38   H86   S    
H12   O10   S    
C4    H69   S    
C46   C121  S    
C67   C160  A    
C108  C125  S    
C35   C100  S    
C75   C80   A    
C36   H83   S    
O133  S3    S    
C139  H2    S    
C19   C192  S    
C93   O139  D    
O75   Zn7   S    
O118  S26   D    
C190  H65   S    
C124  C142  S    
C60   C113  S    
H116  O106  S    
O69   Zn10  S    
O26   S14   D    
C27   C44   S    
O105  Zn3   S    
C26   C43   S    
C46   C88   S    
C99   H20   S    
C168  C173  A    
C13   C77   S    
C28   C45   S    
C97   H18   S    
C86   C171  A    
O9    S9    D    
C3    C20   S    
O62   Zn11  S    
C32   H93   S    
O132  S3    D    
C175  C179  A    
C14   C61   S    
C186  N2    A    
O6    S8    D    
O7    S8    S    
C94   H6    S    
O68   Zn9   S    
C122  C126  S    
C163  C167  A    
C39   O80   A    
C20   C38   S    
C176  C180  A    
O122  S27   D    
C173  C177  A    
O33   S16   D    
O130  S2    S    
O85   Zn8   S    
C7    H72   S    
C6    H71   S    
C102  H27   S    
C40   C178  S    
C90   H105  S    
C34   H82   S    
O115  S25   D    
C150  C154  T    
C104  O42   D    
C65   C138  A    
O92   Zn2   S    
O53   S21   D    
C104  H29   S    
C183  O77   A    
C69   H63   S    
O28   S14   S    
C106  C110  S    
O72   Zn6   S    
C181  O71   A    
O147  S6    S    
C128  C132  S    
C96   H17   S    
O10   S9    S    
O48   S19   D    
O61   Zn5   S    
C13   N11   A    
C25   S8    S    
O35   Zn2   S    
C2    C74   S    
C76   C81   A    
O43   S18   D    
C5    C93   S    
C7    C95   S    
O1    Zn1   S    
C23   S7    S    
C147  C152  T    
O102  S22   S    
C58   O105  A    
C71   C75   A    
C21   C190  S    
C126  C131  S    
C131  H45   S    
O11   S10   D    
C42   O88   A    
O60   Zn10  S    
O129  S2    D    
C55   C185  S    
C100  H26   S    
C61   O138  A    
C11   C29   S    
C95   H7    S    
C17   C34   S    
H10   O4    S    
O89   Zn3   S    
C87   O107  D    
O54   S21   D    
O67   Zn8   S    
C106  H108  S    
C56   C112  S    
H113  O96   S    
C120  C124  S    
C108  H110  S    
