data_mof_unit_46486.cif
_audit_creation_date              2012-12-11T14:42:01-0500
_audit_creation_method            fapswitch 2.2
_symmetry_space_group_name_H-M    P1
_symmetry_Int_Tables_number       1
_space_group_crystal_system       triclinic
_cell_length_a                    19.058372
_cell_length_b                    10.910441
_cell_length_c                    18.744913
_cell_angle_alpha                 89.985006
_cell_angle_beta                  90.365708
_cell_angle_gamma                 90.348555
_cell_volume                      3897.57642869

loop_
_atom_site_label
_atom_site_type_symbol
_atom_type_description
_atom_site_fract_x
_atom_site_fract_y
_atom_site_fract_z
_atom_type_partial_charge
C1    C     C_R   0.725751 0.958131 0.854604 0.550311
C2    C     C_R   0.272071 0.953263 0.147361 0.539159
C3    C     C_R   0.225750 0.458133 0.854605 0.550315
C4    C     C_R   0.772071 0.453264 0.147361 0.539159
C5    C     C_R   0.691245 0.444716 0.042188 -0.133314
C6    C     C_R   0.302634 0.403916 0.955910 -0.126528
C7    C     C_R   0.191242 0.944704 0.042191 -0.133320
C8    C     C_R   0.802622 0.903810 0.955899 -0.126496
C9    C     C_R   0.747909 0.396725 0.080918 0.013151
C10   C     C_R   0.236887 0.435410 0.929398 0.023824
C11   C     C_R   0.247910 0.896723 0.080919 0.013148
C12   C     C_R   0.736888 0.935412 0.929397 0.023853
C13   C     C_R   0.789963 0.306731 0.050380 -0.139873
C14   C     C_R   0.181039 0.459720 0.975686 -0.133894
C15   C     C_R   0.289970 0.806741 0.050378 -0.139876
C16   C     C_R   0.681061 0.959821 0.975692 -0.133895
C17   C     C_R   0.783103 0.277715 0.978914 -0.028280
C18   C     C_R   0.189714 0.446762 0.048670 -0.030147
C19   C     C_R   0.283113 0.777732 0.978912 -0.028263
C20   C     C_R   0.689741 0.946852 0.048676 -0.030159
C21   C     C_R   0.729316 0.333375 0.937414 0.003114
C22   C     C_R   0.255144 0.410175 0.075372 0.016970
C23   C     C_R   0.229318 0.833379 0.937413 0.003124
C24   C     C_R   0.755153 0.910157 0.075367 0.016985
C25   C     C_R   0.459269 0.272024 0.552096 -0.163492
C26   C     C_R   0.444306 0.272369 0.480594 -0.180710
C27   C     C_R   0.959267 0.772022 0.552097 -0.163494
C28   C     C_R   0.944305 0.772368 0.480594 -0.180713
C29   C     C_R   0.452890 0.166975 0.439907 -0.000392
C30   C     C_R   0.481244 0.164013 0.584837 0.011681
C31   C     C_R   0.952892 0.666975 0.439907 -0.000390
C32   C     C_R   0.981244 0.664012 0.584837 0.011681
C33   C     C_R   0.468794 0.052976 0.473595 0.165145
C34   C     C_R   0.474964 0.051112 0.548737 0.144762
C35   C     C_R   0.968798 0.552978 0.473593 0.165145
C36   C     C_R   0.974969 0.551111 0.548735 0.144763
C37   C     C_R   0.792518 0.325366 0.530432 -0.148525
C38   C     C_R   0.180201 0.398678 0.452426 -0.146719
C39   C     C_R   0.292522 0.825375 0.530433 -0.148522
C40   C     C_R   0.680195 0.898707 0.452420 -0.146708
C41   C     C_R   0.792840 0.333268 0.457621 -0.131926
C42   C     C_R   0.169776 0.424720 0.523346 -0.129649
C43   C     C_R   0.292844 0.833274 0.457623 -0.131921
C44   C     C_R   0.669769 0.924753 0.523340 -0.129644
C45   C     C_R   0.527578 0.177419 0.849063 0.537486
C46   C     C_R   0.442358 0.181551 0.141226 0.561221
C47   C     C_R   0.027578 0.677419 0.849063 0.537497
C48   C     C_R   0.942364 0.681550 0.141225 0.561180
C49   C     C_R   0.751715 0.419597 0.423451 0.018449
C50   C     C_R   0.222723 0.479367 0.563990 0.017950
C51   C     C_R   0.251716 0.919596 0.423451 0.018446
C52   C     C_R   0.722721 0.979375 0.563988 0.017949
C53   C     C_R   0.704731 0.491822 0.462626 -0.131649
C54   C     C_R   0.285209 0.516637 0.531093 -0.144264
C55   C     C_R   0.204728 0.991815 0.462625 -0.131650
C56   C     C_R   0.785212 0.016631 0.531095 -0.144265
C57   C     C_R   0.701466 0.480264 0.536551 -0.024846
C58   C     C_R   0.295127 0.495372 0.458460 -0.032843
C59   C     C_R   0.201462 0.980258 0.536550 -0.024843
C60   C     C_R   0.795130 0.995370 0.458461 -0.032845
C61   C     C_R   0.746333 0.396106 0.570981 0.005424
C62   C     C_R   0.244242 0.427425 0.420006 0.018315
C63   C     C_R   0.246333 0.896108 0.570981 0.005424
C64   C     C_R   0.744241 0.927434 0.420005 0.018315
C65   C     C_R   0.724392 0.311877 0.860004 0.556617
C66   C     C_R   0.262180 0.364491 0.147449 0.544314
C67   C     C_R   0.224393 0.811878 0.860004 0.556621
C68   C     C_R   0.762181 0.864488 0.147448 0.544322
C69   C     C_R   0.710196 0.000486 0.639686 0.567041
C70   C     C_R   0.271752 0.955372 0.352208 0.544813
C71   C     C_R   0.210197 0.500484 0.639686 0.567042
C72   C     C_R   0.771752 0.455373 0.352208 0.544814
C73   C     C_R   0.525379 0.175421 0.648019 0.542630
C74   C     C_R   0.438637 0.179054 0.363398 0.566677
C75   C     C_R   0.025379 0.675421 0.648019 0.542632
C76   C     C_R   0.938638 0.679054 0.363398 0.566674
C77   C     C_R   0.738700 0.360621 0.645397 0.536370
C78   C     C_R   0.259831 0.365939 0.352513 0.541709
C79   C     C_R   0.238700 0.860621 0.645397 0.536367
C80   C     C_R   0.759831 0.865941 0.352513 0.541709
C81   C     C_2   0.484338 0.169941 0.912884 -0.115677
C82   C     C_2   0.466973 0.173770 0.067844 -0.105925
C83   C     C_2   0.984341 0.669944 0.912886 -0.115685
C84   C     C_2   0.966988 0.673763 0.067847 -0.105957
C85   C     C_2   0.455048 0.074212 0.027108 -0.150507
C86   C     C_2   0.480352 0.068544 0.953051 -0.160917
C87   C     C_2   0.955047 0.574214 0.027107 -0.150514
C88   C     C_2   0.980348 0.568544 0.953049 -0.160923
C89   C     C_R   0.681236 0.411345 0.971059 -0.146493
C90   C     C_R   0.311960 0.392507 0.028967 -0.138138
C91   C     C_R   0.181232 0.911334 0.971062 -0.146498
C92   C     C_R   0.811951 0.892387 0.028954 -0.138094
Cr1   Cr    Cr6+3 0.769270 0.163730 0.750710 1.023040
Cr2   Cr    Cr6+3 0.230730 0.163730 0.249290 1.026660
Cr3   Cr    Cr6+3 0.269270 0.663730 0.750710 1.023041
Cr4   Cr    Cr6+3 0.730730 0.663730 0.249290 1.026652
Cr5   Cr    Cr6+3 0.612620 0.009790 0.748780 1.010777
Cr6   Cr    Cr6+3 0.387380 0.009790 0.251220 1.053219
Cr7   Cr    Cr6+3 0.112620 0.509790 0.748780 1.010770
Cr8   Cr    Cr6+3 0.887380 0.509790 0.251220 1.053240
Cr9   Cr    Cr6+3 0.614160 0.322500 0.747710 1.044924
Cr10  Cr    Cr6+3 0.385840 0.322500 0.252290 1.047336
Cr11  Cr    Cr6+3 0.114160 0.822500 0.747710 1.044929
Cr12  Cr    Cr6+3 0.885840 0.822500 0.252290 1.047344
H1    H     H_    0.430520 0.992950 0.049638 0.162966
H2    H     H_    0.499697 0.981525 0.933400 0.156561
H3    H     H_    0.930506 0.492962 0.049634 0.162984
H4    H     H_    0.999682 0.481520 0.933393 0.156548
H5    H     H_    0.829143 0.277959 0.428019 0.156956
H6    H     H_    0.121419 0.396525 0.547290 0.135263
H7    H     H_    0.329150 0.777970 0.428021 0.156965
H8    H     H_    0.621406 0.896582 0.547282 0.135253
H9    H     H_    0.673453 0.561474 0.436373 0.139660
H10   H     H_    0.326827 0.559017 0.562078 0.123383
H11   H     H_    0.173446 0.061461 0.436371 0.139656
H12   H     H_    0.826833 0.058999 0.562081 0.123384
H13   H     H_    0.494297 0.253220 0.046463 0.112170
H14   H     H_    0.461611 0.255069 0.931619 0.106152
H15   H     H_    0.994324 0.753203 0.046469 0.112182
H16   H     H_    0.961622 0.755076 0.931626 0.106157
H17   H     H_    0.638509 0.452582 0.941421 0.149070
H18   H     H_    0.362552 0.363077 0.048863 0.125285
H19   H     H_    0.138502 0.952561 0.941426 0.149068
H20   H     H_    0.862528 0.862874 0.048845 0.125242
H21   H     H_    0.657358 0.513156 0.065364 0.144619
H22   H     H_    0.346126 0.387676 0.920274 0.132777
H23   H     H_    0.157349 0.013134 0.065369 0.144620
H24   H     H_    0.846099 0.887496 0.920256 0.132727
H25   H     H_    0.832876 0.266665 0.080560 0.142467
H26   H     H_    0.130816 0.489631 0.954764 0.130279
H27   H     H_    0.332886 0.766683 0.080556 0.142460
H28   H     H_    0.630853 0.989817 0.954775 0.130246
H29   H     H_    0.459230 0.358783 0.580254 0.157572
H30   H     H_    0.431181 0.357861 0.455924 0.169367
H31   H     H_    0.959227 0.858779 0.580256 0.157572
H32   H     H_    0.931180 0.857859 0.455925 0.169369
H33   H     H_    0.828610 0.261926 0.554798 0.134299
H34   H     H_    0.139387 0.348671 0.424294 0.137368
H35   H     H_    0.328617 0.761941 0.554800 0.134300
H36   H     H_    0.639377 0.848715 0.424285 0.137362
O1    O     O_R   0.784320 0.290430 0.830510 -0.496783
O2    O     O_R   0.215680 0.290430 0.169490 -0.498557
O3    O     O_R   0.284320 0.790430 0.830510 -0.496781
O4    O     O_R   0.715680 0.790430 0.169490 -0.498567
O5    O     O_R   0.554640 0.080370 0.673500 -0.525322
O6    O     O_R   0.445360 0.080370 0.326500 -0.470948
O7    O     O_R   0.054640 0.580370 0.673500 -0.525321
O8    O     O_R   0.945360 0.580370 0.326500 -0.470941
O9    O     O_R   0.543920 0.282180 0.666790 -0.511034
O10   O     O_R   0.456080 0.282180 0.333210 -0.494339
O11   O     O_R   0.043920 0.782180 0.666790 -0.511031
O12   O     O_R   0.956080 0.782180 0.333210 -0.494345
O13   O     O_R   0.679040 0.374160 0.674430 -0.472334
O14   O     O_R   0.320960 0.374160 0.325570 -0.498229
O15   O     O_R   0.179040 0.874160 0.674430 -0.472334
O16   O     O_R   0.820960 0.874160 0.325570 -0.498228
O17   O     O_3   0.665350 0.165340 0.749070 -0.294756
O18   O     O_3   0.334650 0.165340 0.250930 -0.297812
O19   O     O_3   0.165350 0.665340 0.749070 -0.294750
O20   O     O_3   0.834650 0.665340 0.250930 -0.297810
O21   O     O_R   0.762640 0.040960 0.825200 -0.496098
O22   O     O_R   0.237360 0.040960 0.174800 -0.499621
O23   O     O_R   0.262640 0.540960 0.825200 -0.496108
O24   O     O_R   0.737360 0.540960 0.174800 -0.499624
O25   O     O_R   0.667400 0.923970 0.829950 -0.508996
O26   O     O_R   0.332600 0.923970 0.170050 -0.531858
O27   O     O_R   0.167400 0.423970 0.829950 -0.509007
O28   O     O_R   0.832600 0.423970 0.170050 -0.531844
O29   O     O_R   0.553960 0.081340 0.821780 -0.508238
O30   O     O_R   0.446040 0.081340 0.178220 -0.457542
O31   O     O_R   0.053960 0.581340 0.821780 -0.508240
O32   O     O_R   0.946040 0.581340 0.178220 -0.457533
O33   O     O_R   0.543180 0.283240 0.826740 -0.517755
O34   O     O_R   0.456820 0.283240 0.173260 -0.503680
O35   O     O_R   0.043180 0.783240 0.826740 -0.517754
O36   O     O_R   0.956820 0.783240 0.173260 -0.503684
O37   O     O_R   0.678360 0.375140 0.822710 -0.494500
O38   O     O_R   0.321640 0.375140 0.177290 -0.519438
O39   O     O_R   0.178360 0.875140 0.822710 -0.494500
O40   O     O_R   0.821640 0.875140 0.177290 -0.519420
O41   O     O_R   0.785050 0.289380 0.670560 -0.552183
O42   O     O_R   0.214950 0.289380 0.329440 -0.524149
O43   O     O_R   0.285050 0.789380 0.670560 -0.552184
O44   O     O_R   0.714950 0.789380 0.329440 -0.524148
O45   O     O_R   0.763320 0.039990 0.676930 -0.502687
O46   O     O_R   0.236680 0.039990 0.323070 -0.507185
O47   O     O_R   0.263320 0.539990 0.676930 -0.502683
O48   O     O_R   0.736680 0.539990 0.323070 -0.507184
O49   O     O_R   0.668130 0.922920 0.670000 -0.500167
O50   O     O_R   0.331870 0.922920 0.330000 -0.506532
O51   O     O_R   0.168130 0.422920 0.670000 -0.500178
O52   O     O_R   0.831870 0.422920 0.330000 -0.506533
C93   C     C_1   0.654465 0.559169 0.575253 0.217582
N1    N     N_1   0.616794 0.622580 0.606084 -0.301173
C94   C     C_1   0.357908 0.541489 0.425165 0.167128
N2    N     N_1   0.408197 0.577188 0.397686 -0.333981
C95   C     C_1   0.154457 0.059157 0.575250 0.217584
N3    N     N_1   0.116781 0.122562 0.606080 -0.301185
C96   C     C_1   0.857912 0.041483 0.425167 0.167126
N4    N     N_1   0.908203 0.077180 0.397690 -0.333978
C97   C     C_1   0.837485 0.201157 0.949566 0.232589
N5    N     N_1   0.881961 0.141827 0.926276 -0.298613
C98   C     C_1   0.131157 0.469319 0.095211 0.204745
N6    N     N_1   0.084623 0.486763 0.133085 -0.261534
C99   C     C_1   0.337506 0.701202 0.949560 0.232591
N7    N     N_1   0.381991 0.641897 0.926266 -0.298655
C100  C     C_1   0.631211 0.969529 0.095230 0.204700
N8    N     N_1   0.584700 0.987076 0.133117 -0.261511
N9    N     N_2   0.489759 0.951144 0.430520 -0.486623
H37   H     H_    0.532663 0.969217 0.398863 0.257510
C101  C     C_3   0.485202 0.825307 0.454051 -0.260008
H38   H     H_    0.487895 0.765089 0.406617 0.172972
H39   H     H_    0.435386 0.807482 0.482018 0.184695
H40   H     H_    0.530097 0.801813 0.489010 0.136263
N10   N     N_2   0.474802 0.938308 0.587199 -0.533476
H41   H     H_    0.523109 0.904568 0.601167 0.271787
C102  C     C_3   0.423793 0.926928 0.643617 -0.271587
H42   H     H_    0.414986 0.828292 0.654863 0.167417
H43   H     H_    0.373665 0.970436 0.627756 0.160739
H44   H     H_    0.442906 0.970825 0.693451 0.159756
N11   N     N_2   0.989769 0.451150 0.430518 -0.486623
H45   H     H_    0.032679 0.469225 0.398868 0.257507
C103  C     C_3   0.985203 0.325311 0.454043 -0.259988
H46   H     H_    0.987894 0.265098 0.406606 0.172973
H47   H     H_    0.935385 0.307493 0.482007 0.184695
H48   H     H_    0.030095 0.301806 0.489004 0.136267
N12   N     N_2   0.974813 0.438304 0.587194 -0.533474
H49   H     H_    0.023121 0.404573 0.601162 0.271791
C104  C     C_3   0.923802 0.426909 0.643609 -0.271587
H50   H     H_    0.914996 0.328270 0.654847 0.167408
H51   H     H_    0.873673 0.470417 0.627748 0.160739
H52   H     H_    0.942913 0.470797 0.693447 0.159757

loop_
_geom_bond_atom_site_label_1
_geom_bond_atom_site_label_2
_ccdc_geom_bond_type
C58   C62   A    
C98   N6    T    
Cr3   O3    S    
Cr7   O19   S    
C26   C29   A    
Cr8   O32   S    
C64   C80   S    
C97   N5    T    
C14   C18   A    
Cr9   O33   S    
C35   C36   A    
C84   C87   D    
Cr6   O50   S    
C67   O3    A    
Cr10  O18   S    
C32   C75   S    
C103  H48   S    
C3    O27   A    
Cr12  O36   S    
C21   C89   A    
C99   N7    T    
C102  H44   S    
C15   C19   A    
C66   O38   A    
C50   C54   A    
C65   O37   A    
Cr3   O19   S    
C32   C36   A    
C56   C60   A    
Cr12  O20   S    
C38   C42   A    
C104  H52   S    
C45   O33   A    
C34   N10   S    
C92   H20   S    
C85   C86   S    
C88   H4    S    
C49   C53   A    
C37   H33   S    
Cr7   O31   S    
C4    O24   A    
C76   O12   A    
C29   C33   A    
C58   C94   S    
Cr6   O30   S    
Cr5   O29   S    
C23   C67   S    
C9    C13   A    
C22   C66   S    
C52   C69   S    
C60   C96   S    
C77   O13   A    
C46   C82   S    
C11   C15   A    
C54   H10   S    
C8    H24   S    
C72   O48   A    
C12   C16   A    
C61   C77   S    
C49   C72   S    
C73   O5    A    
C77   O41   A    
C33   N9    S    
C46   O34   A    
C18   C98   S    
C8    C92   A    
C51   C70   S    
C47   C83   S    
C25   H29   S    
Cr2   O22   S    
C51   C55   A    
C81   C86   D    
C8    C12   A    
C21   C65   S    
C44   C52   A    
Cr5   O49   S    
C83   C88   D    
Cr9   O17   S    
C96   N4    T    
Cr2   O18   S    
C48   O32   A    
C37   C41   A    
C90   H18   S    
C2    O22   A    
C86   H2    S    
C1    C12   S    
Cr1   O41   S    
Cr4   O44   S    
C85   H1    S    
C2    C11   S    
C24   C92   A    
C75   O11   A    
C41   C49   A    
C53   H9    S    
C80   O16   A    
Cr7   O27   S    
Cr11  O19   S    
C56   H12   S    
C62   C78   S    
Cr1   O17   S    
C59   C95   S    
C39   H35   S    
C30   C34   A    
Cr3   O47   S    
C100  N8    T    
Cr2   O2    S    
Cr6   O18   S    
Cr8   O52   S    
C6    H22   S    
C103  H46   S    
N9    H37   S    
C10   C14   A    
C69   O49   A    
C30   C73   S    
C53   C57   A    
C19   C23   A    
C78   O14   A    
C63   C79   S    
C29   C74   S    
Cr6   O6    S    
C75   O7    A    
C25   C26   A    
C6    C90   A    
C24   C68   S    
C79   O15   A    
C81   H14   S    
C68   O40   A    
C17   C21   A    
Cr4   O24   S    
C57   C93   S    
C78   O42   A    
Cr5   O17   S    
C83   H16   S    
C7    C11   A    
C50   C71   S    
C101  H38   S    
C5    C9    A    
C104  H50   S    
C26   H30   S    
Cr3   O23   S    
Cr4   O4    S    
N11   H45   S    
C65   O1    A    
Cr8   O20   S    
C37   C61   A    
N12   H49   S    
Cr3   O43   S    
Cr1   O21   S    
C16   C20   A    
C7    C91   A    
Cr11  O35   S    
C33   C34   A    
C22   C90   A    
C87   H3    S    
Cr4   O20   S    
C38   C62   A    
Cr12  O16   S    
C17   C97   S    
C76   O8    A    
Cr8   O28   S    
Cr6   O26   S    
C46   O30   A    
Cr10  O10   S    
C44   H8    S    
Cr11  O15   S    
C41   H5    S    
N12   C104  S    
C42   C50   A    
C36   N12   S    
Cr10  O38   S    
C23   C91   A    
C102  H43   S    
C2    O26   A    
C69   O45   A    
Cr1   O1    S    
C55   C59   A    
C70   O50   A    
C14   H26   S    
C25   C30   A    
C101  H39   S    
Cr7   O7    S    
C20   C100  S    
C73   O9    A    
C27   C32   A    
C28   H32   S    
C4    O28   A    
Cr5   O5    S    
C74   O6    A    
C28   C31   A    
C45   C81   S    
Cr2   O46   S    
C71   O47   A    
C45   O29   A    
C71   O51   A    
C6    C10   A    
C47   O31   A    
C103  H47   S    
C57   C61   A    
C66   O2    A    
Cr11  O11   S    
Cr10  O34   S    
C82   C85   D    
C39   C63   A    
C59   C63   A    
C54   C58   A    
C40   C64   A    
C13   C17   A    
C60   C64   A    
C27   H31   S    
C3    O23   A    
Cr12  O12   S    
C35   N11   S    
C18   C22   A    
C102  H42   S    
N11   C103  S    
C3    C10   S    
C67   O39   A    
Cr10  O14   S    
C72   O52   A    
Cr7   O51   S    
C55   H11   S    
C43   C51   A    
C31   C76   S    
Cr12  O40   S    
C89   H17   S    
Cr8   O8    S    
C84   H15   S    
Cr5   O25   S    
C40   H36   S    
C31   C35   A    
Cr9   O9    S    
N9    C101  S    
C79   O43   A    
C68   O4    A    
Cr11  O39   S    
C80   O44   A    
N10   H41   S    
C42   H6    S    
C95   N3    T    
C16   H28   S    
C5    C89   A    
N10   C102  S    
Cr9   O37   S    
C70   O46   A    
C1    O21   A    
C94   N2    T    
C43   H7    S    
C48   C84   S    
C40   C44   A    
C101  H40   S    
C15   H27   S    
C1    O25   A    
C39   C43   A    
C87   C88   S    
C104  H51   S    
C93   N1    T    
C5    H21   S    
C27   C28   A    
C19   C99   S    
C13   H25   S    
C74   O10   A    
C91   H19   S    
C38   H34   S    
C82   H13   S    
C7    H23   S    
C4    C9    S    
Cr2   O42   S    
Cr9   O13   S    
Cr4   O48   S    
C20   C24   A    
C47   O35   A    
C52   C56   A    
C48   O36   A    
Cr1   O45   S    
