data_mof_unit_18605.cif
_audit_creation_date              2012-12-11T14:21:09-0500
_audit_creation_method            fapswitch 2.2
_symmetry_space_group_name_H-M    P1
_symmetry_Int_Tables_number       1
_space_group_crystal_system       triclinic
_cell_length_a                    11.503707
_cell_length_b                    11.533316
_cell_length_c                    19.561073
_cell_angle_alpha                 90.499548
_cell_angle_beta                  89.631814
_cell_angle_gamma                 60.396685
_cell_volume                      2256.25329775

loop_
_atom_site_label
_atom_site_type_symbol
_atom_type_description
_atom_site_fract_x
_atom_site_fract_y
_atom_site_fract_z
_atom_type_partial_charge
C1    C     C_R   0.640114 0.117201 0.599314 0.549155
C2    C     C_1   0.640178 0.704320 0.668040 0.005536
C3    C     C_1   0.127106 0.198966 0.859306 0.006051
C4    C     C_1   0.171184 0.170168 0.727713 -0.028749
C5    C     C_1   0.150312 0.182333 0.798929 -0.027769
C6    C     C_1   0.194724 0.160740 0.667343 0.004290
C7    C     C_1   0.679406 0.190636 0.860787 0.006898
C8    C     C_1   0.658290 0.167100 0.729099 -0.028431
C9    C     C_1   0.666151 0.180357 0.800401 -0.027550
C10   C     C_1   0.652320 0.149811 0.668709 0.003988
C11   C     C_R   0.689018 0.601648 0.200873 0.009892
C12   C     C_R   0.611964 0.746259 0.598714 0.545786
C13   C     C_R   0.607532 0.739218 0.213963 0.043628
C14   C     C_R   0.590770 0.784782 0.281953 0.031264
C15   C     C_R   0.726045 0.554696 0.320602 -0.157648
C16   C     C_R   0.745942 0.510391 0.253544 -0.183022
C17   C     C_R   0.545526 0.832545 0.160864 -0.069882
C18   C     C_R   0.472747 0.968039 0.175242 -0.090326
C19   C     C_R   0.465461 0.012929 0.241677 -0.127479
C20   C     C_R   0.519768 0.923535 0.295136 -0.095486
C21   C     C_R   0.649494 0.690562 0.334647 0.025682
C22   C     C_R   0.059366 0.253828 0.205750 -0.015143
C23   C     C_R   0.240493 0.145273 0.598108 0.549484
C24   C     C_R   0.105681 0.334736 0.238002 -0.010832
C25   C     C_R   0.187988 0.283307 0.294843 0.011868
C26   C     C_R   0.124447 0.109585 0.304328 -0.141370
C27   C     C_R   0.064691 0.145435 0.240682 -0.148934
C28   C     C_R   0.085866 0.457538 0.210937 -0.088712
C29   C     C_R   0.174451 0.504386 0.224912 0.264699
C30   C     C_R   0.268121 0.443303 0.275035 -0.108561
C31   C     C_R   0.274905 0.335708 0.309464 -0.156461
C32   C     C_R   0.188477 0.175243 0.331541 0.008223
C33   C     C_R   0.663020 0.185806 0.191229 0.028023
C34   C     C_R   0.646234 0.108760 0.401199 0.530864
C35   C     C_R   0.718626 0.052897 0.212365 0.058810
C36   C     C_R   0.741524 0.025998 0.282692 -0.023817
C37   C     C_R   0.605960 0.264966 0.307973 -0.189957
C38   C     C_R   0.605043 0.290943 0.238931 -0.181742
C39   C     C_R   0.756286 0.946184 0.164493 0.277291
C40   C     C_R   0.830359 0.814747 0.186552 -0.056599
C41   C     C_R   0.868050 0.788394 0.254112 -0.105681
C42   C     C_R   0.828839 0.891685 0.301029 -0.088227
C43   C     C_R   0.672745 0.133862 0.330915 -0.005158
C44   C     C_R   0.082093 0.231187 0.928629 0.556751
C45   C     C_R   0.619201 0.735091 0.404120 0.526779
C46   C     C_R   0.684299 0.604482 0.929472 0.543959
C47   C     C_R   0.708823 0.206633 0.930080 0.560168
C48   C     C_R   0.022207 0.271666 0.133139 0.515074
C49   C     C_R   0.708747 0.550357 0.132741 0.501657
C50   C     C_R   0.705952 0.211412 0.125983 0.586028
C51   C     C_R   0.251740 0.138657 0.398777 0.527169
C52   C     C_1   0.671562 0.646271 0.860090 0.007183
C53   C     C_1   0.654274 0.683947 0.728413 -0.028888
C54   C     C_1   0.664090 0.666597 0.799664 -0.027216
Cr1   Cr    Cr6+3 0.404720 0.198220 0.499960 1.021079
Cr2   Cr    Cr6+3 0.698290 0.897110 0.500380 1.021017
Cr3   Cr    Cr6+3 0.396970 0.904720 0.499610 1.037945
Cr4   Cr    Cr6+3 0.926180 0.151990 0.028120 1.067600
Cr5   Cr    Cr6+3 0.921330 0.451820 0.027470 1.051283
Cr6   Cr    Cr6+3 0.626260 0.446870 0.028710 1.095086
H1    H     H_    0.767989 0.483284 0.361486 0.121603
H2    H     H_    0.338566 0.477071 0.286320 0.149062
H3    H     H_    0.360296 0.286212 0.341614 0.173907
H4    H     H_    0.555947 0.347586 0.343883 0.131638
H5    H     H_    0.563713 0.393480 0.223103 0.174543
H6    H     H_    0.857371 0.732951 0.151215 0.147830
H7    H     H_    0.926112 0.687272 0.271329 0.126298
H8    H     H_    0.874239 0.860722 0.350142 0.175112
H9    H     H_    0.557860 0.804075 0.107463 0.160834
H10   H     H_    0.801957 0.404455 0.242756 0.097113
H11   H     H_    0.430202 0.038774 0.134175 0.159457
H12   H     H_    0.424568 0.117309 0.250656 0.129541
H13   H     H_    0.511488 0.964201 0.346019 0.137760
H14   H     H_    0.124840 0.027589 0.331114 0.151618
H15   H     H_    0.005176 0.515347 0.176772 0.161405
H16   H     H_    0.024189 0.086998 0.218131 0.146596
O1    O     O_R   0.267740 0.231960 0.575440 -0.499428
O2    O     O_R   0.685970 0.784660 0.430010 -0.514755
O3    O     O_R   0.502530 0.767000 0.423990 -0.505575
O4    O     O_R   0.288330 0.026350 0.429250 -0.498789
O5    O     O_3   0.499990 0.000020 0.499980 -0.263934
O6    O     O_R   0.821500 0.119340 0.952830 -0.487395
O7    O     O_R   0.037130 0.162530 0.957360 -0.487982
O8    O     O_R   0.056440 0.344740 0.951340 -0.485996
O9    O     O_R   0.797900 0.560360 0.957470 -0.489803
O10   O     O_R   0.596130 0.579390 0.952730 -0.493559
O11   O     O_R   0.639060 0.321160 0.958670 -0.485203
O12   O     O_R   0.527280 0.186640 0.570530 -0.489855
O13   O     O_R   0.821240 0.124200 0.104370 -0.483250
O14   O     O_R   0.036890 0.167040 0.097840 -0.492116
O15   O     O_R   0.056180 0.349610 0.102880 -0.499515
O16   O     O_R   0.797660 0.564870 0.097950 -0.547232
O17   O     O_R   0.595880 0.584250 0.104270 -0.476236
O18   O     O_R   0.638830 0.325670 0.099150 -0.497935
O19   O     O_3   0.824590 0.350230 0.028100 -0.314433
O20   O     O_R   0.728090 0.003450 0.576380 -0.500627
O21   O     O_R   0.682970 0.789190 0.570490 -0.492264
O22   O     O_R   0.499290 0.771880 0.575530 -0.504537
O23   O     O_R   0.285330 0.030870 0.569730 -0.491259
O24   O     O_R   0.270980 0.227080 0.423890 -0.528959
O25   O     O_R   0.530280 0.182120 0.430050 -0.520436
O26   O     O_R   0.731330 0.998570 0.424830 -0.532271
S1    S     S_3+6 0.183540 0.625193 0.173821 -0.011999
O27   O     O_2   0.326561 0.573690 0.152230 -0.265970
O28   O     O_2   0.099387 0.652797 0.111160 -0.304791
O29   O     O_3   0.131923 0.766492 0.219735 -0.546072
H17   H     H_    0.131594 0.831556 0.186906 0.369239
O30   O     O_3   0.711186 0.972404 0.097929 -0.695294
H18   H     H_    0.745663 0.887274 0.071931 0.327341

loop_
_geom_bond_atom_site_label_1
_geom_bond_atom_site_label_2
_ccdc_geom_bond_type
C25   C31   A    
C23   O23   A    
C26   C32   A    
C41   C42   A    
Cr3   O3    S    
C22   C48   S    
C35   C36   A    
C44   O7    A    
C2    C12   S    
Cr2   O5    S    
C41   H7    S    
C53   C54   S    
C17   H9    S    
C26   C27   A    
C29   C30   A    
C14   C21   A    
C28   C29   A    
Cr4   O6    S    
C30   C31   A    
Cr1   O1    S    
O29   H17   S    
C6    C23   S    
C15   C16   A    
Cr3   O23   S    
C46   C52   S    
C18   H11   S    
Cr2   O2    S    
O30   H18   S    
C29   S1    S    
C7    C9    T    
C18   C19   A    
C47   O6    A    
Cr1   O12   S    
C51   O4    A    
C33   C35   A    
C36   C42   A    
C19   C20   A    
C8    C9    S    
C48   O15   A    
Cr1   O24   S    
C45   O2    A    
Cr1   O5    S    
C12   O22   A    
C46   O9    A    
Cr6   O17   S    
C25   C32   A    
C40   H6    S    
C13   C14   A    
C42   H8    S    
Cr3   O4    S    
C19   H12   S    
Cr5   O19   S    
Cr2   O21   S    
Cr6   O11   S    
C52   C54   T    
C21   C45   S    
C39   O30   S    
C3    C44   S    
C34   O25   A    
C34   C43   S    
C31   H3    S    
C16   H10   S    
C24   C25   A    
C4    C6    T    
C39   C40   A    
Cr6   O10   S    
C50   O18   A    
Cr5   O15   S    
C3    C5    T    
C33   C50   S    
C23   O1    A    
C47   O11   A    
C37   C43   A    
C35   C39   A    
Cr4   O19   S    
Cr5   O9    S    
C32   C51   S    
C37   C38   A    
C11   C49   S    
C14   C20   A    
C11   C16   A    
C50   O13   A    
C38   H5    S    
C17   C18   A    
C15   H1    S    
S1    O28   D    
C34   O26   A    
Cr5   O8    S    
Cr4   O14   S    
C45   O3    A    
C12   O21   A    
C40   C41   A    
C22   C27   A    
C30   H2    S    
C22   C24   A    
C49   O16   A    
C27   H16   S    
C37   H4    S    
C51   O24   A    
Cr2   O20   S    
C1    C10   S    
C24   C28   A    
C4    C5    S    
C44   O8    A    
C2    C53   T    
Cr1   O25   S    
C33   C38   A    
C13   C17   A    
Cr2   O26   S    
Cr4   O7    S    
C11   C13   A    
C1    O12   A    
C1    O20   A    
Cr3   O22   S    
C26   H14   S    
C20   H13   S    
S1    O29   S    
Cr3   O5    S    
Cr5   O16   S    
Cr4   O13   S    
Cr6   O19   S    
C15   C21   A    
C8    C10   T    
S1    O27   D    
C36   C43   A    
C48   O14   A    
C49   O17   A    
C28   H15   S    
C7    C47   S    
C46   O10   A    
Cr6   O18   S    
