data_mof_unit_13983.cif
_audit_creation_date              2012-12-11T14:08:26-0500
_audit_creation_method            fapswitch 2.2
_symmetry_space_group_name_H-M    P1
_symmetry_Int_Tables_number       1
_space_group_crystal_system       triclinic
_cell_length_a                    10.934794
_cell_length_b                    10.944905
_cell_length_c                    18.693987
_cell_angle_alpha                 90.085964
_cell_angle_beta                  89.679526
_cell_angle_gamma                 60.286114
_cell_volume                      1943.0680829

loop_
_atom_site_label
_atom_site_type_symbol
_atom_type_description
_atom_site_fract_x
_atom_site_fract_y
_atom_site_fract_z
_atom_type_partial_charge
C1    C     C_R   0.236158 0.645596 0.608733 0.551556
C2    C     C_2   0.782353 0.154044 0.706586 -0.180834
C3    C     C_2   0.180159 0.662933 0.681235 -0.123642
C4    C     C_R   0.653070 0.622356 0.601572 0.548525
C5    C     C_2   0.193933 0.663224 0.839087 -0.120046
C6    C     C_2   0.191081 0.562061 0.799796 -0.178014
C7    C     C_2   0.220032 0.549305 0.722796 -0.179810
C8    C     C_2   0.649297 0.646105 0.316956 -0.108720
C9    C     C_2   0.632673 0.664872 0.159384 -0.110306
C10   C     C_2   0.705820 0.545206 0.195369 -0.160230
C11   C     C_2   0.686699 0.536751 0.271932 -0.153698
C12   C     C_3   0.665905 0.556969 0.801602 -0.260398
C13   C     C_2   0.632825 0.198723 0.318276 -0.105865
C14   C     C_2   0.636367 0.202974 0.163550 -0.104740
C15   C     C_2   0.522165 0.230853 0.201218 -0.163903
C16   C     C_R   0.628104 0.227608 0.601980 0.547454
C17   C     C_2   0.516745 0.258875 0.277020 -0.151691
C18   C     C_2   0.190646 0.659941 0.325869 -0.096052
C19   C     C_2   0.184635 0.643054 0.172516 -0.105630
C20   C     C_2   0.241996 0.709240 0.205832 -0.160571
C21   C     C_2   0.270831 0.687780 0.281300 -0.145611
C22   C     C_R   0.703493 0.102083 0.897490 0.544729
C23   C     C_3   0.700314 0.676081 0.812308 0.036410
C24   C     C_R   0.724711 0.689056 0.888073 0.545462
C25   C     C_R   0.119071 0.706431 0.907370 0.546584
C26   C     C_R   0.672863 0.114415 0.101159 0.558685
C27   C     C_R   0.692090 0.688428 0.094662 0.557153
C28   C     C_R   0.225601 0.647842 0.400143 0.545734
C29   C     C_R   0.099762 0.705171 0.110436 0.559153
C30   C     C_R   0.641264 0.621086 0.392509 0.544411
C31   C     C_R   0.613999 0.234225 0.393220 0.550160
C32   C     C_3   0.577110 0.816061 0.782892 -0.208529
C33   C     C_3   0.551473 0.799339 0.703437 0.021879
C34   C     C_3   0.667464 0.649728 0.676924 0.072490
C35   C     C_3   0.836146 0.642978 0.769573 -0.233011
C36   C     C_3   0.298066 0.967365 0.689886 -0.296028
C37   C     C_3   0.813474 0.636397 0.689121 -0.278674
C38   C     C_3   0.658359 0.533659 0.721396 -0.213456
C39   C     C_2   0.675449 0.155742 0.670611 -0.123580
C40   C     C_2   0.689606 0.166667 0.827637 -0.120856
C41   C     C_2   0.801266 0.121401 0.783441 -0.178326
Cr1   Cr    Cr6+3 0.393010 0.398050 0.501480 1.013636
Cr2   Cr    Cr6+3 0.398820 0.707980 0.501630 1.029485
Cr3   Cr    Cr6+3 0.708140 0.393940 0.496850 1.012960
Cr4   Cr    Cr6+3 0.937950 0.938450 0.008940 1.018045
Cr5   Cr    Cr6+3 0.626180 0.937030 0.994750 1.012694
Cr6   Cr    Cr6+3 0.937790 0.625760 0.001410 1.014008
H1    H     H_    0.602948 0.902168 0.788116 0.119791
H2    H     H_    0.274970 0.443795 0.700238 0.155468
H3    H     H_    0.231341 0.729792 0.815894 0.094619
H4    H     H_    0.480199 0.847608 0.815385 0.135945
H5    H     H_    0.123127 0.768440 0.703724 0.101289
H6    H     H_    0.792540 0.453357 0.170128 0.151744
H7    H     H_    0.717495 0.432681 0.292586 0.156696
H8    H     H_    0.540605 0.753785 0.183205 0.100453
H9    H     H_    0.617066 0.751592 0.298308 0.094878
H10   H     H_    0.438360 0.216777 0.178943 0.153877
H11   H     H_    0.412288 0.323458 0.300009 0.163021
H12   H     H_    0.747982 0.428658 0.706861 0.138213
H13   H     H_    0.715900 0.224491 0.185257 0.101199
H14   H     H_    0.738246 0.133941 0.296675 0.094474
H15   H     H_    0.252138 0.792973 0.180297 0.150867
H16   H     H_    0.352048 0.708168 0.301557 0.159520
H17   H     H_    0.184647 0.552322 0.196186 0.102894
H18   H     H_    0.108030 0.639826 0.307857 0.089385
H19   H     H_    0.563569 0.878916 0.671619 0.125555
H20   H     H_    0.866244 0.724744 0.780215 0.128948
H21   H     H_    0.819886 0.722867 0.661229 0.107960
H22   H     H_    0.747966 0.457585 0.826305 0.137661
H23   H     H_    0.925236 0.539887 0.786578 0.140771
H24   H     H_    0.563383 0.585309 0.827693 0.111138
H25   H     H_    0.560375 0.530488 0.709432 0.126608
H26   H     H_    0.383489 0.761457 0.726273 0.246175
H27   H     H_    0.196213 0.971485 0.679465 0.146516
H28   H     H_    0.319422 0.021184 0.645236 0.152895
H29   H     H_    0.288997 0.023421 0.740924 0.117378
H30   H     H_    0.899583 0.535266 0.667285 0.143410
H31   H     H_    0.907648 0.055887 0.803051 0.149799
H32   H     H_    0.854593 0.180938 0.680294 0.142110
H33   H     H_    0.583758 0.233197 0.807496 0.107376
H34   H     H_    0.609037 0.120683 0.696547 0.099008
H35   H     H_    0.160576 0.490475 0.823431 0.147954
N1    N     N_2   0.409154 0.822140 0.694244 -0.472388
O1    O     O_R   0.507110 0.256280 0.580300 -0.523530
O2    O     O_R   0.837080 0.593860 0.915300 -0.528197
O3    O     O_R   0.064770 0.636080 0.932550 -0.502604
O4    O     O_R   0.280830 0.527190 0.577940 -0.500905
O5    O     O_R   0.068250 0.829200 0.092940 -0.512326
O6    O     O_R   0.799650 0.057040 0.080330 -0.499316
O7    O     O_R   0.586130 0.079760 0.077080 -0.513759
O8    O     O_R   0.627700 0.809630 0.066580 -0.496574
O9    O     O_R   0.816140 0.597180 0.075920 -0.510955
O10   O     O_R   0.045360 0.639170 0.081440 -0.499740
O11   O     O_3   0.833980 0.833750 0.001700 -0.247079
O12   O     O_R   0.524640 0.695370 0.425100 -0.504315
O13   O     O_R   0.261360 0.738990 0.584270 -0.498182
O14   O     O_R   0.532590 0.694780 0.574370 -0.467353
O15   O     O_R   0.744470 0.503750 0.577000 -0.537443
O16   O     O_R   0.698520 0.277230 0.571620 -0.497732
O17   O     O_R   0.498530 0.256920 0.419280 -0.513843
O18   O     O_R   0.272880 0.527780 0.428680 -0.502245
O19   O     O_R   0.252780 0.739630 0.423250 -0.512879
O20   O     O_R   0.735890 0.504390 0.415980 -0.509919
O21   O     O_R   0.690560 0.277820 0.422350 -0.501646
O22   O     O_3   0.499990 0.499990 0.499980 -0.254761
O23   O     O_R   0.089190 0.825870 0.932320 -0.522528
O24   O     O_R   0.819070 0.053960 0.931440 -0.497319
O25   O     O_R   0.607070 0.076440 0.916460 -0.523455
O26   O     O_R   0.647110 0.806550 0.917690 -0.513593

loop_
_geom_bond_atom_site_label_1
_geom_bond_atom_site_label_2
_ccdc_geom_bond_type
C1    O4    A    
C12   H22   S    
C6    H35   S    
C4    O15   A    
C34   C37   S    
C32   H1    S    
Cr6   O9    S    
C19   C20   D    
C8    H9    S    
Cr3   O21   S    
Cr3   O22   S    
C18   H18   S    
C12   C23   S    
Cr6   O2    S    
C35   C37   S    
C3    C7    D    
C8    C11   D    
C5    C6    D    
Cr3   O16   S    
C36   N1    S    
C22   O24   A    
C18   C21   D    
C37   H21   S    
C16   O1    A    
Cr2   O22   S    
C10   H6    S    
C29   O5    A    
C2    H32   S    
C36   H29   S    
Cr3   O15   S    
C2    C39   D    
C35   H23   S    
Cr5   O25   S    
C30   O20   A    
C25   O23   A    
Cr2   O12   S    
C23   C24   S    
C40   H33   S    
C27   O8    A    
C9    H8    S    
Cr4   O6    S    
C9    C10   D    
C17   H11   S    
C4    O14   A    
C20   H15   S    
C15   H10   S    
Cr4   O11   S    
C28   O18   A    
Cr3   O20   S    
C33   H19   S    
C33   C34   S    
C4    C34   S    
C38   H25   S    
Cr6   O3    S    
Cr4   O5    S    
C18   C28   S    
C7    H2    S    
C41   H31   S    
Cr5   O8    S    
C37   H30   S    
C32   C33   S    
C1    C3    S    
C32   H4    S    
C30   O12   A    
C36   H28   S    
Cr1   O17   S    
Cr5   O11   S    
C35   H20   S    
C19   H17   S    
C22   C40   S    
Cr2   O13   S    
Cr6   O10   S    
Cr1   O1    S    
C27   O9    A    
C31   O17   A    
C14   C26   S    
C33   N1    S    
C39   H34   S    
C11   H7    S    
C36   H27   S    
C5    C25   S    
C40   C41   D    
C12   H24   S    
C23   C35   S    
C5    H3    S    
C19   C29   S    
Cr1   O18   S    
Cr4   O23   S    
C9    C27   S    
C24   O2    A    
C15   C17   S    
C34   C38   S    
C13   C31   S    
C24   O26   A    
Cr2   O14   S    
C3    H5    S    
C16   O16   A    
C6    C7    S    
Cr5   O7    S    
C26   O7    A    
C14   H13   S    
C13   C17   D    
C8    C30   S    
C31   O21   A    
Cr2   O19   S    
C26   O6    A    
C23   C32   S    
C29   O10   A    
C1    O13   A    
C22   O25   A    
C25   O3    A    
Cr6   O11   S    
C12   C38   S    
Cr1   O22   S    
C21   H16   S    
C10   C11   S    
C16   C39   S    
C38   H12   S    
C28   O19   A    
C13   H14   S    
C20   C21   S    
Cr5   O26   S    
C14   C15   D    
Cr1   O4    S    
C2    C41   S    
H26   N1    S    
Cr4   O24   S    
