data_mof_unit_11561.cif
_audit_creation_date              2012-12-10T19:50:47-0500
_audit_creation_method            fapswitch 2.2
_symmetry_space_group_name_H-M    P1
_symmetry_Int_Tables_number       1
_space_group_crystal_system       triclinic
_cell_length_a                    14.904713
_cell_length_b                    14.249419
_cell_length_c                    11.524624
_cell_angle_alpha                 90.051558
_cell_angle_beta                  91.983452
_cell_angle_gamma                 89.470072
_cell_volume                      2446.06848302

loop_
_atom_site_label
_atom_site_type_symbol
_atom_type_description
_atom_site_fract_x
_atom_site_fract_y
_atom_site_fract_z
_atom_type_partial_charge
C1    C     C_R   0.327750 0.500737 0.506724 0.993288
C2    C     C_R   0.500343 0.499962 0.718070 0.907654
C3    C     C_R   0.441727 0.106491 0.424548 0.440272
C4    C     C_R   0.512880 0.895041 0.603227 0.415792
C5    C     C_R   0.558703 0.105521 0.574601 0.457618
C6    C     C_R   0.487797 0.894889 0.396131 0.415843
C7    C     C_1   0.499863 0.499629 0.161507 -0.168677
C8    C     C_1   0.500366 0.499708 0.838491 -0.160652
C9    C     C_1   0.500039 0.499514 0.059305 -0.010320
C10   C     C_1   0.500260 0.499557 0.940691 -0.006710
C11   C     C_R   0.445433 0.206150 0.421786 0.355175
C12   C     C_R   0.672764 0.499908 0.500801 1.008740
C13   C     C_R   0.517856 0.795329 0.601420 0.327644
C14   C     C_R   0.554851 0.204883 0.577356 0.322995
C15   C     C_R   0.480763 0.795010 0.398611 0.329672
C16   C     C_R   0.087208 0.578312 0.505707 0.338285
C17   C     C_R   0.914698 0.426481 0.488103 0.341787
C18   C     C_R   0.901508 0.565222 0.613154 0.384989
C19   C     C_R   0.103666 0.433592 0.619163 0.380799
C20   C     C_R   0.179650 0.580814 0.493185 0.269548
C21   C     C_R   0.821166 0.428264 0.465247 0.266632
C22   C     C_R   0.810489 0.570833 0.584951 0.292390
C23   C     C_R   0.232748 0.503545 0.531279 -0.397244
C24   C     C_R   0.196022 0.432413 0.600299 0.273974
C25   C     C_3   0.313821 0.242787 0.312108 0.168715
C26   C     C_3   0.294747 0.214606 0.186236 -0.741062
C27   C     C_3   0.511702 0.764629 0.801425 0.199561
C28   C     C_3   0.582613 0.797565 0.890526 -0.767704
C29   C     C_3   0.692038 0.244608 0.665857 0.192585
C30   C     C_3   0.727656 0.223995 0.788589 -0.766511
C31   C     C_3   0.467739 0.768527 0.195802 0.191175
C32   C     C_3   0.388698 0.813358 0.127759 -0.755646
C33   C     C_3   0.011984 0.637072 0.344662 0.121450
C34   C     C_R   0.769867 0.500252 0.515587 -0.397203
C35   C     C_3   0.975955 0.728027 0.291291 -0.810444
C36   C     C_3   0.998522 0.383334 0.333300 0.087189
C37   C     C_3   0.051117 0.302463 0.281423 -0.856971
C38   C     C_3   0.962673 0.607491 0.790370 0.132802
C39   C     C_3   0.964986 0.691850 0.871295 -0.828809
C40   C     C_3   0.069817 0.377174 0.798587 0.110553
C41   C     C_3   0.071078 0.283701 0.862309 -0.810489
C42   C     C_3   0.223848 0.733539 0.509584 0.180602
C43   C     C_3   0.233546 0.822361 0.438137 -0.766473
C44   C     C_3   0.800096 0.276259 0.392767 0.183550
C45   C     C_R   0.049882 0.503707 0.566555 -0.135760
C46   C     C_3   0.719968 0.219595 0.348618 -0.845983
C47   C     C_3   0.771950 0.726399 0.564335 0.208564
C48   C     C_3   0.775902 0.811350 0.644345 -0.740034
C49   C     C_3   0.247539 0.280862 0.620906 0.165060
C50   C     C_3   0.315720 0.219315 0.686961 -0.803692
C51   C     C_R   0.953372 0.494619 0.562669 -0.126876
C52   C     C_R   0.500266 0.054020 0.499657 -0.107351
C53   C     C_R   0.500421 0.946723 0.499657 -0.088777
C54   C     C_R   0.499738 0.499921 0.281932 0.905887
F1    F     F_    0.380877 0.061402 0.354948 -0.629104
F2    F     F_    0.519622 0.941359 0.705835 -0.620183
F3    F     F_    0.620810 0.060355 0.643472 -0.617784
F4    F     F_    0.484493 0.941725 0.293831 -0.624453
H1    H     H_    0.278381 0.310404 0.327037 0.124418
H2    H     H_    0.636130 0.743201 0.901536 0.240921
H3    H     H_    0.721197 0.312000 0.638463 0.142675
H4    H     H_    0.716959 0.189157 0.606727 0.144113
H5    H     H_    0.700139 0.156751 0.819653 0.299872
H6    H     H_    0.802076 0.218674 0.789683 0.192582
H7    H     H_    0.707803 0.281370 0.848043 0.244709
H8    H     H_    0.485485 0.702774 0.150038 0.134420
H9    H     H_    0.529517 0.811560 0.194109 0.157717
H10   H     H_    0.362251 0.875329 0.174256 0.310536
H11   H     H_    0.409330 0.835718 0.040628 0.200154
H12   H     H_    0.284135 0.190338 0.370612 0.140287
H13   H     H_    0.333713 0.761673 0.116788 0.229624
H14   H     H_    0.958366 0.583697 0.335321 0.104463
H15   H     H_    0.071222 0.614423 0.294770 0.153287
H16   H     H_    0.027748 0.783351 0.298540 0.259256
H17   H     H_    0.957843 0.716718 0.198070 0.199943
H18   H     H_    0.915237 0.751831 0.336431 0.238776
H19   H     H_    0.045004 0.443332 0.341794 0.116306
H20   H     H_    0.941483 0.402083 0.272434 0.153153
H21   H     H_    0.007163 0.240801 0.267063 0.250530
H22   H     H_    0.077974 0.324139 0.196943 0.204187
H23   H     H_    0.330551 0.148237 0.166130 0.303957
H24   H     H_    0.108081 0.282263 0.341204 0.248222
H25   H     H_    0.030774 0.575279 0.792584 0.115954
H26   H     H_    0.913196 0.556819 0.824203 0.121438
H27   H     H_    0.896971 0.723887 0.875213 0.258775
H28   H     H_    0.987162 0.669339 0.960049 0.196768
H29   H     H_    0.012563 0.744906 0.839860 0.257242
H30   H     H_    0.009012 0.416336 0.824157 0.115650
H31   H     H_    0.130768 0.416878 0.827794 0.147997
H32   H     H_    0.131873 0.242586 0.840704 0.255421
H33   H     H_    0.071946 0.296046 0.957508 0.198838
H34   H     H_    0.221540 0.204289 0.170912 0.191320
H35   H     H_    0.010361 0.242829 0.837070 0.255586
H36   H     H_    0.284314 0.725409 0.568068 0.131220
H37   H     H_    0.164281 0.743545 0.564388 0.155982
H38   H     H_    0.170867 0.836237 0.386008 0.247792
H39   H     H_    0.246852 0.883047 0.496567 0.200898
H40   H     H_    0.289818 0.814716 0.378500 0.290779
H41   H     H_    0.816972 0.256146 0.484220 0.124150
H42   H     H_    0.857102 0.256805 0.338208 0.185552
H43   H     H_    0.658657 0.243089 0.392047 0.262871
H44   H     H_    0.709493 0.229790 0.253559 0.267093
H45   H     H_    0.317439 0.270565 0.127260 0.241965
H46   H     H_    0.731734 0.143845 0.366615 0.209424
H47   H     H_    0.713530 0.735318 0.502772 0.139680
H48   H     H_    0.833909 0.726557 0.512642 0.137311
H49   H     H_    0.837398 0.807824 0.701254 0.260200
H50   H     H_    0.777437 0.876626 0.591902 0.207073
H51   H     H_    0.716290 0.813836 0.699093 0.290789
H52   H     H_    0.263581 0.279983 0.528221 0.114020
H53   H     H_    0.180240 0.249801 0.630484 0.190047
H54   H     H_    0.383546 0.250348 0.683315 0.281593
H55   H     H_    0.297424 0.213545 0.779250 0.253282
H56   H     H_    0.483450 0.698514 0.834355 0.132447
H57   H     H_    0.317138 0.148059 0.647890 0.196730
H58   H     H_    0.453817 0.814476 0.795161 0.143805
H59   H     H_    0.613489 0.863812 0.862032 0.304117
H60   H     H_    0.552263 0.809627 0.975511 0.188082
N1    N     N_R   0.500000 0.252470 0.500000 -0.223551
N2    N     N_R   0.500000 0.747530 0.500000 -0.203317
O1    O     O_R   0.369060 0.579480 0.500010 -0.580203
O2    O     O_3   0.553634 0.745158 0.695511 -0.552948
O3    O     O_3   0.597533 0.254993 0.666113 -0.550180
O4    O     O_3   0.440541 0.744198 0.308036 -0.565353
O5    O     O_3   0.033861 0.651869 0.463465 -0.564067
O6    O     O_3   0.968222 0.356120 0.442958 -0.585712
O7    O     O_3   0.940562 0.637906 0.676377 -0.557457
O8    O     O_3   0.064441 0.360557 0.677685 -0.581787
O9    O     O_3   0.216302 0.655179 0.434159 -0.562963
O10   O     O_3   0.779865 0.372851 0.379492 -0.602675
O11   O     O_3   0.760690 0.643791 0.630908 -0.552957
O12   O     O_R   0.630940 0.420520 0.499990 -0.593822
O13   O     O_3   0.252374 0.373051 0.665226 -0.590973
O14   O     O_R   0.630940 0.579480 0.499990 -0.594735
O15   O     O_R   0.369060 0.420520 0.500010 -0.599392
O16   O     O_R   0.500010 0.579480 0.334450 -0.582908
O17   O     O_R   0.499990 0.420520 0.665550 -0.562207
O18   O     O_R   0.499990 0.579480 0.665550 -0.587270
O19   O     O_R   0.500010 0.420520 0.334450 -0.556261
O20   O     O_3   0.406952 0.257808 0.330388 -0.550472
Zn1   Zn    Zn3+2 0.500000 0.606140 0.500000 1.021307
Zn2   Zn    Zn3+2 0.500000 0.393860 0.500000 1.028026

loop_
_geom_bond_atom_site_label_1
_geom_bond_atom_site_label_2
_ccdc_geom_bond_type
C24   O13   S    
C31   H8    S    
O17   Zn2   S    
C35   H16   S    
C30   H6    S    
C22   O11   S    
C6    F4    S    
C43   H40   S    
C39   H29   S    
C20   O9    S    
C11   N1    A    
C17   C51   A    
C38   O7    S    
C31   H9    S    
C46   H44   S    
C35   H17   S    
C29   C30   S    
C36   C37   S    
C31   O4    S    
C28   H59   S    
C38   C39   S    
C38   H25   S    
C44   H41   S    
C17   O6    S    
C48   H49   S    
C45   C51   S    
C44   O10   S    
C40   O8    S    
C26   H45   S    
C19   O8    S    
C15   N2    A    
C50   H57   S    
C4    C13   A    
C33   H14   S    
C33   C35   S    
C6    C15   A    
C3    F1    S    
O15   Zn2   S    
C41   H35   S    
C54   O19   A    
C47   H47   S    
C23   C24   A    
C5    C52   A    
C40   H31   S    
C9    C10   S    
C32   H10   S    
C27   H58   S    
C41   H32   S    
C18   C22   A    
C30   H5    S    
C4    F2    S    
C50   H54   S    
C46   H43   S    
C27   O2    S    
C44   C46   S    
C18   C51   A    
C32   H13   S    
C28   H2    S    
O12   Zn2   S    
C22   C34   A    
C37   H22   S    
C29   H3    S    
C35   H18   S    
C15   O4    S    
C42   H37   S    
C2    O18   A    
O1    Zn1   S    
C25   O20   S    
C21   C34   A    
C25   C26   S    
C46   H46   S    
C17   C21   A    
C47   O11   S    
C11   O20   S    
O16   Zn1   S    
C18   O7    S    
C37   H21   S    
C47   C48   S    
C20   C23   A    
C16   C20   A    
C47   H48   S    
C54   O16   A    
C33   O5    S    
C43   H38   S    
C5    C14   A    
C14   N1    A    
C33   H15   S    
C40   C41   S    
C41   H33   S    
C1    C23   S    
C26   H23   S    
C4    C53   A    
C37   H24   S    
C42   C43   S    
C39   H27   S    
C6    C53   A    
C12   C34   S    
C13   N2    A    
C52   C53   S    
C16   O5    S    
C7    C9    T    
C49   O13   S    
C29   H4    S    
C14   O3    S    
C12   O12   A    
C38   H26   S    
C42   H36   S    
C2    O17   A    
C31   C32   S    
C36   O6    S    
N2    Zn1   S    
C43   H39   S    
O18   Zn1   S    
C16   C45   A    
C3    C52   A    
C19   C45   A    
C32   H11   S    
C5    F3    S    
C36   H20   S    
C49   H53   S    
C36   H19   S    
C50   H55   S    
C40   H30   S    
C19   C24   A    
C28   H60   S    
O14   Zn1   S    
C13   O2    S    
C44   H42   S    
C48   H50   S    
C29   O3    S    
O19   Zn2   S    
C48   H51   S    
C42   O9    S    
C1    O1    A    
C21   O10   S    
C30   H7    S    
C3    C11   A    
C27   H56   S    
C8    C10   T    
C49   C50   S    
C2    C8    S    
C27   C28   S    
N1    Zn2   S    
C12   O14   A    
C25   H12   S    
C25   H1    S    
C7    C54   S    
C1    O15   A    
C26   H34   S    
C39   H28   S    
C49   H52   S    
