data_mof_unit_23351.cif
_audit_creation_date              2013-03-05T15:51:14-0500
_audit_creation_method            fapswitch 2.2
_symmetry_space_group_name_H-M    P1
_symmetry_Int_Tables_number       1
_space_group_crystal_system       triclinic
_cell_length_a                    19.385227
_cell_length_b                    11.084467
_cell_length_c                    18.781621
_cell_angle_alpha                 90.087479
_cell_angle_beta                  89.930788
_cell_angle_gamma                 90.06837
_cell_volume                      4035.68858999

loop_
_atom_site_label
_atom_site_type_symbol
_atom_site_description
_atom_site_fract_x
_atom_site_fract_y
_atom_site_fract_z
_atom_type_partial_charge
O1    O     O_R   0.787520 0.042810 0.170440 -0.522557
O2    O     O_R   0.212480 0.042810 0.829560 -0.523783
O3    O     O_R   0.287520 0.542810 0.170440 -0.530383
O4    O     O_R   0.712480 0.542810 0.829560 -0.522236
O5    O     O_R   0.765640 0.292100 0.175020 -0.502359
O6    O     O_R   0.234360 0.292100 0.824980 -0.497390
O7    O     O_R   0.265640 0.792100 0.175020 -0.509749
O8    O     O_R   0.734360 0.792100 0.824980 -0.500873
C1    C     C_R   0.727121 0.369800 0.143717 0.543570
C2    C     C_R   0.288144 0.330207 0.861039 0.554976
C3    C     C_R   0.211938 0.830365 0.138917 0.549617
C4    C     C_R   0.772833 0.870051 0.856246 0.542967
O9    O     O_R   0.670190 0.408840 0.168540 -0.534423
O10   O     O_R   0.329810 0.408840 0.831460 -0.519691
O11   O     O_R   0.170190 0.908840 0.168540 -0.525967
O12   O     O_R   0.829810 0.908840 0.831460 -0.532957
O13   O     O_R   0.556620 0.251410 0.175160 -0.508157
O14   O     O_R   0.443380 0.251410 0.824840 -0.523557
O15   O     O_R   0.056620 0.751410 0.175160 -0.521786
O16   O     O_R   0.943380 0.751410 0.824840 -0.512223
C5    C     C_R   0.531947 0.155594 0.146724 0.546350
C6    C     C_R   0.468815 0.155632 0.852680 0.530614
C7    C     C_R   0.031196 0.655477 0.147324 0.537026
C8    C     C_R   0.968071 0.655747 0.853277 0.536954
O17   O     O_R   0.545960 0.049620 0.170320 -0.520485
O18   O     O_R   0.454040 0.049620 0.829680 -0.525644
O19   O     O_R   0.045960 0.549620 0.170320 -0.525444
O20   O     O_R   0.954040 0.549620 0.829680 -0.520413
O21   O     O_R   0.681390 0.958010 0.176690 -0.501883
O22   O     O_R   0.318610 0.958010 0.823310 -0.505930
O23   O     O_R   0.181390 0.458010 0.176690 -0.511491
O24   O     O_R   0.818610 0.458010 0.823310 -0.500621
C9    C     C_R   0.740877 0.969384 0.148338 0.547861
C10   C     C_R   0.258164 0.968422 0.851970 0.534729
C11   C     C_R   0.241832 0.468255 0.148037 0.532205
C12   C     C_R   0.759124 0.469586 0.851685 0.544270
O25   O     O_R   0.787510 0.044390 0.330970 -0.416344
O26   O     O_R   0.212490 0.044390 0.669030 -0.466536
O27   O     O_R   0.287510 0.544390 0.330970 -0.418578
O28   O     O_R   0.712490 0.544390 0.669030 -0.469273
O29   O     O_R   0.765630 0.293570 0.323840 -0.475016
O30   O     O_R   0.234370 0.293570 0.676160 -0.492818
O31   O     O_R   0.265630 0.793570 0.323840 -0.398608
O32   O     O_R   0.734370 0.793570 0.676160 -0.503220
C13   C     C_R   0.729009 0.378928 0.351357 0.537022
C14   C     C_R   0.274610 0.365465 0.643713 0.546610
C15   C     C_R   0.230387 0.884015 0.349667 0.585473
C16   C     C_R   0.769293 0.881676 0.649489 0.534640
O33   O     O_R   0.670190 0.410420 0.329080 -0.514806
O34   O     O_R   0.329810 0.410420 0.670920 -0.500290
O35   O     O_R   0.170190 0.910420 0.329080 -0.534163
O36   O     O_R   0.829810 0.910420 0.670920 -0.506915
O37   O     O_R   0.556610 0.252880 0.323980 -0.445264
O38   O     O_R   0.443390 0.252880 0.676020 -0.436843
O39   O     O_R   0.056610 0.752880 0.323980 -0.454649
O40   O     O_R   0.943390 0.752880 0.676020 -0.441089
C17   C     C_R   0.532201 0.155825 0.353075 0.575871
C18   C     C_R   0.467214 0.158371 0.646121 0.570394
C19   C     C_R   0.035486 0.655968 0.355375 0.591580
C20   C     C_R   0.970850 0.660106 0.648939 0.544438
O41   O     O_R   0.545950 0.051210 0.330860 -0.536693
O42   O     O_R   0.454050 0.051210 0.669140 -0.539837
O43   O     O_R   0.045950 0.551210 0.330860 -0.511233
O44   O     O_R   0.954050 0.551210 0.669140 -0.531837
O45   O     O_R   0.681390 0.959480 0.325510 -0.534644
O46   O     O_R   0.318610 0.959480 0.674490 -0.519328
O47   O     O_R   0.181390 0.459480 0.325510 -0.536448
O48   O     O_R   0.818610 0.459480 0.674490 -0.515760
C21   C     C_R   0.730325 0.013435 0.361527 0.557882
C22   C     C_R   0.261795 0.981009 0.642434 0.530813
C23   C     C_R   0.242983 0.468700 0.352570 0.577017
C24   C     C_R   0.771907 0.519111 0.638525 0.540064
Cr1   Cr    Cr6+3 0.772010 0.169670 0.250090 1.089351
Cr2   Cr    Cr6+3 0.227990 0.169670 0.749910 1.070479
Cr3   Cr    Cr6+3 0.272010 0.669670 0.250090 1.100794
Cr4   Cr    Cr6+3 0.727990 0.669670 0.749910 1.068459
Cr5   Cr    Cr6+3 0.615000 0.323260 0.249260 1.057138
Cr6   Cr    Cr6+3 0.385000 0.323260 0.750740 1.065554
Cr7   Cr    Cr6+3 0.115000 0.823260 0.249260 1.053214
Cr8   Cr    Cr6+3 0.885000 0.823260 0.750740 1.065044
Cr9   Cr    Cr6+3 0.616710 0.010760 0.250840 1.006413
Cr10  Cr    Cr6+3 0.383290 0.010760 0.749160 1.001346
Cr11  Cr    Cr6+3 0.116710 0.510760 0.250840 1.010775
Cr12  Cr    Cr6+3 0.883290 0.510760 0.749160 1.018965
O49   O     O_3   0.667900 0.167900 0.250060 -0.298195
O50   O     O_3   0.332100 0.167900 0.749940 -0.298712
O51   O     O_3   0.167900 0.667900 0.250060 -0.297896
O52   O     O_3   0.832100 0.667900 0.749940 -0.291134
H1    H     H_    0.502451 0.970527 0.061862 0.132845
H2    H     H_    0.502825 0.970423 0.935736 0.138942
H3    H     H_    0.997840 0.470182 0.063678 0.138646
H4    H     H_    0.998328 0.470739 0.937549 0.133448
C25   C     C_R   0.499254 0.164727 0.924243 0.001816
C26   C     C_R   0.504447 0.164916 0.073894 0.004729
C27   C     C_R   0.995668 0.665179 0.926089 0.004272
C28   C     C_R   0.000840 0.664445 0.075741 0.003194
C29   C     C_R   0.504051 0.276125 0.961216 0.021749
C30   C     C_R   0.500669 0.276600 0.036757 0.024409
C31   C     C_R   0.999250 0.776736 0.963538 0.024386
C32   C     C_R   0.995871 0.775955 0.039077 0.022040
C33   C     C_R   0.502403 0.057002 0.035398 -0.161175
C34   C     C_R   0.503455 0.056968 0.962362 -0.164630
C35   C     C_R   0.996995 0.556797 0.037302 -0.165024
C36   C     C_R   0.998088 0.557136 0.964268 -0.160632
C37   C     C_R   0.512707 0.386858 0.925165 -0.115022
C38   C     C_R   0.493567 0.388687 0.072215 -0.109486
C39   C     C_R   0.006257 0.888963 0.928394 -0.109848
C40   C     C_R   0.987129 0.886529 0.075441 -0.113998
C41   C     C_R   0.000908 0.997279 0.965967 -0.166197
C42   C     C_R   0.988697 0.995766 0.038867 -0.163993
C43   C     C_R   0.511196 0.495959 0.962076 -0.162859
C44   C     C_R   0.498973 0.497156 0.034977 -0.166923
H5    H     H_    0.523768 0.390329 0.868783 0.149275
H6    H     H_    0.481995 0.394190 0.128399 0.151760
H7    H     H_    0.017758 0.894697 0.872212 0.148954
H8    H     H_    0.975996 0.889763 0.131818 0.151957
H9    H     H_    0.005188 0.082501 0.938234 0.114297
H10   H     H_    0.980620 0.079146 0.067514 0.118243
H11   H     H_    0.519244 0.579486 0.933688 0.118809
H12   H     H_    0.494671 0.582263 0.062964 0.112554
C45   C     C_R   0.760839 0.895662 0.930532 0.008537
C46   C     C_R   0.220454 0.842116 0.061642 0.004805
C47   C     C_R   0.279642 0.341847 0.938320 0.001589
C48   C     C_R   0.739081 0.395148 0.069406 0.009272
C49   C     C_R   0.696106 0.886953 0.962651 -0.003284
C50   C     C_R   0.278897 0.800850 0.025040 0.013454
C51   C     C_R   0.221156 0.300369 0.974807 0.013223
C52   C     C_R   0.803834 0.387083 0.037304 -0.001933
C53   C     C_R   0.690046 0.900625 0.035896 0.050761
C54   C     C_R   0.289173 0.830107 0.953673 0.037543
C55   C     C_R   0.210837 0.329618 0.046211 0.037616
C56   C     C_R   0.809907 0.401027 0.964093 0.051713
C57   C     C_R   0.813116 0.926657 0.046090 -0.169731
C58   C     C_R   0.177226 0.922231 0.950032 -0.152985
C59   C     C_R   0.322839 0.421987 0.050077 -0.150242
C60   C     C_R   0.686833 0.426380 0.953888 -0.171204
C61   C     C_R   0.819203 0.913655 0.973496 -0.163484
C62   C     C_R   0.167352 0.893890 0.021560 -0.156633
C63   C     C_R   0.332734 0.393761 0.978503 -0.157574
C64   C     C_R   0.680713 0.412807 0.026444 -0.163596
C65   C     C_3   0.645563 0.784985 0.960540 -0.245491
C66   C     C_3   0.353502 0.816283 0.042610 -0.243899
C67   C     C_3   0.146568 0.315678 0.957218 -0.243130
C68   C     C_3   0.854475 0.285486 0.039158 -0.246184
C69   C     C_3   0.638202 0.800520 0.040609 -0.144951
C70   C     C_3   0.364579 0.849353 0.964752 -0.140221
C71   C     C_3   0.135472 0.348810 0.035108 -0.140742
C72   C     C_3   0.861842 0.301275 0.959132 -0.144551
C73   C     C_R   0.748797 0.919469 0.078154 0.015617
C74   C     C_R   0.241031 0.900551 0.916789 0.008133
C75   C     C_R   0.258989 0.400177 0.083228 0.011340
C76   C     C_R   0.751173 0.419743 0.921837 0.014445
H13   H     H_    0.858169 0.946219 0.077440 0.149645
H14   H     H_    0.137691 0.973791 0.923456 0.148491
H15   H     H_    0.362367 0.473695 0.076757 0.148703
H16   H     H_    0.641785 0.445798 0.922570 0.148654
H17   H     H_    0.870256 0.914993 0.951066 0.171143
H18   H     H_    0.120546 0.922668 0.047154 0.164091
H19   H     H_    0.379514 0.422803 0.952956 0.163659
H20   H     H_    0.629649 0.413651 0.048861 0.171027
H21   H     H_    0.122380 0.229065 0.940573 0.142676
H22   H     H_    0.830651 0.198597 0.055711 0.169818
H23   H     H_    0.669465 0.698301 0.943767 0.171149
H24   H     H_    0.377623 0.729721 0.059115 0.141189
H25   H     H_    0.598002 0.809269 0.930925 0.115047
H26   H     H_    0.362999 0.893090 0.079500 0.141228
H27   H     H_    0.137151 0.392435 0.920437 0.141167
H28   H     H_    0.902002 0.310045 0.068854 0.115588
H29   H     H_    0.586535 0.832886 0.056896 0.142616
H30   H     H_    0.379637 0.944978 0.956693 0.163461
H31   H     H_    0.120539 0.444441 0.043295 0.162715
H32   H     H_    0.913483 0.334046 0.942954 0.143604
C77   C     C_R   0.492904 0.170785 0.572971 -0.025396
C78   C     C_R   0.499945 0.158495 0.423236 -0.005658
C79   C     C_R   0.006945 0.681692 0.580806 -0.038141
C80   C     C_R   0.014818 0.660191 0.430260 -0.025771
C81   C     C_R   0.500290 0.062841 0.537454 -0.064371
C82   C     C_R   0.502061 0.055197 0.465147 -0.046627
C83   C     C_R   0.035611 0.581125 0.549239 -0.031343
C84   C     C_R   0.040438 0.572640 0.476258 -0.039735
C85   C     C_R   0.481023 0.267124 0.455043 0.172198
C86   C     C_R   0.484308 0.278015 0.531436 0.134741
C87   C     C_R   0.981728 0.759577 0.460123 0.162396
C88   C     C_R   0.985437 0.778970 0.535326 0.129926
C89   C     C_3   0.552756 0.967455 0.548302 -0.238248
C90   C     C_3   0.554015 0.956718 0.468163 -0.224820
C91   C     C_3   0.105927 0.530161 0.559269 -0.256717
C92   C     C_3   0.109173 0.516684 0.479264 -0.234084
H33   H     H_    0.104631 0.442382 0.587787 0.187088
H34   H     H_    0.149564 0.572473 0.453521 0.178305
H35   H     H_    0.531429 0.886908 0.575595 0.208780
H36   H     H_    0.602685 0.987963 0.444392 0.155963
H37   H     H_    0.601309 0.003863 0.571277 0.147320
H38   H     H_    0.532968 0.870139 0.447648 0.192860
H39   H     H_    0.143353 0.597243 0.580603 0.137530
H40   H     H_    0.103805 0.422419 0.461727 0.190121
C93   C     C_R   0.745117 0.931797 0.582008 -0.008049
C94   C     C_R   0.247808 0.942130 0.417216 0.046480
C95   C     C_R   0.264254 0.378854 0.567840 -0.020306
C96   C     C_R   0.747846 0.432754 0.418058 0.009796
C97   C     C_R   0.768466 0.043285 0.554905 -0.082402
C98   C     C_R   0.193878 0.980854 0.460640 -0.063193
C99   C     C_R   0.312541 0.445055 0.533087 -0.022437
C100  C     C_R   0.697035 0.484195 0.459725 -0.081413
C101  C     C_R   0.768898 0.062465 0.480723 -0.051054
C102  C     C_R   0.201630 0.000518 0.531456 -0.032937
C103  C     C_R   0.315130 0.453508 0.461158 0.093106
C104  C     C_R   0.707544 0.519087 0.528030 -0.050429
C105  C     C_R   0.711800 0.869665 0.462193 -0.026925
C106  C     C_R   0.318148 0.929124 0.523032 -0.006080
C107  C     C_R   0.219715 0.317746 0.450246 -0.064525
C108  C     C_R   0.824484 0.456566 0.517715 -0.049999
C109  C     C_R   0.714109 0.849270 0.535330 -0.113047
C110  C     C_R   0.313356 0.939409 0.448105 -0.050869
C111  C     C_R   0.221407 0.303845 0.525756 -0.140571
C112  C     C_R   0.814064 0.430831 0.445095 -0.079527
C113  C     C_3   0.839114 0.093350 0.563914 -0.197440
C114  C     C_3   0.119622 0.948008 0.468604 -0.177110
C115  C     C_3   0.343284 0.562447 0.550481 -0.241204
C116  C     C_3   0.623168 0.459220 0.470855 -0.158108
C117  C     C_3   0.845532 0.080274 0.484839 0.159002
C118  C     C_3   0.127978 0.976934 0.547865 0.125594
C119  C     C_3   0.355313 0.568226 0.471163 0.132494
C120  C     C_3   0.634901 0.496319 0.548292 0.153371
C121  C     C_R   0.738079 0.978709 0.435176 0.020515
C122  C     C_R   0.259782 0.959795 0.565940 0.003354
C123  C     C_R   0.261001 0.408307 0.419234 0.063410
C124  C     C_R   0.768345 0.493015 0.562017 -0.008534
H41   H     H_    0.698037 0.762478 0.555052 0.185720
H42   H     H_    0.358441 0.927502 0.415083 0.167470
H43   H     H_    0.188751 0.239098 0.551563 0.195873
H44   H     H_    0.856655 0.407501 0.410512 0.188558
H45   H     H_    0.877414 0.039131 0.592234 0.233832
H46   H     H_    0.111885 0.850259 0.458590 0.128569
H47   H     H_    0.389531 0.557751 0.584541 0.217236
H48   H     H_    0.611252 0.361907 0.464038 0.120290
H49   H     H_    0.836904 0.188555 0.582721 0.153137
H50   H     H_    0.084827 0.007821 0.438086 0.233121
H51   H     H_    0.302531 0.623978 0.570929 0.141996
H52   H     H_    0.592772 0.523437 0.438825 0.243689
H53   H     H_    0.869783 0.995638 0.467456 0.230981
H54   H     H_    0.120591 0.898017 0.583607 0.137807
H55   H     H_    0.408540 0.559208 0.453180 0.242981
H56   H     H_    0.630974 0.420900 0.586945 0.166065
N1    N     N_R   0.453943 0.358294 0.408652 0.070937
O53   O     O_R   0.493630 0.445231 0.387012 -0.337394
O54   O     O_R   0.403266 0.327297 0.367057 -0.373339
N2    N     N_R   0.488636 0.394948 0.564856 0.054351
O55   O     O_R   0.487853 0.490017 0.525585 -0.352310
O56   O     O_R   0.514732 0.407680 0.628162 -0.319314
N3    N     N_R   0.942364 0.836507 0.414424 0.079690
O57   O     O_R   0.972236 0.924127 0.380140 -0.284770
O58   O     O_R   0.881634 0.800587 0.393931 -0.371774
N4    N     N_R   0.977889 0.900152 0.562563 0.044953
O59   O     O_R   0.976387 0.988583 0.517755 -0.295637
O60   O     O_R   0.995519 0.927457 0.627346 -0.298839
C125  C     C_3   0.684618 0.771893 0.414016 -0.330693
H57   H     H_    0.636238 0.798120 0.387031 0.161539
H58   H     H_    0.724504 0.744369 0.374750 0.176063
H59   H     H_    0.669791 0.694132 0.444840 0.160421
C126  C     C_3   0.379688 0.865849 0.553232 -0.336588
H60   H     H_    0.408822 0.927675 0.585846 0.187404
H61   H     H_    0.363264 0.791426 0.588281 0.139673
H62   H     H_    0.414379 0.829427 0.511381 0.167309
C127  C     C_3   0.173695 0.240803 0.404278 -0.366792
H63   H     H_    0.133983 0.291831 0.375130 0.171822
H64   H     H_    0.205247 0.188149 0.365936 0.143870
H65   H     H_    0.143508 0.180454 0.437006 0.180040
C128  C     C_3   0.895568 0.458958 0.543024 -0.303262
H66   H     H_    0.901815 0.553585 0.557297 0.128690
H67   H     H_    0.903797 0.394325 0.587169 0.209411
H68   H     H_    0.932926 0.439305 0.500159 0.184372
N5    N     N_R   0.877690 0.183581 0.450425 0.068176
O61   O     O_R   0.932148 0.227876 0.481077 -0.302411
O62   O     O_R   0.875492 0.190691 0.381544 -0.293614
N6    N     N_R   0.093627 0.087804 0.573386 0.126595
O63   O     O_R   0.087197 0.106988 0.641400 -0.276934
O64   O     O_R   0.065703 0.164949 0.530041 -0.311719
N7    N     N_R   0.325950 0.671727 0.439440 0.058062
O65   O     O_R   0.363480 0.725260 0.391497 -0.359795
O66   O     O_R   0.261062 0.696820 0.449325 -0.414970
N8    N     N_R   0.599915 0.607989 0.570895 0.124039
O67   O     O_R   0.572581 0.681279 0.524894 -0.399348
O68   O     O_R   0.587708 0.626533 0.638131 -0.282486
C129  C     C_3   0.662428 0.692613 0.084544 -0.392134
H69   H     H_    0.666816 0.718619 0.141436 0.160879
H70   H     H_    0.623524 0.619890 0.080582 0.145294
H71   H     H_    0.713333 0.659256 0.065724 0.156279
C130  C     C_3   0.408755 0.758864 0.923664 -0.394580
H72   H     H_    0.408194 0.780995 0.866067 0.172947
H73   H     H_    0.462624 0.764536 0.943137 0.105066
H74   H     H_    0.389512 0.665139 0.930925 0.154963
C131  C     C_3   0.091171 0.258362 0.076047 -0.395613
H75   H     H_    0.091707 0.280598 0.133671 0.171346
H76   H     H_    0.037327 0.263957 0.056523 0.105468
H77   H     H_    0.110332 0.164650 0.068696 0.155030
C132  C     C_3   0.837736 0.193259 0.914934 -0.391936
H78   H     H_    0.833435 0.219271 0.858088 0.161864
H79   H     H_    0.876659 0.120721 0.918824 0.145655
H80   H     H_    0.786811 0.159626 0.933594 0.154670

loop_
_geom_bond_atom_site_label_1
_geom_bond_atom_site_label_2
_geom_bond_distance
_ccdc_geom_bond_type
O4    C12   1.285581 A    
C57   C61   1.375745 A    
O39   C19   1.292126 A    
C54   C70   1.491789 S    
C132  H79   1.105844 S    
C66   C70   1.522972 S    
C55   C75   1.401617 A    
C60   C64   1.376181 A    
C42   H10   1.080185 S    
Cr7   O51   2.005428 S    
C118  H54   1.112475 S    
C13   C96   1.434228 S    
C59   C63   1.392829 A    
N8    O67   1.300550 A    
O25   C21   1.293877 A    
C85   N1    1.435643 S    
O21   C9    1.275780 A    
C115  H51   1.111993 S    
C1    O9    1.273527 A    
O44   Cr12  2.082527 S    
N4    O60   1.299410 A    
C3    O11   1.311591 A    
C120  N8    1.473793 S    
C100  C104  1.354916 A    
C119  H55   1.089964 S    
C102  C122  1.377637 A    
C15   C94   1.461691 S    
C117  N5    1.455067 S    
C53   C69   1.498844 S    
C65   C69   1.519946 S    
C29   C37   1.412429 A    
O2    C10   1.282583 A    
C63   H19   1.074685 S    
N1    O53   1.297834 A    
O17   Cr9   2.088542 S    
C60   C76   1.386247 A    
N2    O56   1.300116 A    
O31   Cr3   1.953007 S    
O16   Cr8   1.965011 S    
C90   H36   1.099141 S    
Cr12  O52   2.005706 S    
C113  H45   1.094666 S    
C44   H12   1.082469 S    
C6    C25   1.471816 S    
O13   C5    1.280493 A    
O28   Cr4   2.078428 S    
O12   Cr8   2.082551 S    
O22   Cr10  1.962143 S    
O15   C7    1.282435 A    
C87   C88   1.430261 A    
C115  H47   1.103281 S    
O46   Cr10  1.965224 S    
C105  C125  1.505890 S    
O48   C24   1.310379 A    
C51   C67   1.493472 S    
C52   C68   1.495311 S    
C77   C86   1.432716 A    
C128  H67   1.108404 S    
C56   C76   1.404452 A    
C114  H50   1.107356 S    
C94   C110  1.397858 A    
C109  H41   1.076980 S    
H1    C33   1.080411 S    
C22   C122  1.456002 S    
H3    C35   1.081172 S    
C79   C83   1.378986 A    
C17   O41   1.260472 A    
C19   O43   1.264993 A    
C30   C38   1.415536 A    
C20   O44   1.306585 A    
Cr8   O52   2.003285 S    
C9    C73   1.436932 S    
O46   C22   1.278717 A    
C27   C31   1.423316 A    
N7    O66   1.301595 A    
C51   C55   1.393492 A    
H4    C36   1.080514 S    
C82   C90   1.487297 S    
C49   C53   1.388599 A    
C16   O36   1.280483 A    
C129  H70   1.105715 S    
C50   C54   1.393558 A    
C116  H52   1.104051 S    
O31   C15   1.306323 A    
C67   H21   1.112505 S    
O32   C16   1.289230 A    
C103  C119  1.502088 S    
C43   C44   1.389318 A    
C29   C30   1.420212 A    
C117  H53   1.098842 S    
C53   C73   1.404197 A    
C95   C111  1.415576 A    
O24   C12   1.276277 A    
C37   H5    1.080912 S    
C126  H60   1.078178 S    
C59   C75   1.405708 A    
C119  N7    1.414098 S    
C47   C63   1.399683 A    
O8    Cr4   1.959336 S    
C92   H34   1.108201 S    
C125  H57   1.105976 S    
C45   C61   1.404342 A    
O32   Cr4   1.955771 S    
H2    C34   1.081223 S    
O11   Cr7   2.083496 S    
C4    C45   1.442024 S    
C49   C65   1.495430 S    
C54   C74   1.401969 A    
C55   C71   1.491578 S    
C88   N4    1.444153 S    
O3    Cr3   2.073430 S    
C96   C100  1.380509 A    
Cr5   O49   2.005428 S    
C106  C122  1.429353 A    
C87   N3    1.432309 S    
C32   C40   1.412454 A    
O22   C10   1.294105 A    
C4    O12   1.272688 A    
C19   C80   1.462645 S    
C2    O10   1.311266 A    
C12   C76   1.437544 S    
O27   C23   1.269641 A    
C83   C84   1.376859 A    
C45   C49   1.394984 A    
C131  H75   1.109681 S    
C86   N2    1.441659 S    
C66   H26   1.112161 S    
C62   H18   1.074832 S    
C47   C51   1.401523 A    
O3    C11   1.281590 A    
O8    C4    1.282818 A    
C67   H27   1.112157 S    
C130  H72   1.109667 S    
C72   H32   1.106868 S    
C101  C121  1.395750 A    
C127  H64   1.109886 S    
Cr1   O49   2.018269 S    
Cr3   O51   2.018269 S    
C24   C124  1.467030 S    
C128  H68   1.103851 S    
C3    C46   1.466481 S    
C113  H49   1.113184 S    
O26   Cr2   2.078428 S    
C5    O17   1.285557 A    
O29   C13   1.290536 A    
O28   C24   1.316094 A    
O14   C6    1.283421 A    
C90   H38   1.110960 S    
C8    O20   1.285362 A    
C126  H62   1.109722 S    
C104  C120  1.479772 S    
N8    O68   1.300589 A    
O40   Cr8   1.963200 S    
C61   H17   1.075226 S    
C125  H59   1.077602 S    
C98   C114  1.491786 S    
O41   Cr9   2.082244 S    
C64   H20   1.075296 S    
C14   C95   1.447206 S    
C102  C118  1.483273 S    
C28   C32   1.419251 A    
C96   C112  1.381217 A    
C40   C42   1.393308 A    
O42   Cr10  2.082527 S    
O35   Cr7   2.079051 S    
O29   Cr1   1.953007 S    
C80   C84   1.392670 A    
N6    O63   1.300532 A    
C97   C101  1.409719 A    
Cr9   O49   2.003688 S    
C18   O42   1.289777 A    
Cr11  O51   2.003688 S    
O26   C22   1.286855 A    
C33   C34   1.371855 A    
C25   C29   1.418732 A    
O20   Cr12  2.086914 S    
C10   C74   1.469543 S    
C41   H9    1.082460 S    
N3    O57   1.301104 A    
C85   C86   1.441156 A    
O47   Cr11  1.967327 S    
O5    C1    1.284183 A    
C11   C75   1.469175 S    
C100  C116  1.472844 S    
C131  H77   1.111921 S    
C66   H24   1.112516 S    
C70   C130  1.527417 S    
C83   C91   1.488433 S    
C26   C30   1.423855 A    
C107  C127  1.505460 S    
C130  H74   1.111946 S    
C81   C89   1.482416 S    
O30   C14   1.270358 A    
C84   C92   1.471569 S    
N7    O65   1.300477 A    
C89   H35   1.109430 S    
C69   C129  1.528857 S    
C78   C82   1.391138 A    
C48   C52   1.394794 A    
C91   H39   1.112801 S    
C106  C126  1.497206 S    
C72   C132  1.528902 S    
C37   C43   1.393338 A    
O18   Cr10  2.086914 S    
C128  H66   1.088856 S    
C95   C99   1.356120 A    
C39   C41   1.395620 A    
C105  C121  1.406312 A    
O34   Cr6   2.082362 S    
O6    Cr2   1.959336 S    
O24   Cr12  1.962143 S    
C69   H29   1.106888 S    
O30   Cr2   1.955771 S    
O48   Cr12  1.965224 S    
C46   C62   1.400130 A    
C113  C117  1.497048 S    
C2    C47   1.466102 S    
C8    C27   1.472571 S    
O37   C17   1.296071 A    
C15   O35   1.264582 A    
Cr10  O50   2.005706 S    
C50   C66   1.493353 S    
O40   C20   1.264366 A    
O43   Cr11  2.082244 S    
C67   C71   1.522836 S    
O21   Cr9   1.961767 S    
C129  H69   1.109643 S    
O39   Cr7   1.963830 S    
O45   Cr9   1.967327 S    
C13   O33   1.264733 A    
O13   Cr5   1.962192 S    
O23   Cr11  1.961767 S    
O15   Cr7   1.962192 S    
C103  C123  1.404141 A    
C68   H28   1.110933 S    
N1    O54   1.301406 A    
C57   H13   1.075568 S    
C18   C77   1.467395 S    
C110  H42   1.079183 S    
C93   C109  1.401499 A    
N2    O55   1.287303 A    
C65   H25   1.110932 S    
C48   C64   1.404583 A    
C21   C121  1.444442 S    
C25   C34   1.396031 A    
O6    C2    1.312972 A    
C31   C39   1.415453 A    
O1    Cr1   2.073430 S    
C40   H8    1.080921 S    
O19   Cr11  2.088542 S    
C91   C92   1.511040 S    
C41   C42   1.389337 A    
C89   C90   1.509822 S    
C58   H14   1.079798 S    
O45   C21   1.309237 A    
O47   C23   1.302070 A    
C105  C109  1.393226 A    
C115  C119  1.509023 S    
C17   C78   1.458158 S    
C108  C124  1.427482 A    
C81   C82   1.360947 A    
C6    O18   1.283518 A    
C28   C35   1.395643 A    
C35   C36   1.371857 A    
C20   C79   1.477401 S    
O36   Cr8   2.082362 S    
C104  C124  1.372361 A    
C79   C88   1.439056 A    
O38   Cr6   1.963200 S    
C80   C87   1.392339 A    
C107  C111  1.427190 A    
C132  H78   1.109595 S    
O37   Cr5   1.963830 S    
C68   C72   1.519986 S    
O1    C9    1.284679 A    
C38   C44   1.395647 A    
O7    C3    1.314168 A    
N4    O59   1.293266 A    
C38   H6    1.080188 S    
C111  H43   1.072382 S    
C43   H11   1.080170 S    
C129  H71   1.111333 S    
C60   H16   1.075636 S    
N3    O58   1.300808 A    
C5    C26   1.472509 S    
C58   C74   1.405638 A    
C1    C48   1.442529 S    
C59   H15   1.079714 S    
C7    C28   1.471784 S    
N5    O62   1.296981 A    
C108  C112  1.407774 A    
C26   C33   1.397298 A    
O33   Cr5   2.079051 S    
C93   C97   1.411096 A    
C7    O19   1.283707 A    
C127  H63   1.102393 S    
Cr4   O52   2.018314 S    
O2    Cr2   2.076040 S    
O14   Cr6   1.965011 S    
Cr6   O50   2.003285 S    
C107  C123  1.409326 A    
O5    Cr1   1.962520 S    
C52   C56   1.388757 A    
C78   C85   1.392692 A    
C71   H31   1.109591 S    
C114  C118  1.531043 S    
O9    Cr5   2.083496 S    
C91   H33   1.111626 S    
C56   C72   1.498984 S    
O16   C8    1.281523 A    
C57   C73   1.386263 A    
C114  H46   1.109456 S    
C126  H61   1.102617 S    
C120  H56   1.110520 S    
O7    Cr3   1.962520 S    
C71   C131  1.527272 S    
C106  C110  1.415205 A    
C99   C103  1.355193 A    
C125  H58   1.110535 S    
C46   C50   1.401326 A    
C94   C98   1.392948 A    
C31   C32   1.420220 A    
C77   C81   1.376539 A    
N5    O61   1.298577 A    
Cr2   O50   2.018314 S    
C39   H7    1.080174 S    
N6    O64   1.300492 A    
C65   H23   1.112177 S    
O27   Cr3   2.082003 S    
C70   H30   1.109618 S    
C132  H80   1.111322 S    
C116  C120  1.528019 S    
C27   C36   1.397664 A    
O38   C18   1.274670 A    
O25   Cr1   2.082003 S    
C68   H22   1.112221 S    
C23   C123  1.463542 S    
C116  H48   1.110101 S    
C89   H37   1.111076 S    
C58   C62   1.393050 A    
C14   O34   1.285969 A    
C99   C115  1.467116 S    
C16   C93   1.462464 S    
C97   C113  1.486833 S    
C131  H76   1.108563 S    
C108  C128  1.458416 S    
C101  C117  1.500462 S    
C130  H73   1.108553 S    
O23   C11   1.293717 A    
O10   Cr6   2.082551 S    
C118  N6    1.477450 S    
C127  H65   1.080370 S    
O4    Cr4   2.076040 S    
C92   H40   1.099937 S    
C98   C102  1.355957 A    
C112  H44   1.081262 S    
