data_mof_unit_59974.cif
_audit_creation_date              2012-12-10T18:15:13-0500
_audit_creation_method            fapswitch 2.2
_symmetry_space_group_name_H-M    P1
_symmetry_Int_Tables_number       1
_space_group_crystal_system       triclinic
_cell_length_a                    12.591908
_cell_length_b                    13.1715
_cell_length_c                    23.443356
_cell_angle_alpha                 91.852479
_cell_angle_beta                  102.666624
_cell_angle_gamma                 82.631927
_cell_volume                      3762.19319152

loop_
_atom_site_label
_atom_site_type_symbol
_atom_type_description
_atom_site_fract_x
_atom_site_fract_y
_atom_site_fract_z
_atom_type_partial_charge
C1    C     C_R   0.439464 0.690491 0.488600 0.887311
C2    C     C_R   0.491095 0.673647 0.031170 -0.137594
C3    C     C_R   0.499028 0.672588 0.972985 -0.131208
C4    C     C_R   0.515984 0.579325 0.943644 -0.006364
C5    C     C_R   0.526485 0.485710 0.973259 -0.054293
C6    C     C_R   0.543799 0.391120 0.943961 -0.107599
C7    C     C_R   0.554990 0.298361 0.975323 0.316874
C8    C     C_R   0.547173 0.301462 0.033775 -0.174578
C9    C     C_R   0.520261 0.577478 0.884764 0.525227
C10   C     C_R   0.547152 0.394316 0.884354 0.555467
C11   C     C_R   0.429431 0.465171 0.757600 -0.117592
C12   C     C_R   0.501309 0.498747 0.610849 0.936257
C13   C     C_R   0.418188 0.468181 0.697311 0.256880
C14   C     C_R   0.506347 0.494154 0.674088 -0.135559
C15   C     C_R   0.603894 0.514621 0.712863 -0.204792
C16   C     C_R   0.613485 0.511403 0.772876 -0.081389
C17   C     C_R   0.526187 0.486901 0.795085 0.244073
C18   C     C_R   0.402789 0.479533 0.226260 0.329917
C19   C     C_R   0.402562 0.482036 0.285653 -0.241277
C20   C     C_R   0.498415 0.497141 0.326998 -0.082209
C21   C     C_R   0.594539 0.509606 0.308336 -0.217519
C22   C     C_R   0.594874 0.506818 0.249258 -0.153920
C23   C     C_R   0.560897 0.308053 0.506792 0.889892
C24   C     C_R   0.499481 0.491829 0.208273 0.252401
C25   C     C_R   0.723597 0.053399 0.484545 -0.329556
C26   C     C_R   0.595468 0.197690 0.502576 -0.129518
C27   C     C_R   0.292343 0.836544 0.473061 -0.173064
C28   C     C_R   0.257748 0.940460 0.465823 -0.143067
C29   C     C_R   0.333333 0.007627 0.463439 -0.178319
C30   C     C_R   0.444912 0.970396 0.465357 0.111913
C31   C     C_R   0.474371 0.864019 0.461520 0.092553
C32   C     C_R   0.529442 0.034269 0.473559 0.080970
C33   C     C_R   0.637024 0.993567 0.469247 0.134547
C34   C     C_R   0.499202 0.499339 0.389421 0.855124
C35   C     C_R   0.657659 0.891750 0.452610 -0.212031
C36   C     C_R   0.576701 0.827801 0.447962 -0.169376
C37   C     C_R   0.511397 0.135614 0.490588 -0.320120
C38   C     C_R   0.704827 0.155239 0.504056 0.486087
C39   C     C_R   0.401355 0.797719 0.472775 -0.114378
C40   C     C_R   0.082902 0.359242 0.409885 -0.304418
C41   C     C_R   0.807060 0.620033 0.576263 0.264479
C42   C     C_R   0.917748 0.635604 0.596271 0.428651
C43   C     C_R   0.993515 0.590467 0.565537 -0.292736
C44   C     C_R   0.962625 0.529597 0.515823 -0.069155
C45   C     C_R   0.520183 0.398022 0.120953 0.578715
C46   C     C_R   0.852110 0.509459 0.499803 0.169790
C47   C     C_R   0.039885 0.481454 0.484636 0.033897
C48   C     C_R   0.006164 0.412369 0.438520 0.186304
C49   C     C_R   0.897066 0.394509 0.422849 -0.328148
C50   C     C_R   0.822155 0.439900 0.454349 -0.187245
C51   C     C_R   0.150527 0.498464 0.497754 -0.006175
C52   C     C_R   0.191932 0.375921 0.426876 0.008703
C53   C     C_R   0.492011 0.580924 0.119536 0.546031
C54   C     C_R   0.500278 0.581468 0.061104 -0.012852
C55   C     C_R   0.518585 0.487231 0.032272 -0.013386
C56   C     C_R   0.528537 0.394746 0.062395 -0.078078
H1    H     H_    0.477435 0.746845 0.052508 0.202083
H2    H     H_    0.327637 0.472471 0.299270 0.188074
H3    H     H_    0.669637 0.521303 0.339241 0.178268
H4    H     H_    0.669284 0.516386 0.235109 0.156170
H5    H     H_    0.737840 0.860272 0.445842 0.143930
H6    H     H_    0.805806 0.018100 0.484417 0.137689
H7    H     H_    0.431563 0.167372 0.496644 0.188004
H8    H     H_    0.233938 0.786798 0.479618 0.157030
H9    H     H_    0.301779 0.087754 0.459123 0.133102
H10   H     H_    0.172895 0.969403 0.464563 0.147134
H11   H     H_    0.490902 0.745117 0.950958 0.205439
H12   H     H_    0.595829 0.749857 0.434059 0.175325
H13   H     H_    0.252476 0.335988 0.405049 0.139710
H14   H     H_    0.870941 0.339970 0.388624 0.162640
H15   H     H_    0.058968 0.305049 0.375119 0.157803
H16   H     H_    0.182415 0.554732 0.528927 0.142794
H17   H     H_    0.077721 0.600376 0.584049 0.202860
H18   H     H_    0.744512 0.411575 0.445640 0.212232
H19   H     H_    0.555558 0.229891 0.056815 0.218864
H20   H     H_    0.362422 0.446207 0.775754 0.176662
H21   H     H_    0.673610 0.533036 0.697057 0.216443
H22   H     H_    0.688597 0.528050 0.802169 0.163162
N1    N     N_R   0.502027 0.490119 0.147886 -0.348193
N2    N     N_R   0.533974 0.486192 0.856571 -0.359571
N3    N     N_R   0.222200 0.444670 0.469780 -0.103544
N4    N     N_R   0.776960 0.554790 0.529910 -0.164503
O1    O     O_R   0.366740 0.627150 0.485570 -0.625799
O2    O     O_2   0.474436 0.670117 0.148020 -0.533250
O3    O     O_2   0.508612 0.666086 0.855333 -0.528355
O4    O     O_2   0.562237 0.307442 0.853660 -0.474213
O5    O     O_R   0.544830 0.662520 0.504870 -0.577964
O6    O     O_R   0.410930 0.482340 0.574190 -0.576249
O7    O     O_R   0.589010 0.517710 0.593490 -0.573742
O8    O     O_R   0.455170 0.337480 0.495130 -0.624196
O9    O     O_R   0.633260 0.372850 0.514430 -0.588735
O10   O     O_R   0.410990 0.482290 0.406510 -0.621360
O11   O     O_R   0.589070 0.517660 0.425810 -0.659181
O12   O     O_2   0.530651 0.310250 0.150978 -0.530377
Zn1   Zn    Zn3+2 0.381090 0.476380 0.487110 0.972004
Zn2   Zn    Zn3+2 0.618910 0.523620 0.512890 0.985845
O13   O     O_3   0.789444 0.207349 0.534602 -0.628294
C57   C     C_3   0.881924 0.199511 0.508866 0.079490
H23   H     H_    0.907167 0.276839 0.511717 0.208996
H24   H     H_    0.864730 0.177267 0.461742 0.111369
C58   C     C_3   0.980022 0.130689 0.544486 -0.374835
H25   H     H_    0.985012 0.144861 0.591946 0.263450
H26   H     H_    0.970953 0.048899 0.535076 0.202732
C59   C     C_3   0.087458 0.152174 0.529823 -0.905953
H27   H     H_    0.083218 0.142804 0.482150 0.247908
H28   H     H_    0.156388 0.097955 0.553833 0.274660
H29   H     H_    0.103944 0.231459 0.542940 0.290020
Br1   Br    Br    0.699749 0.692328 0.614576 -0.504429
O14   O     O_3   0.960341 0.671930 0.651890 -0.614937
C60   C     C_3   0.928238 0.776809 0.662767 0.169655
H30   H     H_    0.996054 0.802555 0.696653 0.176967
H31   H     H_    0.857351 0.784551 0.684117 0.196040
C61   C     C_3   0.907868 0.850791 0.610786 -0.474381
H32   H     H_    0.983464 0.848214 0.593372 0.222269
H33   H     H_    0.840264 0.830051 0.575091 0.239852
C62   C     C_3   0.875308 0.959532 0.630919 -0.852390
H34   H     H_    0.803377 0.962229 0.651425 0.285097
H35   H     H_    0.851940 0.011694 0.593156 0.276571
H36   H     H_    0.944840 0.987056 0.662808 0.264765
Br2   Br    Br    0.580773 0.163044 0.943520 -0.360620
Br3   Br    Br    0.280459 0.434009 0.651818 -0.494461
Br4   Br    Br    0.270437 0.460471 0.170724 -0.438124

loop_
_geom_bond_atom_site_label_1
_geom_bond_atom_site_label_2
_ccdc_geom_bond_type
C1    O5    A    
C55   C56   A    
C43   H17   S    
C58   H25   S    
C41   Br1   S    
C41   C42   A    
C19   C20   A    
C34   O11   A    
C8    C56   A    
C59   H28   S    
O13   C57   S    
C2    H1    S    
C7    C8    A    
C15   H21   S    
C53   C54   A    
C53   O2    S    
C18   C24   A    
C28   C29   A    
C40   H15   S    
C42   O14   S    
C21   H3    S    
C11   H20   S    
C50   H18   S    
C22   H4    S    
C30   C31   A    
N3    Zn1   S    
C15   C16   A    
C62   H34   S    
C18   C19   A    
C23   C26   S    
C60   H30   S    
C52   H13   S    
C9    O3    S    
O9    Zn2   S    
C46   N4    A    
C10   O4    S    
C35   C36   A    
C45   C56   A    
C27   C39   A    
C16   C17   A    
C23   O9    A    
C51   N3    A    
C44   C47   A    
C61   C62   S    
C20   C34   S    
O6    Zn1   S    
C58   H26   S    
C21   C22   A    
C38   O13   S    
C45   O12   S    
C59   H27   S    
C37   H7    S    
C44   C46   A    
C34   O10   A    
C19   H2    S    
N4    Zn2   S    
C12   O6    A    
C12   O7    A    
O8    Zn1   S    
C45   N1    A    
C2    C54   A    
C10   N2    A    
C26   C38   A    
C47   C51   A    
C40   C52   A    
C17   N2    S    
C9    N2    A    
C28   H10   S    
C43   C44   A    
C29   C30   A    
C25   C38   A    
C13   Br3   S    
C24   N1    S    
C47   C48   A    
O1    Zn1   S    
O5    Zn2   S    
C23   O8    A    
C35   H5    S    
C32   C37   A    
C60   C61   S    
C18   Br4   S    
C29   H9    S    
C48   C49   A    
C12   C14   S    
C57   H23   S    
O11   Zn2   S    
C57   H24   S    
C49   H14   S    
C22   C24   A    
C42   C43   A    
O10   Zn1   S    
C3    C4    A    
C61   H32   S    
C40   C48   A    
C54   C55   A    
C11   C17   A    
C53   N1    A    
C31   C36   A    
C7    Br2   S    
C5    C55   A    
C3    H11   S    
C4    C5    A    
C6    C10   A    
C36   H12   S    
C26   C37   A    
C6    C7    A    
C1    O1    A    
C57   C58   S    
C46   C50   A    
C62   H36   S    
C32   C33   A    
O7    Zn2   S    
C2    C3    A    
O14   C60   S    
C30   C32   A    
C11   C13   A    
C5    C6    A    
C41   N4    A    
C33   C35   A    
C62   H35   S    
C16   H22   S    
C25   H6    S    
C8    H19   S    
C52   N3    A    
C60   H31   S    
C27   H8    S    
C1    C39   S    
C20   C21   A    
C49   C50   A    
C51   H16   S    
C27   C28   A    
C31   C39   A    
C14   C15   A    
C58   C59   S    
C4    C9    A    
C13   C14   A    
C59   H29   S    
C25   C33   A    
C61   H33   S    
