data_mof_unit_31360.cif
_audit_creation_date              2012-12-10T20:30:13-0500
_audit_creation_method            fapswitch 2.2
_symmetry_space_group_name_H-M    P1
_symmetry_Int_Tables_number       1
_space_group_crystal_system       triclinic
_cell_length_a                    9.9023
_cell_length_b                    10.69282
_cell_length_c                    13.427647
_cell_angle_alpha                 92.281823
_cell_angle_beta                  71.545349
_cell_angle_gamma                 89.341849
_cell_volume                      1347.14665828

loop_
_atom_site_label
_atom_site_type_symbol
_atom_type_description
_atom_site_fract_x
_atom_site_fract_y
_atom_site_fract_z
_atom_type_partial_charge
C1    C     C_R   0.497835 0.739408 0.503809 0.905421
C2    C     C_R   0.388081 0.468415 0.814907 -0.166326
C3    C     C_R   0.415019 0.933891 0.460455 0.208980
C4    C     C_R   0.424523 0.491192 0.702227 0.878129
C5    C     C_R   0.490837 0.871061 0.513864 -0.146907
C6    C     C_R   0.553109 0.935792 0.580032 -0.162981
C7    C     C_R   0.553268 0.066663 0.582448 -0.042271
C8    C     C_R   0.493393 0.128300 0.514114 -0.218905
C9    C     C_R   0.416262 0.061238 0.460252 0.187909
C10   C     C_3   0.428763 0.059145 0.346219 -0.369866
C11   C     C_3   0.427079 0.918223 0.347225 -0.555508
C12   C     C_R   0.450314 0.472757 0.977330 0.070790
C13   C     C_R   0.893909 0.562277 0.578542 0.081865
C14   C     C_R   0.960437 0.424414 0.430077 -0.003880
C15   C     C_R   0.104043 0.425506 0.430916 -0.074045
C16   C     C_R   0.499296 0.260208 0.503069 0.879763
C17   C     C_R   0.036402 0.565261 0.576778 0.084279
C18   C     C_3   0.022278 0.703524 0.604222 0.295654
C19   C     C_3   0.865680 0.696871 0.611540 -0.495374
C20   C     C_R   0.577567 0.499625 0.297986 0.941884
C21   C     C_R   0.781300 0.578605 0.024762 -0.090061
C22   C     C_R   0.622327 0.502621 0.185059 -0.053975
C23   C     C_R   0.494355 0.470227 0.866806 0.108844
C24   C     C_R   0.245797 0.448090 0.872700 -0.141303
C25   C     C_R   0.204458 0.441363 0.981859 0.047227
C26   C     C_R   0.304107 0.463669 0.033905 -0.302563
C27   C     C_2   0.613765 0.135491 0.656210 0.465028
C28   C     C_2   0.926131 0.339104 0.352319 0.387435
C29   C     C_2   0.102641 0.784649 0.517319 0.484181
C30   C     C_2   0.453102 0.334357 0.164562 0.385349
C31   C     C_2   0.057777 0.409535 0.042704 0.419300
C32   C     C_R   0.555024 0.487710 0.028186 -0.017453
C33   C     C_R   0.690028 0.533032 0.971861 0.187027
C34   C     C_R   0.736638 0.517737 0.863743 -0.198282
C35   C     C_R   0.644086 0.470846 0.813947 -0.181652
C36   C     C_R   0.535861 0.449537 0.129755 -0.059258
C37   C     C_R   0.742781 0.569945 0.132890 -0.256989
Cl1   Cl    Cl    0.050994 0.740064 0.726838 -0.573013
H1    H     H_    0.809668 0.610973 0.174952 0.154423
H2    H     H_    0.881909 0.619369 0.982663 0.169305
H3    H     H_    0.166473 0.439107 0.832902 0.198018
H4    H     H_    0.266895 0.471142 0.118981 0.138989
H5    H     H_    0.695755 0.431904 0.735929 0.196711
H6    H     H_    0.602284 0.884337 0.627991 0.193625
H7    H     H_    0.593835 0.235142 0.672758 0.057611
H8    H     H_    0.819125 0.329372 0.350880 0.154813
H9    H     H_    0.163620 0.743050 0.441111 0.019692
H10   H     H_    0.408464 0.282047 0.112118 0.110883
H11   H     H_    0.019602 0.426767 0.127283 0.086902
H12   H     H_    0.331775 0.099316 0.333551 0.261979
H13   H     H_    0.532712 0.093922 0.296521 0.231822
H14   H     H_    0.330380 0.878754 0.334494 0.228215
H15   H     H_    0.529327 0.872104 0.298702 0.202561
H16   H     H_    0.185377 0.367346 0.375002 0.222045
H17   H     H_    0.790648 0.709607 0.692860 0.234442
H18   H     H_    0.847323 0.530787 0.819048 0.186652
H19   H     H_    0.835440 0.751409 0.552698 0.205024
N1    N     N_R   0.856940 0.500860 0.500710 -0.148453
N2    N     N_R   0.142580 0.500820 0.500710 -0.158228
O1    O     O_R   0.385310 0.683210 0.499990 -0.619089
O2    O     O_2   0.019261 0.275484 0.288091 -0.602214
O3    O     O_2   0.093551 0.898444 0.530375 -0.521685
O4    O     O_2   0.440101 0.291613 0.249398 -0.615985
O5    O     O_2   0.979399 0.359833 0.999514 -0.550454
O6    O     O_R   0.614650 0.683240 0.500000 -0.626132
O7    O     O_R   0.328390 0.499940 0.653610 -0.582380
O8    O     O_R   0.557730 0.499980 0.653620 -0.640132
O9    O     O_R   0.385350 0.316760 0.500000 -0.572639
O10   O     O_R   0.614690 0.316790 0.500010 -0.667896
O11   O     O_R   0.442270 0.500020 0.346380 -0.588576
O12   O     O_R   0.671610 0.500060 0.346390 -0.665516
O13   O     O_2   0.685133 0.080905 0.701098 -0.529810
Zn1   Zn    Zn3+2 0.346870 0.499980 0.499990 1.001144
Zn2   Zn    Zn3+2 0.653130 0.500020 0.500010 0.925879

loop_
_geom_bond_atom_site_label_1
_geom_bond_atom_site_label_2
_ccdc_geom_bond_type
C25   C31   S    
C34   H18   S    
N1    Zn2   S    
C7    C8    A    
C19   H19   S    
C12   C23   A    
C28   H8    S    
C29   H9    S    
C1    C5    S    
C32   C36   A    
C30   H10   S    
C18   C19   S    
C5    C6    A    
C21   C33   A    
O1    Zn1   S    
C7    C27   S    
C34   C35   A    
C11   H14   S    
C8    C9    A    
C1    O6    A    
C20   O12   A    
C16   O9    A    
C35   H5    S    
C9    C10   S    
N2    Zn1   S    
C11   H15   S    
C28   O2    D    
C27   H7    S    
C8    C16   S    
C6    H6    S    
C30   O4    D    
C12   C32   A    
C24   H3    S    
C20   O11   A    
C31   H11   S    
C10   H13   S    
C17   C18   S    
C14   N1    A    
C13   C19   S    
C15   H16   S    
C24   C25   A    
C1    O1    A    
C18   C29   S    
C13   N1    A    
O9    Zn1   S    
C22   C37   A    
O6    Zn2   S    
C12   C26   A    
C2    C4    S    
C3    C9    A    
C4    O8    A    
O11   Zn1   S    
C33   C34   A    
O10   Zn2   S    
O8    Zn2   S    
C17   N2    A    
C20   C22   S    
C23   C35   A    
C2    C24   A    
C10   H12   S    
C26   H4    S    
C19   H17   S    
C29   O3    D    
C15   N2    A    
C31   O5    D    
C16   O10   A    
C3    C5    A    
O12   Zn2   S    
C6    C7    A    
C30   C36   S    
C22   C36   A    
C13   C17   A    
C32   C33   A    
C25   C26   A    
C37   H1    S    
C4    O7    A    
O7    Zn1   S    
C21   H2    S    
C18   Cl1   S    
C3    C11   S    
C10   C11   S    
C21   C37   A    
C2    C23   A    
C14   C15   A    
C14   C28   S    
C27   O13   D    
