data_mof_unit_29986.cif
_audit_creation_date              2012-12-10T17:49:39-0500
_audit_creation_method            fapswitch 2.2
_symmetry_space_group_name_H-M    P1
_symmetry_Int_Tables_number       1
_space_group_crystal_system       triclinic
_cell_length_a                    10.54403
_cell_length_b                    10.658739
_cell_length_c                    9.981854
_cell_angle_alpha                 90.15097
_cell_angle_beta                  88.01731
_cell_angle_gamma                 92.293026
_cell_volume                      1120.25106012

loop_
_atom_site_label
_atom_site_type_symbol
_atom_type_description
_atom_site_fract_x
_atom_site_fract_y
_atom_site_fract_z
_atom_type_partial_charge
C1    C     C_R   0.518367 0.262387 0.500716 0.893813
C2    C     C_3   0.961865 0.601111 0.419146 -0.222097
C3    C     C_3   0.042718 0.491918 0.374905 0.121555
C4    C     C_3   0.122326 0.508661 0.499088 -0.047809
C5    C     C_R   0.544712 0.119874 0.758090 -0.153641
C6    C     C_R   0.494905 0.063174 0.874632 -0.128800
C7    C     C_R   0.427785 0.948547 0.868246 0.157836
C8    C     C_R   0.418372 0.887617 0.743936 -0.138733
C9    C     C_R   0.476981 0.941083 0.625847 0.067923
C10   C     C_R   0.523446 0.065254 0.630750 0.076450
C11   C     C_R   0.545040 0.130464 0.507494 -0.180529
C12   C     C_R   0.257652 0.503643 0.500842 0.897666
C13   C     C_R   0.567821 0.064188 0.388721 0.138472
C14   C     C_R   0.542186 0.936961 0.387614 -0.209416
C15   C     C_R   0.494588 0.875070 0.503534 -0.135325
C16   C     C_R   0.318672 0.330691 0.125100 0.155582
C17   C     C_R   0.230059 0.270962 0.040894 -0.249665
C18   C     C_R   0.211133 0.317651 0.914698 -0.213391
C19   C     C_R   0.284224 0.421093 0.871877 0.241066
C20   C     C_R   0.400172 0.445734 0.930893 0.049931
C21   C     C_R   0.408082 0.426777 0.071964 0.113706
C22   C     C_R   0.588887 0.566854 0.066594 0.195443
C23   C     C_R   0.493059 0.740104 0.500883 0.901021
C24   C     C_R   0.592548 0.560392 0.924449 -0.133942
C25   C     C_R   0.742061 0.502158 0.498427 0.899657
C26   C     C_3   0.034650 0.413408 0.575963 -0.222999
C27   C     C_3   0.955307 0.395373 0.448974 -0.180126
C28   C     C_3   0.876563 0.505391 0.496506 -0.046121
C29   C     C_3   0.952876 0.523793 0.623585 -0.121493
C30   C     C_3   0.041891 0.618329 0.545063 0.185539
H1    H     H_    0.916695 0.305462 0.407613 0.169393
H2    H     H_    0.363580 0.800025 0.740940 0.195884
H3    H     H_    0.563181 0.886316 0.296011 0.205546
H4    H     H_    0.166428 0.196115 0.079319 0.182875
H5    H     H_    0.126079 0.288717 0.863447 0.171178
H6    H     H_    0.667494 0.610744 0.867669 0.176900
H7    H     H_    0.067268 0.336774 0.639590 0.162600
H8    H     H_    0.911550 0.536935 0.726249 0.187053
H9    H     H_    0.930950 0.677804 0.354680 0.195571
H10   H     H_    0.601513 0.205742 0.769498 0.179605
H11   H     H_    0.506379 0.109922 0.969823 0.175958
N1    N     N_R   0.498800 0.498800 0.142780 -0.116596
N2    N     N_R   0.498760 0.498720 0.857170 -0.131084
O1    O     O_R   0.500000 0.316780 0.614690 -0.632647
O2    O     O_R   0.499990 0.316750 0.385360 -0.572763
O3    O     O_R   0.313960 0.499980 0.614650 -0.602133
O4    O     O_R   0.313940 0.499960 0.385310 -0.607216
O5    O     O_R   0.500010 0.683250 0.614640 -0.623255
O6    O     O_R   0.500000 0.683220 0.385310 -0.604694
O7    O     O_R   0.686060 0.500040 0.614690 -0.640489
O8    O     O_R   0.686040 0.500020 0.385350 -0.583939
Zn1   Zn    Zn3+2 0.500010 0.500020 0.653130 0.959040
Zn2   Zn    Zn3+2 0.499990 0.499980 0.346870 1.003344
N3    N     N_3   0.372778 0.894129 0.989212 -0.438125
H12   H     H_    0.447216 0.874153 0.051340 0.199765
H13   H     H_    0.326377 0.808300 0.968630 0.216816
I1    I     I_    0.726981 0.688542 0.150765 -0.363536
N4    N     N_3   0.315263 0.284663 0.258132 -0.354041
H14   H     H_    0.222861 0.288423 0.298950 0.194384
H15   H     H_    0.336603 0.189601 0.254130 0.189343
I2    I     I_    0.172518 0.580920 0.874549 -0.433567
I3    I     I_    0.102455 0.805257 0.597824 -0.382576
N5    N     N_3   0.090241 0.477580 0.237347 -0.435555
H16   H     H_    0.011574 0.466190 0.176969 0.224319
H17   H     H_    0.136840 0.562224 0.208915 0.225623
I4    I     I_    0.660758 0.144668 0.214732 -0.404556

loop_
_geom_bond_atom_site_label_1
_geom_bond_atom_site_label_2
_ccdc_geom_bond_type
C29   H8    S    
C22   N1    A    
C4    C26   S    
N5    H17   S    
C26   H7    S    
C29   C30   S    
C3    N5    S    
C4    C12   S    
C9    C10   A    
N3    H12   S    
C1    O1    A    
O7    Zn1   S    
C19   C20   A    
C1    C11   S    
C2    C30   S    
O4    Zn2   S    
O1    Zn1   S    
C14   H3    S    
C15   C23   S    
C2    C3    S    
C9    C15   A    
O2    Zn2   S    
C7    C8    A    
C16   N4    S    
C13   C14   A    
C25   C28   S    
C11   C13   A    
C1    O2    A    
C26   C27   S    
C24   H6    S    
C19   I2    S    
C12   O4    A    
O6    Zn2   S    
C22   I1    S    
C3    C27   S    
C28   C29   S    
C17   C18   A    
C6    C7    A    
N3    H13   S    
C13   I4    S    
C30   I3    S    
N1    Zn2   S    
C5    C6    A    
N2    Zn1   S    
C22   C24   A    
C25   O8    A    
C23   O6    A    
C17   H4    S    
N4    H15   S    
N5    H16   S    
C8    H2    S    
O3    Zn1   S    
O5    Zn1   S    
C20   N2    A    
C20   C21   A    
C18   H5    S    
C26   C29   S    
C12   O3    A    
C18   C19   A    
C10   C11   A    
C5    H10   S    
C27   C28   S    
C24   N2    A    
C16   C21   A    
C25   O7    A    
C8    C9    A    
C2    C28   S    
C23   O5    A    
C7    N3    S    
C5    C10   A    
N4    H14   S    
C14   C15   A    
C27   H1    S    
C2    H9    S    
C4    C30   S    
C3    C4    S    
C21   N1    A    
C16   C17   A    
O8    Zn2   S    
C6    H11   S    
