data_mof_unit_44868.cif
_audit_creation_date              2012-12-10T16:59:23-0500
_audit_creation_method            fapswitch 2.2
_symmetry_space_group_name_H-M    P1
_symmetry_Int_Tables_number       1
_space_group_crystal_system       triclinic
_cell_length_a                    7.84116
_cell_length_b                    8.525176
_cell_length_c                    27.711354
_cell_angle_alpha                 92.514663
_cell_angle_beta                  84.168412
_cell_angle_gamma                 93.814384
_cell_volume                      1837.47358989

loop_
_atom_site_label
_atom_site_type_symbol
_atom_type_description
_atom_site_fract_x
_atom_site_fract_y
_atom_site_fract_z
_atom_type_partial_charge
C1    C     C_R   0.545583 0.794485 0.498798 0.958988
C2    C     C_R   0.604047 0.643481 0.125152 -0.074307
C3    C     C_R   0.495265 0.492115 0.646607 -0.132659
C4    C     C_R   0.508888 0.521115 0.353754 -0.141547
C5    C     C_R   0.594524 0.637880 0.023247 0.036774
C6    C     C_R   0.443099 0.370082 0.975679 0.036561
C7    C     C_R   0.466545 0.366747 0.025718 0.034484
C8    C     C_R   0.576764 0.639076 0.972761 0.032733
C9    C     C_R   0.535590 0.502890 0.049670 0.082390
C10   C     C_R   0.502596 0.504465 0.949048 0.082778
C11   C     C_R   0.674589 0.766068 0.048092 -0.256954
C12   C     C_R   0.454435 0.205527 0.501261 0.964413
C13   C     C_R   0.355332 0.244824 0.951837 -0.255096
C14   C     C_R   0.678523 0.770947 0.098017 0.246029
C15   C     C_R   0.338295 0.242992 0.902589 0.250305
C16   C     C_R   0.499224 0.496520 0.593826 0.901131
C17   C     C_R   0.502130 0.506762 0.406275 0.903986
C18   C     C_R   0.625664 0.773320 0.945484 -0.255177
C19   C     C_R   0.422951 0.230690 0.052692 -0.259479
C20   C     C_2   0.569551 0.958229 0.498165 -0.328953
C21   C     C_2   0.430509 0.041798 0.501990 -0.340083
C22   C     C_R   0.542994 0.629332 0.820913 0.584245
C23   C     C_R   0.486664 0.504554 0.898400 -0.114304
C24   C     C_R   0.507423 0.374354 0.177123 0.588565
C25   C     C_R   0.404549 0.371514 0.824221 0.573889
C26   C     C_R   0.583287 0.649444 0.176058 0.565852
C27   C     C_R   0.608946 0.420453 0.719960 -0.134980
C28   C     C_R   0.667526 0.573099 0.276047 -0.118435
C29   C     C_R   0.619992 0.418067 0.669544 0.156176
C30   C     C_R   0.661072 0.576983 0.326298 0.160376
C31   C     C_R   0.359151 0.561459 0.674952 -0.239658
C32   C     C_R   0.361773 0.477283 0.330303 -0.233441
C33   C     C_R   0.347768 0.560805 0.725220 0.230955
C34   C     C_R   0.545153 0.504334 0.100545 -0.114541
C35   C     C_R   0.367051 0.479848 0.280032 0.243121
C36   C     C_R   0.474683 0.491973 0.747609 0.201912
C37   C     C_R   0.522869 0.522877 0.252637 0.186599
C38   C     C_R   0.549599 0.637875 0.871391 -0.081268
C39   C     C_R   0.493983 0.367553 0.126966 -0.081008
C40   C     C_R   0.616240 0.773688 0.895860 0.256591
C41   C     C_R   0.431267 0.230692 0.102397 0.253231
C42   C     C_R   0.408631 0.370982 0.874771 -0.076412
H1    H     H_    0.261356 0.617330 0.658106 0.205232
H2    H     H_    0.299164 0.990676 0.505608 0.203097
H3    H     H_    0.242689 0.439554 0.350919 0.211042
H4    H     H_    0.785433 0.611259 0.254840 0.197748
H5    H     H_    0.704755 0.366006 0.738019 0.186666
H6    H     H_    0.739017 0.865144 0.029796 0.162549
H7    H     H_    0.292961 0.146140 0.970796 0.163426
H8    H     H_    0.670361 0.883196 0.961703 0.161701
H9    H     H_    0.381430 0.119973 0.036262 0.160555
H10   H     H_    0.700900 0.009348 0.494563 0.205806
I1    I     I_    0.036359 0.278130 0.439693 -0.178875
I2    I     I_    0.200022 0.036127 0.877089 -0.184758
I3    I     I_    0.962542 0.719383 0.561201 -0.168011
I4    I     I_    0.137151 0.663766 0.765886 -0.170070
I5    I     I_    0.135432 0.421046 0.247852 -0.222386
I6    I     I_    0.704349 0.993055 0.864366 -0.174561
I7    I     I_    0.319907 0.021159 0.135549 -0.156758
I8    I     I_    0.882671 0.683711 0.356268 -0.235545
I9    I     I_    0.822098 0.290020 0.632929 -0.235359
I10   I     I_    0.818468 0.972153 0.126304 -0.180692
N1    N     N_R   0.471976 0.498329 0.799087 -0.357430
N2    N     N_R   0.536413 0.515839 0.200713 -0.354780
N3    N     N_2   0.950320 0.457960 0.486880 0.029889
N4    N     N_2   0.049680 0.542040 0.513120 0.027601
O1    O     O_R   0.389250 0.738570 0.503220 -0.612560
O2    O     O_2   0.492884 0.242333 0.202597 -0.458588
O3    O     O_2   0.603827 0.787338 0.201084 -0.467319
O4    O     O_2   0.336865 0.246814 0.799599 -0.474448
O5    O     O_R   0.610750 0.261430 0.496780 -0.605743
O6    O     O_R   0.678390 0.711630 0.494810 -0.603478
O7    O     O_R   0.321610 0.288370 0.505190 -0.605131
O8    O     O_R   0.355440 0.513440 0.575450 -0.610840
O9    O     O_R   0.644560 0.486560 0.424550 -0.588567
O10   O     O_R   0.644590 0.486500 0.567040 -0.589329
O11   O     O_R   0.355410 0.513500 0.432960 -0.610745
O12   O     O_2   0.608827 0.748494 0.793049 -0.473549
Zn1   Zn    Zn3+2 0.306940 0.517990 0.505620 1.047800
Zn2   Zn    Zn3+2 0.693060 0.482010 0.494380 1.062630

loop_
_geom_bond_atom_site_label_1
_geom_bond_atom_site_label_2
_ccdc_geom_bond_type
C27   C29   A    
C32   H3    S    
C33   C36   A    
C39   C41   A    
N4    Zn1   S    
C28   H4    S    
C23   C42   A    
C31   H1    S    
C16   O8    A    
C35   C37   A    
C5    C11   A    
C11   C14   A    
C22   C38   A    
C24   C39   A    
C25   N1    A    
C3    C29   A    
C26   N2    A    
C18   C40   A    
C22   N1    A    
C30   I8    S    
C31   C33   A    
C36   N1    S    
I1    N3    S    
O9    Zn2   S    
C2    C34   A    
C33   I4    S    
C24   N2    A    
N3    Zn2   S    
C12   O7    A    
C11   H6    S    
O5    Zn2   S    
O11   Zn1   S    
C29   I9    S    
C1    O6    A    
C40   I6    S    
C34   C39   A    
C15   I2    S    
O1    Zn1   S    
C22   O12   S    
C12   C21   S    
C8    C18   A    
O6    Zn2   S    
C32   C35   A    
C5    C9    A    
C21   H2    S    
C17   O11   A    
O7    Zn1   S    
C2    C26   A    
C3    C31   A    
C41   I7    S    
C4    C32   A    
C13   H7    S    
C4    C17   S    
C12   O5    A    
C7    C19   A    
O8    Zn1   S    
C13   C15   A    
C9    C34   A    
C10   C23   A    
C37   N2    S    
C18   H8    S    
C27   H5    S    
C7    C9    A    
C1    C20   S    
C16   O10   A    
O10   Zn2   S    
C15   C42   A    
C25   C42   A    
C6    C10   A    
C5    C8    A    
C6    C7    A    
C27   C36   A    
C23   C38   A    
C35   I5    S    
C28   C30   A    
C20   H10   S    
C6    C13   A    
C38   C40   A    
C28   C37   A    
C1    O1    A    
C2    C14   A    
C24   O2    S    
C19   H9    S    
C20   C21   D    
C8    C10   A    
N3    N4    D    
C17   O9    A    
C26   O3    S    
C25   O4    S    
C4    C30   A    
C3    C16   S    
C19   C41   A    
I3    N4    S    
C14   I10   S    
