data_mof_unit_10494.cif
_audit_creation_date              2012-12-10T20:45:33-0500
_audit_creation_method            fapswitch 2.2
_symmetry_space_group_name_H-M    P1
_symmetry_Int_Tables_number       1
_space_group_crystal_system       triclinic
_cell_length_a                    10.648612
_cell_length_b                    10.685152
_cell_length_c                    9.860099
_cell_angle_alpha                 90.427314
_cell_angle_beta                  90.106598
_cell_angle_gamma                 90.347418
_cell_volume                      1121.84829475

loop_
_atom_site_label
_atom_site_type_symbol
_atom_type_description
_atom_site_fract_x
_atom_site_fract_y
_atom_site_fract_z
_atom_type_partial_charge
C1    C     C_R   0.502829 0.260093 0.499696 0.895933
C2    C     C_R   0.248862 0.095079 0.220228 -0.157971
C3    C     C_R   0.932350 0.398899 0.429522 -0.053858
C4    C     C_R   0.872407 0.496629 0.500571 -0.124837
C5    C     C_R   0.940031 0.589346 0.571958 -0.024101
C6    C     C_R   0.068580 0.584113 0.571396 -0.228649
C7    C     C_R   0.128512 0.490218 0.498854 -0.082796
C8    C     C_R   0.062839 0.396094 0.427291 -0.045996
C9    C     C_R   0.875111 0.813177 0.577925 -0.161849
C10   C     C_R   0.831241 0.917949 0.648661 -0.124842
C11   C     C_R   0.792087 0.906567 0.783328 -0.114044
C12   C     C_R   0.260640 0.494169 0.499627 0.911358
C13   C     C_R   0.796703 0.790396 0.847392 -0.143944
C14   C     C_R   0.842366 0.685837 0.777571 -0.094203
C15   C     C_R   0.880924 0.696541 0.642133 0.111250
C16   C     C_R   0.527062 0.064776 0.621734 0.059322
C17   C     C_R   0.520453 0.128967 0.499506 -0.097761
C18   C     C_R   0.537508 0.064164 0.376746 -0.196592
C19   C     C_R   0.537716 0.934807 0.376943 -0.242282
C20   C     C_R   0.520468 0.871586 0.499915 -0.071870
C21   C     C_R   0.526537 0.937658 0.621527 0.135490
C22   C     C_3   0.452826 0.929790 0.749919 -0.533493
C23   C     C_R   0.502935 0.740040 0.500219 0.905753
C24   C     C_3   0.456457 0.072308 0.753201 -0.203265
C25   C     C_R   0.392161 0.521270 0.071239 0.200192
C26   C     C_R   0.603410 0.463220 0.071846 -0.140245
C27   C     C_R   0.603337 0.463091 0.927883 -0.152287
C28   C     C_R   0.391797 0.520285 0.928810 0.229944
C29   C     C_3   0.313382 0.635133 0.923709 -0.518520
C30   C     C_3   0.315008 0.637003 0.077756 -0.501643
C31   C     C_R   0.739697 0.501332 0.500203 0.886525
C32   C     C_R   0.240103 0.212406 0.159263 -0.151679
C33   C     C_R   0.179068 0.310397 0.226250 -0.086977
C34   C     C_R   0.129100 0.292550 0.356273 0.087186
C35   C     C_R   0.136090 0.174040 0.416085 -0.204395
C36   C     C_R   0.196101 0.075452 0.348422 0.080725
H1    H     H_    0.295767 0.019562 0.167124 0.131233
H2    H     H_    0.757625 0.987669 0.837780 0.126641
H3    H     H_    0.766462 0.781725 0.951665 0.128649
H4    H     H_    0.849573 0.597196 0.829350 0.118238
H5    H     H_    0.542109 0.112155 0.280473 0.179562
H6    H     H_    0.542640 0.885499 0.280722 0.166053
H7    H     H_    0.357905 0.888307 0.732834 0.208646
H8    H     H_    0.508086 0.887350 0.833322 0.194033
H9    H     H_    0.514401 0.111750 0.837329 0.144827
H10   H     H_    0.687625 0.437008 0.125750 0.163466
H11   H     H_    0.279797 0.227176 0.059618 0.137193
H12   H     H_    0.687230 0.436186 0.873802 0.149770
H13   H     H_    0.364206 0.715087 0.878403 0.213151
H14   H     H_    0.218723 0.616061 0.880238 0.205159
H15   H     H_    0.367449 0.718124 0.121562 0.213930
H16   H     H_    0.221050 0.620022 0.123097 0.202672
H17   H     H_    0.170297 0.399996 0.176968 0.124721
H18   H     H_    0.093097 0.158426 0.514018 0.152724
H19   H     H_    0.122596 0.655389 0.625223 0.162164
H20   H     H_    0.906636 0.823245 0.474168 0.144417
H21   H     H_    0.827434 0.007921 0.599083 0.141262
N1    N     N_R   0.499160 0.499140 0.142800 -0.106485
N2    N     N_R   0.499160 0.499180 0.857150 -0.105437
O1    O     O_R   0.500020 0.316790 0.614690 -0.623088
O2    O     O_R   0.500000 0.316760 0.385350 -0.613852
O3    O     O_R   0.316770 0.500030 0.614670 -0.618465
O4    O     O_R   0.316750 0.499990 0.385330 -0.619164
O5    O     O_R   0.500000 0.683240 0.614650 -0.612464
O6    O     O_R   0.499980 0.683210 0.385310 -0.627513
O7    O     O_R   0.683250 0.500010 0.614670 -0.628251
O8    O     O_R   0.683230 0.499970 0.385330 -0.624405
Zn1   Zn    Zn3+2 0.500010 0.500020 0.653130 0.951539
Zn2   Zn    Zn3+2 0.499990 0.499980 0.346870 0.951408
C37   C     C_1   0.331129 0.128945 0.743322 0.234033
N3    N     N_1   0.232832 0.174045 0.737060 -0.238053
C38   C     C_1   0.201838 0.953819 0.409743 0.134675
N4    N     N_1   0.206265 0.856003 0.458979 -0.241572
C39   C     C_1   0.860698 0.300844 0.361077 0.157930
N5    N     N_1   0.803983 0.222636 0.306460 -0.224925

loop_
_geom_bond_atom_site_label_1
_geom_bond_atom_site_label_2
_ccdc_geom_bond_type
C27   H12   S    
C31   O7    A    
O7    Zn1   S    
C30   H15   S    
C16   C21   A    
C35   C36   A    
C6    H19   S    
C24   C37   S    
C7    C8    A    
C29   H13   S    
C25   C28   A    
C31   O8    A    
C26   C27   A    
C24   H9    S    
O5    Zn1   S    
C28   C29   S    
C18   C19   A    
C5    C6    A    
O2    Zn2   S    
C2    C32   A    
C34   C35   A    
C3    C39   S    
C22   H8    S    
O4    Zn2   S    
C16   C17   A    
C37   N3    T    
C9    C10   A    
C19   H6    S    
C16   C24   S    
C21   C22   S    
C35   H18   S    
C17   C18   A    
C29   H14   S    
C33   H17   S    
C7    C12   S    
C5    C15   S    
C39   N5    T    
C10   H21   S    
C3    C8    A    
C18   H5    S    
C12   O4    A    
C38   N4    T    
O8    Zn2   S    
C11   H2    S    
C29   C30   S    
N2    Zn1   S    
C12   O3    A    
C22   H7    S    
C20   C23   S    
C33   C34   A    
C9    H20   S    
C8    C34   S    
C26   N1    A    
C23   O5    A    
C32   H11   S    
C22   C24   S    
C1    O1    A    
C25   N1    A    
C3    C4    A    
C28   N2    A    
C2    C36   A    
C25   C30   S    
C30   H16   S    
C4    C5    A    
C1    O2    A    
N1    Zn2   S    
C6    C7    A    
C1    C17   S    
O3    Zn1   S    
C32   C33   A    
C23   O6    A    
C19   C20   A    
C9    C15   A    
C27   N2    A    
C11   C13   A    
C2    H1    S    
O6    Zn2   S    
C13   H3    S    
C4    C31   S    
C10   C11   A    
C26   H10   S    
C14   H4    S    
C20   C21   A    
O1    Zn1   S    
C14   C15   A    
C13   C14   A    
C36   C38   S    
