data_mof_unit_8549.cif
_audit_creation_date              2012-12-11T16:56:08-0500
_audit_creation_method            fapswitch 2.2
_symmetry_space_group_name_H-M    P1
_symmetry_Int_Tables_number       1
_space_group_crystal_system       triclinic
_cell_length_a                    6.957736
_cell_length_b                    14.562011
_cell_length_c                    16.177374
_cell_angle_alpha                 90.463431
_cell_angle_beta                  89.918056
_cell_angle_gamma                 90.093841
_cell_volume                      1639.01188179

loop_
_atom_site_label
_atom_site_type_symbol
_atom_type_description
_atom_site_fract_x
_atom_site_fract_y
_atom_site_fract_z
_atom_type_partial_charge
O1    O     O_R   0.505830 0.583360 0.413880 -0.535366
O2    O     O_R   0.175830 0.595460 0.585520 -0.545219
O3    O     O_R   0.005520 0.416640 0.586120 -0.542570
C1    C     C_R   0.344660 0.617380 0.614474 0.701716
O4    O     O_R   0.176120 0.594390 0.414490 -0.532133
O5    O     O_R   0.005810 0.415570 0.413870 -0.537530
C2    C     C_R   0.345140 0.615969 0.385627 0.716779
O6    O     O_R   0.505540 0.584430 0.586130 -0.538071
O7    O     O_3   0.339200 0.441330 0.500000 -0.374058
V1    V     V_3+5 0.064350 0.510880 0.500000 1.423297
O8    O     O_R   0.676100 0.404540 0.414480 -0.536365
C3    C     C_R   0.845340 0.381584 0.386511 0.739145
O9    O     O_R   0.675810 0.405610 0.585510 -0.542214
C4    C     C_R   0.844900 0.383759 0.613684 0.737310
V2    V     V_3+5 0.564340 0.489120 0.500000 1.423679
O10   O     O_3   0.839360 0.558670 0.500000 -0.370317
C5    C     C_2   0.721154 0.208970 0.786258 -0.128740
C6    C     C_2   0.885894 0.181821 0.822620 -0.305920
H1    H     H_    0.585625 0.180268 0.807286 0.134252
H2    H     H_    0.023123 0.209850 0.803727 0.129170
C7    C     C_2   0.708542 0.277471 0.718339 -0.130079
C8    C     C_2   0.861378 0.315541 0.680498 -0.302362
H3    H     H_    0.564891 0.296490 0.698683 0.134982
H4    H     H_    0.006144 0.297168 0.698315 0.129392
C9    C     C_R   0.727053 0.181118 0.243013 0.093650
C10   C     C_R   0.882453 0.180140 0.187818 -0.106509
C11   C     C_R   0.034840 0.241410 0.203961 -0.166520
H5    H     H_    0.157813 0.243220 0.163191 0.139196
C12   C     C_R   0.023828 0.305579 0.269399 -0.140539
H6    H     H_    0.139276 0.354654 0.277197 0.145180
C13   C     C_R   0.859520 0.310837 0.320348 -0.098986
C14   C     C_R   0.715524 0.245066 0.307451 0.085812
C15   C     C_3   0.505460 0.258414 0.294876 -0.402218
C16   C     C_3   0.517799 0.188342 0.225027 -0.394931
H7    H     H_    0.471797 0.328869 0.273352 0.187046
H8    H     H_    0.419369 0.234275 0.348420 0.166368
H9    H     H_    0.490330 0.217912 0.163020 0.180177
H10   H     H_    0.439605 0.123469 0.238319 0.159444
C17   C     C_R   0.506276 0.680933 0.742081 0.025812
C18   C     C_R   0.352997 0.682115 0.685885 -0.103668
C19   C     C_R   0.202277 0.744105 0.702489 -0.169281
H11   H     H_    0.080231 0.747332 0.661395 0.115287
C20   C     C_R   0.213783 0.807117 0.769019 -0.093370
H12   H     H_    0.099923 0.856853 0.777048 0.122469
C21   C     C_R   0.376261 0.810142 0.821113 -0.176465
C22   C     C_R   0.517634 0.743256 0.807922 0.104677
C23   C     C_3   0.728932 0.754384 0.797204 0.514187
C24   C     C_3   0.716853 0.686071 0.725878 -0.453098
H13   H     H_    0.771153 0.825013 0.779092 0.002076
H14   H     H_    0.790367 0.619847 0.738166 0.207954
H15   H     H_    0.748976 0.716932 0.664779 0.117197
C25   C     C_R   0.504423 0.679832 0.257716 0.118144
C26   C     C_R   0.353397 0.681155 0.315416 -0.130867
C27   C     C_R   0.203425 0.744245 0.301565 -0.145137
H16   H     H_    0.082396 0.747311 0.343447 0.125586
C28   C     C_R   0.213812 0.808159 0.236603 -0.171393
H17   H     H_    0.099924 0.858056 0.230241 0.120219
C29   C     C_R   0.375635 0.811730 0.184096 -0.108970
C30   C     C_R   0.516126 0.744426 0.194786 0.104676
C31   C     C_3   0.727797 0.754547 0.203723 -0.422371
C32   C     C_3   0.716648 0.682045 0.270755 -0.006990
H18   H     H_    0.767917 0.823597 0.227879 0.135603
H19   H     H_    0.806100 0.732532 0.147054 0.223560
H20   H     H_    0.756109 0.707861 0.333288 0.109246
O11   O     O_R   0.229930 0.912420 0.917160 -0.527663
O12   O     O_R   0.559420 0.902500 0.088780 -0.537925
O13   O     O_R   0.729660 0.081330 0.089380 -0.541312
C33   C     C_R   0.390124 0.881189 0.117750 0.709268
O14   O     O_R   0.559650 0.901420 0.917750 -0.533147
O15   O     O_R   0.729880 0.080250 0.917130 -0.542112
C34   C     C_R   0.390556 0.879580 0.888706 0.719680
O16   O     O_R   0.229700 0.913500 0.089410 -0.537782
O17   O     O_3   0.396250 0.055540 0.003280 -0.381085
V3    V     V_3+5 0.671130 0.986010 0.003260 1.459699
O18   O     O_R   0.059600 0.091310 0.917720 -0.548434
C35   C     C_R   0.891024 0.113212 0.889548 0.732277
O19   O     O_R   0.059370 0.092380 0.088750 -0.548868
C36   C     C_R   0.890560 0.114492 0.117396 0.684912
V4    V     V_3+5 0.171120 0.007820 0.003230 1.429205
O20   O     O_3   0.896130 0.938240 0.003240 -0.350937
F1    F     F_    0.829072 0.720112 0.864045 -0.646437
I1    I     I_    0.847730 0.555730 0.232967 -0.400369

loop_
_geom_bond_atom_site_label_1
_geom_bond_atom_site_label_2
_ccdc_geom_bond_type
O12   C33   A    
O11   V4    S    
C11   C12   A    
C16   H9    S    
O17   V3    S    
C1    O6    A    
C23   H13   S    
O19   C36   A    
C10   C11   A    
C10   C36   S    
C31   H19   S    
O16   V4    S    
C32   I1    S    
O5    C3    A    
C15   H7    S    
C21   C34   S    
V2    O10   S    
O12   V3    S    
C15   H8    S    
C28   H17   S    
C31   H18   S    
C19   H11   S    
O14   C34   A    
O1    C2    A    
C22   C23   S    
O8    V2    S    
C24   H15   S    
C23   C24   S    
O15   V3    S    
O1    V2    S    
O7    V1    S    
C9    C16   S    
C9    C14   A    
C24   H14   S    
C30   C31   S    
V3    O20   S    
C7    C8    D    
C19   C20   A    
O13   C36   A    
C5    C6    D    
O19   V4    S    
C27   C28   A    
C1    C18   S    
C17   C18   A    
O4    C2    A    
C29   C30   A    
C21   C22   A    
C5    C7    S    
C31   C32   S    
C32   H20   S    
O2    C1    A    
O18   C35   A    
C12   H6    S    
C25   C30   A    
C13   C14   A    
C33   O16   A    
C15   C16   S    
O17   V4    S    
O14   V3    S    
O13   V3    S    
C20   C21   A    
O3    C4    A    
C17   C22   A    
C29   C33   S    
C18   C19   A    
O6    V2    S    
O9    V2    S    
C3    C13   S    
O15   C35   A    
C8    H4    S    
C2    C26   S    
O2    V1    S    
C25   C26   A    
C27   H16   S    
C6    C35   S    
C16   H10   S    
O5    V1    S    
O8    C3    A    
C26   C27   A    
C25   C32   S    
C14   C15   S    
C4    C8    S    
C7    H3    S    
C9    C10   A    
O4    V1    S    
C12   C13   A    
O3    V1    S    
O11   C34   A    
C20   H12   S    
C5    H1    S    
C28   C29   A    
C6    H2    S    
C23   F1    S    
O7    V2    S    
V4    O20   S    
C11   H5    S    
V1    O10   S    
O9    C4    A    
O18   V4    S    
C17   C24   S    
