data_mof_unit_42073.cif
_audit_creation_date              2013-03-05T15:40:40-0500
_audit_creation_method            fapswitch 2.2
_symmetry_space_group_name_H-M    P1
_symmetry_Int_Tables_number       1
_space_group_crystal_system       triclinic
_cell_length_a                    7.505162
_cell_length_b                    8.700526
_cell_length_c                    15.804688
_cell_angle_alpha                 94.851661
_cell_angle_beta                  74.519262
_cell_angle_gamma                 103.678456
_cell_volume                      966.124203087

loop_
_atom_site_label
_atom_site_type_symbol
_atom_site_description
_atom_site_fract_x
_atom_site_fract_y
_atom_site_fract_z
_atom_type_partial_charge
O1    O     O_R   0.384450 0.714270 0.493720 -0.561670
O2    O     O_R   0.615550 0.285730 0.506280 -0.561621
O3    O     O_R   0.684880 0.742590 0.510050 -0.583741
O4    O     O_R   0.315120 0.257410 0.489950 -0.583739
C1    C     C_R   0.545329 0.800060 0.502644 0.852163
C2    C     C_R   0.454670 0.199940 0.497356 0.852194
O5    O     O_R   0.265540 0.477900 0.617090 -0.551782
O6    O     O_R   0.734460 0.522100 0.382910 -0.551787
O7    O     O_R   0.565970 0.506210 0.633420 -0.553295
O8    O     O_R   0.434030 0.493790 0.366580 -0.553305
C3    C     C_R   0.383809 0.487626 0.666217 0.784683
C4    C     C_R   0.616192 0.512372 0.333782 0.784688
Cu1   Cu    Cu3+1 0.322120 0.483240 0.490330 1.099129
Cu2   Cu    Cu3+1 0.677880 0.516760 0.509670 1.099143
C5    C     C_R   0.313383 0.468683 0.761758 -0.049427
C6    C     C_R   0.686619 0.531307 0.238241 -0.049425
C7    C     C_R   0.075960 0.351821 0.889102 -0.195338
C8    C     C_R   0.924049 0.648152 0.110895 -0.195337
C9    C     C_R   0.129797 0.384527 0.799971 -0.154306
C10   C     C_R   0.870208 0.615455 0.200027 -0.154293
C11   C     C_R   0.441385 0.521582 0.813836 -0.217336
C12   C     C_R   0.558618 0.478405 0.186163 -0.217348
C13   C     C_R   0.394668 0.482369 0.902880 0.074797
C14   C     C_R   0.605339 0.517608 0.097118 0.074797
C15   C     C_R   0.207071 0.398172 0.940407 0.143203
C16   C     C_R   0.792938 0.601800 0.059590 0.143203
C17   C     C_R   0.529052 0.521559 0.954983 0.058026
C18   C     C_R   0.470957 0.478412 0.045014 0.058027
C19   C     C_R   0.279933 0.399570 0.080126 -0.203317
C20   C     C_R   0.720078 0.600395 0.919870 -0.203319
C21   C     C_R   0.151995 0.359273 0.028501 -0.214615
C22   C     C_R   0.848017 0.640692 0.971495 -0.214615
H1    H     H_    0.007902 0.297205 0.058087 0.161386
H2    H     H_    0.992111 0.702755 0.941908 0.161388
H3    H     H_    0.421723 0.409079 0.217900 0.181666
H4    H     H_    0.578278 0.590916 0.782100 0.181659
H5    H     H_    0.969609 0.661331 0.239331 0.202409
H6    H     H_    0.030397 0.338650 0.760667 0.202426
H7    H     H_    0.932951 0.286310 0.917524 0.151800
H8    H     H_    0.067060 0.713658 0.082472 0.151797
H9    H     H_    0.222507 0.366656 0.147699 0.184331
H10   H     H_    0.777506 0.633301 0.852296 0.184336
C23   C     C_2   0.570202 0.968497 0.503872 -0.317869
C24   C     C_2   0.429798 0.031503 0.496128 -0.317905
H11   H     H_    0.705018 0.040933 0.511143 0.200860
H12   H     H_    0.294982 0.959067 0.488857 0.200833
N1    N     N_2   0.945180 0.542040 0.524240 0.032076
N2    N     N_2   0.054820 0.457960 0.475760 0.032094
N3    N     N_R   0.966071 0.570997 0.608889 0.257751
O9    O     O_R   0.023932 0.715842 0.634606 -0.385037
O10   O     O_R   0.882616 0.463216 0.667566 -0.396574
N4    N     N_R   0.033876 0.428933 0.391121 0.257747
O11   O     O_R   0.975918 0.284071 0.365455 -0.385016
O12   O     O_R   0.117365 0.536641 0.332405 -0.396598

loop_
_geom_bond_atom_site_label_1
_geom_bond_atom_site_label_2
_geom_bond_distance
_ccdc_geom_bond_type
C15   C21   1.389321 A    
Cu1   N2    2.038458 S    
O5    C3    1.311173 A    
O7    Cu2   1.912097 S    
C21   H1    1.084597 S    
C16   C22   1.389320 A    
Cu2   N1    2.038459 S    
C12   H3    1.074235 S    
C9    H6    1.079971 S    
C13   C17   1.429979 A    
C23   H11   1.087383 S    
N1    N2    1.285553 D    
C8    C16   1.404042 A    
O6    C4    1.311171 A    
C23   C24   1.333899 D    
C7    C15   1.404041 A    
O3    C1    1.297570 A    
C11   C13   1.407512 A    
C1    C23   1.432002 S    
N1    N3    1.383550 S    
C11   H4    1.074241 S    
C2    C24   1.432001 S    
Cu1   Cu2   2.712913 S    
C17   C20   1.417199 A    
C20   C22   1.386099 A    
C10   H5    1.079974 S    
O7    C3    1.302022 A    
O2    C2    1.296831 A    
O3    Cu2   1.952625 S    
O8    C4    1.302025 A    
O1    C1    1.296831 A    
C17   C18   1.427388 A    
C18   C19   1.417199 A    
C7    C9    1.392203 A    
C14   C16   1.417973 A    
C5    C9    1.397409 A    
C8    C10   1.392207 A    
C13   C15   1.417973 A    
O2    Cu2   1.952585 S    
C12   C14   1.407510 A    
C5    C11   1.400389 A    
O1    Cu1   1.952584 S    
C6    C10   1.397409 A    
C14   C18   1.429979 A    
N2    N4    1.383560 S    
N4    O11   1.300277 A    
O4    C2    1.297569 A    
N3    O9    1.300267 A    
C7    H7    1.084090 S    
O4    Cu1   1.952626 S    
C8    H8    1.084089 S    
C20   H10   1.075157 S    
C6    C12   1.400386 A    
O5    Cu1   1.936072 S    
O6    Cu2   1.936069 S    
C19   H9    1.075156 S    
C19   C21   1.386097 A    
C3    C5    1.470191 S    
C24   H12   1.087383 S    
C4    C6    1.470189 S    
N4    O12   1.300374 A    
N3    O10   1.300361 A    
O8    Cu1   1.912095 S    
C22   H2    1.084597 S    
