data_mof_unit_34349.cif
_audit_creation_date              2012-12-10T16:48:45-0500
_audit_creation_method            fapswitch 2.2
_symmetry_space_group_name_H-M    P1
_symmetry_Int_Tables_number       1
_space_group_crystal_system       triclinic
_cell_length_a                    7.829228
_cell_length_b                    8.579192
_cell_length_c                    10.775833
_cell_angle_alpha                 88.784463
_cell_angle_beta                  99.400348
_cell_angle_gamma                 92.874046
_cell_volume                      713.11578064

loop_
_atom_site_label
_atom_site_type_symbol
_atom_type_description
_atom_site_fract_x
_atom_site_fract_y
_atom_site_fract_z
_atom_type_partial_charge
C1    C     C_R   0.544084 0.794347 0.496919 0.964544
C2    C     C_2   0.432601 0.042422 0.504924 -0.356992
C3    C     C_2   0.967774 0.427839 0.344036 0.701662
C4    C     C_2   0.031872 0.572907 0.655744 0.691803
C5    C     C_R   0.455928 0.205660 0.503108 0.973600
C6    C     C_R   0.573453 0.498453 0.735735 0.937789
C7    C     C_R   0.428206 0.511527 0.264263 0.940821
C8    C     C_2   0.617656 0.513440 0.870386 -0.343875
C9    C     C_2   0.390284 0.534035 0.129710 -0.347228
C10   C     C_2   0.494463 0.556800 0.933005 -0.135332
C11   C     C_2   0.523954 0.553901 0.067319 -0.133103
C12   C     C_2   0.567421 0.957576 0.495127 -0.352594
H1    H     H_    0.657923 0.556239 0.114665 0.184464
H2    H     H_    0.365273 0.583387 0.885771 0.199325
H3    H     H_    0.256704 0.531593 0.081809 0.151575
H4    H     H_    0.746466 0.486877 0.918170 0.152718
H5    H     H_    0.695264 0.007465 0.485709 0.205360
H6    H     H_    0.304759 0.992529 0.514346 0.205370
H7    H     H_    0.994732 0.523196 0.281284 -0.002887
H8    H     H_    0.005813 0.477877 0.719047 0.005328
N1    N     N_2   0.940600 0.458860 0.467170 -0.183478
N2    N     N_2   0.059400 0.541140 0.532830 -0.182336
O1    O     O_R   0.391630 0.738350 0.508060 -0.605960
O2    O     O_2   0.048747 0.706568 0.693782 -0.609960
O3    O     O_R   0.608370 0.261650 0.491940 -0.602533
O4    O     O_R   0.674540 0.711990 0.487010 -0.621446
O5    O     O_R   0.325460 0.288010 0.512990 -0.618396
O6    O     O_R   0.411370 0.508250 0.688780 -0.632967
O7    O     O_R   0.588630 0.491750 0.311220 -0.630012
O8    O     O_R   0.694270 0.481880 0.667740 -0.647195
O9    O     O_R   0.305730 0.518120 0.332260 -0.648113
O10   O     O_2   0.949356 0.294590 0.305138 -0.602916
Zn1   Zn    Zn3+2 0.311100 0.517600 0.514050 0.970658
Zn2   Zn    Zn3+2 0.688900 0.482400 0.485950 0.972306

loop_
_geom_bond_atom_site_label_1
_geom_bond_atom_site_label_2
_ccdc_geom_bond_type
C12   H5    S    
O9    Zn1   S    
C3    H7    S    
C7    O7    A    
C2    H6    S    
C9    C11   D    
O3    Zn2   S    
C2    C12   D    
C9    H3    S    
C8    H4    S    
N1    N2    D    
O5    Zn1   S    
C11   H1    S    
C1    O4    A    
C1    C12   S    
C5    O3    A    
C6    O8    A    
O6    Zn1   S    
C1    O1    A    
C3    O10   D    
C4    O2    D    
C3    N1    S    
C2    C5    S    
C7    O9    A    
C10   C11   S    
O8    Zn2   S    
C4    H8    S    
C4    N2    S    
C8    C10   D    
C10   H2    S    
C7    C9    S    
N2    Zn1   S    
C6    C8    S    
N1    Zn2   S    
C5    O5    A    
O7    Zn2   S    
O4    Zn2   S    
C6    O6    A    
O1    Zn1   S    
