data_mof_unit_53354.cif
_audit_creation_date              2012-12-10T20:00:04-0500
_audit_creation_method            fapswitch 2.2
_symmetry_space_group_name_H-M    P1
_symmetry_Int_Tables_number       1
_space_group_crystal_system       triclinic
_cell_length_a                    14.967658
_cell_length_b                    14.257898
_cell_length_c                    8.863414
_cell_angle_alpha                 90.070926
_cell_angle_beta                  90.626286
_cell_angle_gamma                 90.580202
_cell_volume                      1891.30591893

loop_
_atom_site_label
_atom_site_type_symbol
_atom_type_description
_atom_site_fract_x
_atom_site_fract_y
_atom_site_fract_z
_atom_type_partial_charge
C1    C     C_R   0.328359 0.499421 0.499484 1.029353
C2    C     C_R   0.672694 0.500407 0.495008 0.977017
C3    C     C_R   0.504337 0.203073 0.366710 0.470620
C4    C     C_R   0.558237 0.795087 0.592729 0.482893
C5    C     C_R   0.495355 0.202852 0.632991 0.446020
C6    C     C_R   0.441889 0.795047 0.408655 0.396038
C7    C     C_R   0.512128 0.104149 0.364604 0.301251
C8    C     C_R   0.565980 0.894142 0.585159 0.178334
C9    C     C_R   0.489025 0.103600 0.634363 0.242026
C10   C     C_R   0.437543 0.894907 0.415470 0.250668
C11   C     C_R   0.500380 0.499976 0.218833 0.932400
C12   C     C_R   0.500169 0.500044 0.781184 0.940686
C13   C     C_R   0.501387 0.052088 0.499425 -0.149809
C14   C     C_R   0.502607 0.945655 0.499090 -0.140344
C15   C     C_1   0.500688 0.499978 0.065519 -0.218397
C16   C     C_1   0.500534 0.500083 0.934513 -0.212798
C17   C     C_R   0.102077 0.528491 0.334057 0.331408
C18   C     C_R   0.903321 0.421497 0.394493 0.335451
C19   C     C_R   0.912498 0.580821 0.500713 0.373419
C20   C     C_R   0.089962 0.456500 0.586795 0.401101
C21   C     C_R   0.194411 0.529503 0.350156 0.434679
C22   C     C_R   0.811576 0.420274 0.417829 0.425746
C23   C     C_R   0.819818 0.583022 0.507447 0.410886
C24   C     C_R   0.182644 0.456882 0.599481 0.405964
C25   C     C_R   0.233351 0.497060 0.484396 -0.433537
C26   C     C_R   0.769401 0.501043 0.475046 -0.462933
C27   C     C_R   0.049940 0.492515 0.453383 -0.271015
C28   C     C_R   0.953868 0.499621 0.444657 -0.266707
N1    N     N_R   0.500000 0.252470 0.500000 -0.235097
N2    N     N_R   0.500000 0.747530 0.500000 -0.215764
O1    O     O_R   0.369060 0.579480 0.500010 -0.546526
O2    O     O_R   0.630940 0.420520 0.499990 -0.590764
O3    O     O_R   0.630940 0.579480 0.499990 -0.559251
O4    O     O_R   0.369060 0.420520 0.500010 -0.644955
O5    O     O_R   0.500000 0.579460 0.285340 -0.612506
O6    O     O_R   0.500000 0.420540 0.714660 -0.569079
O7    O     O_R   0.500000 0.579460 0.714660 -0.613094
O8    O     O_R   0.500000 0.420540 0.285340 -0.564363
Zn1   Zn    Zn3+2 0.500000 0.606140 0.500000 1.025143
Zn2   Zn    Zn3+2 0.500000 0.393860 0.500000 1.001816
O9    O     O_3   0.505753 0.249839 0.230961 -0.544717
C29   C     C_3   0.418823 0.246199 0.167342 -0.156657
H1    H     H_    0.417374 0.291009 0.065144 0.187829
H2    H     H_    0.368131 0.274124 0.246388 0.113018
H3    H     H_    0.400309 0.173700 0.131682 0.212314
O10   O     O_3   0.614445 0.744500 0.685898 -0.509624
C30   C     C_3   0.588066 0.756726 0.837106 -0.151619
H4    H     H_    0.621912 0.703222 0.907586 0.166638
H5    H     H_    0.514704 0.746586 0.851435 0.106399
H6    H     H_    0.608976 0.826680 0.880791 0.194638
O11   O     O_3   0.490801 0.249548 0.768743 -0.560430
C31   C     C_3   0.576216 0.248001 0.838014 -0.134948
H7    H     H_    0.628155 0.278867 0.763489 0.109080
H8    H     H_    0.595045 0.175795 0.872308 0.203819
H9    H     H_    0.574700 0.291522 0.941702 0.210549
O12   O     O_3   0.385387 0.744277 0.314289 -0.535617
C32   C     C_3   0.415036 0.754323 0.164272 -0.201724
H10   H     H_    0.379725 0.701545 0.092772 0.205710
H11   H     H_    0.488066 0.741684 0.153812 0.122346
H12   H     H_    0.398896 0.824670 0.118452 0.161770
O13   O     O_3   0.066177 0.565482 0.202607 -0.692658
H13   H     H_    0.000998 0.553995 0.197471 0.351384
O14   O     O_3   0.940884 0.343913 0.326883 -0.727026
H14   H     H_    0.003286 0.357743 0.298173 0.345913
O15   O     O_3   0.959288 0.658817 0.553363 -0.699685
H15   H     H_    0.023850 0.652937 0.534073 0.358110
O16   O     O_3   0.041904 0.424202 0.709254 -0.717511
H16   H     H_    0.977250 0.422268 0.685927 0.342120
O17   O     O_3   0.246875 0.567078 0.237141 -0.536862
C33   C     C_3   0.262853 0.496411 0.129481 -0.186152
H17   H     H_    0.301129 0.437561 0.179977 0.096634
H18   H     H_    0.303633 0.526876 0.037680 0.190171
H19   H     H_    0.199621 0.469570 0.077323 0.216933
O18   O     O_3   0.761842 0.342883 0.370774 -0.538555
C34   C     C_3   0.769896 0.271170 0.479816 -0.137544
H20   H     H_    0.718287 0.216608 0.455692 0.153686
H21   H     H_    0.758455 0.297375 0.596411 0.108283
H22   H     H_    0.836188 0.237171 0.473849 0.196348
O19   O     O_3   0.779345 0.663782 0.558458 -0.507666
C35   C     C_3   0.774579 0.728339 0.437814 -0.089223
H23   H     H_    0.841944 0.748538 0.396412 0.166826
H24   H     H_    0.742641 0.793336 0.478378 0.199246
H25   H     H_    0.732982 0.700089 0.342962 0.104839
O20   O     O_3   0.223972 0.428195 0.732023 -0.593500
C36   C     C_3   0.228102 0.329364 0.733262 -0.199131
H26   H     H_    0.259499 0.301240 0.629500 0.157567
H27   H     H_    0.160759 0.297373 0.747836 0.197584
H28   H     H_    0.270119 0.307617 0.830770 0.179215
O21   O     O_3   0.529529 0.062241 0.227327 -0.690961
H29   H     H_    0.550786 0.997563 0.243598 0.342450
O22   O     O_3   0.635940 0.936782 0.662868 -0.722909
H30   H     H_    0.642897 0.002469 0.628921 0.343452
O23   O     O_3   0.471507 0.060806 0.771019 -0.698315
H31   H     H_    0.451877 0.995186 0.754016 0.353101
O24   O     O_3   0.370902 0.944267 0.342499 -0.722014
H32   H     H_    0.322125 0.900377 0.312689 0.371098

loop_
_geom_bond_atom_site_label_1
_geom_bond_atom_site_label_2
_ccdc_geom_bond_type
O23   H31   S    
O9    C29   S    
C20   O16   S    
C19   C23   A    
O24   H32   S    
C4    C8    A    
C30   H5    S    
C4    O10   S    
C36   H26   S    
O3    Zn1   S    
O4    Zn2   S    
C3    C7    A    
C18   O14   S    
C32   H11   S    
C15   C16   T    
C7    O21   S    
C1    O1    A    
O12   C32   S    
C2    O2    A    
C23   C26   A    
C12   O7    A    
C3    N1    A    
C9    C13   A    
C17   O13   S    
C11   C15   S    
C20   C24   A    
C33   H17   S    
C12   O6    A    
C31   H9    S    
C13   C14   S    
C1    C25   S    
O17   C33   S    
C29   H2    S    
C35   H25   S    
C31   H8    S    
C1    O4    A    
C30   H6    S    
C5    N1    A    
C36   H27   S    
O18   C34   S    
O16   H16   S    
C17   C27   A    
C12   C16   S    
O6    Zn2   S    
C18   C28   A    
C24   C25   A    
C35   H24   S    
C10   C14   A    
O22   H30   S    
C32   H12   S    
C17   C21   A    
O11   C31   S    
C21   O17   S    
C29   H3    S    
C11   O8    A    
O5    Zn1   S    
C34   H20   S    
C5    C9    A    
C30   H4    S    
C33   H19   S    
C2    C26   S    
C8    O22   S    
O20   C36   S    
C19   C28   A    
C34   H21   S    
C2    O3    A    
C6    N2    A    
O19   C35   S    
C29   H1    S    
C22   O18   S    
C9    O23   S    
C31   H7    S    
C36   H28   S    
C21   C25   A    
O10   C30   S    
C3    O9    S    
C8    C14   A    
C18   C22   A    
C6    O12   S    
C35   H23   S    
C6    C10   A    
C20   C27   A    
C11   O5    A    
C24   O20   S    
O7    Zn1   S    
O8    Zn2   S    
C32   H10   S    
C10   O24   S    
N1    Zn2   S    
O1    Zn1   S    
N2    Zn1   S    
C19   O15   S    
O2    Zn2   S    
O13   H13   S    
C34   H22   S    
O14   H14   S    
C7    C13   A    
O15   H15   S    
C22   C26   A    
C27   C28   S    
C5    O11   S    
C33   H18   S    
C23   O19   S    
O21   H29   S    
C4    N2    A    
