data_mof_unit_48051.cif
_audit_creation_date              2012-10-26T20:21:19-0400
_audit_creation_method            fapswitch 2.2
_symmetry_space_group_name_H-M    P1
_symmetry_Int_Tables_number       1
_space_group_crystal_system       triclinic
_cell_length_a                    9.627992
_cell_length_b                    10.728423
_cell_length_c                    15.451829
_cell_angle_alpha                 88.220229
_cell_angle_beta                  74.758606
_cell_angle_gamma                 88.250657
_cell_volume                      1538.77285093

loop_
_atom_site_label
_atom_site_type_symbol
_atom_type_description
_atom_site_fract_x
_atom_site_fract_y
_atom_site_fract_z
_atom_type_partial_charge
C1    C     C_R   0.002041 0.262790 0.498678 0.527616
C2    C     C_R   0.908970 0.067192 0.569257 -0.114854
C3    C     C_R   0.995797 0.871202 0.502246 -0.032169
C4    C     C_R   0.004313 0.128785 0.497902 -0.031998
C5    C     C_R   0.566290 0.399501 0.531441 -0.003458
C6    C     C_R   0.433605 0.600526 0.468689 -0.003595
C7    C     C_R   0.419179 0.398179 0.531433 0.086277
C8    C     C_R   0.580549 0.601945 0.468912 0.086326
C9    C     C_R   0.918451 0.500604 0.672131 0.532175
C10   C     C_R   0.081661 0.499913 0.327849 0.532500
C11   C     C_R   0.872526 0.498984 0.770948 -0.002168
C12   C     C_R   0.997959 0.737205 0.501378 0.527813
C13   C     C_R   0.128472 0.507355 0.229083 -0.001089
C14   C     C_R   0.922157 0.460407 0.914832 -0.139166
C15   C     C_R   0.083506 0.566823 0.086747 -0.140938
C16   C     C_R   0.970804 0.476791 0.822323 -0.138623
C17   C     C_R   0.032623 0.541233 0.178128 -0.138567
C18   C     C_R   0.725754 0.514354 0.814185 -0.122340
C19   C     C_R   0.275060 0.490074 0.186067 -0.120670
C20   C     C_R   0.674435 0.505777 0.908296 0.040429
C21   C     C_R   0.329739 0.513745 0.093270 0.040398
C22   C     C_R   0.775287 0.474317 0.958158 0.053384
C23   C     C_R   0.584302 0.468502 0.095060 -0.127590
C24   C     C_R   0.230541 0.553144 0.043920 0.052915
C25   C     C_R   0.525919 0.523679 0.953815 0.037857
C26   C     C_R   0.479382 0.501166 0.048457 0.038818
C27   C     C_2   0.194182 0.126604 0.349065 0.215266
C28   C     C_2   0.806596 0.873315 0.651353 0.213570
C29   C     C_R   0.344603 0.282799 0.567732 0.063524
C30   C     C_R   0.375686 0.172701 0.518558 -0.098377
C31   C     C_R   0.316323 0.059933 0.556550 -0.106869
C32   C     C_R   0.225954 0.056332 0.643649 -0.093128
C33   C     C_R   0.197500 0.164989 0.693571 -0.107101
C34   C     C_R   0.422959 0.565465 0.908085 -0.128517
C35   C     C_R   0.258944 0.277278 0.656186 -0.060161
C36   C     C_R   0.654778 0.717315 0.432564 0.064893
C37   C     C_R   0.626754 0.826642 0.482707 -0.097235
C38   C     C_R   0.684707 0.939749 0.444420 -0.108174
C39   C     C_R   0.770512 0.944406 0.356090 -0.092399
C40   C     C_R   0.795126 0.836613 0.305168 -0.105592
C41   C     C_R   0.734759 0.724118 0.342901 -0.063720
C42   C     C_R   0.729028 0.456393 0.050662 -0.133560
C43   C     C_R   0.278516 0.579542 0.952432 -0.133297
C44   C     C_R   0.096142 0.062444 0.427258 -0.009282
C45   C     C_R   0.904245 0.937521 0.573014 -0.010259
C46   C     C_R   0.091260 0.932790 0.430952 -0.113825
Cu1   Cu    Cu3+1 0.140660 0.500020 0.500000 0.933991
Cu2   Cu    Cu3+1 0.859340 0.499980 0.500000 0.934783
H1    H     H_    0.805367 0.431584 0.089244 0.109705
H2    H     H_    0.450305 0.591306 0.837897 0.109758
H3    H     H_    0.160370 0.878824 0.377526 0.166156
H4    H     H_    0.839877 0.121160 0.622687 0.165729
H5    H     H_    0.614402 0.319419 0.557758 0.128204
H6    H     H_    0.385482 0.680603 0.442367 0.128702
H7    H     H_    0.191546 0.227350 0.341608 0.126436
H8    H     H_    0.809155 0.772556 0.658704 0.127096
H9    H     H_    0.446198 0.174296 0.451170 0.113499
H10   H     H_    0.339647 0.975524 0.518278 0.123082
H11   H     H_    0.179074 0.969217 0.672659 0.122990
H12   H     H_    0.203584 0.611705 0.914568 0.111060
H13   H     H_    0.130052 0.161789 0.761722 0.120174
H14   H     H_    0.244037 0.359150 0.696427 0.101555
H15   H     H_    0.559608 0.824215 0.551020 0.113937
H16   H     H_    0.663731 0.023612 0.483372 0.123146
H17   H     H_    0.816335 0.031765 0.326833 0.123186
H18   H     H_    0.858287 0.840753 0.235987 0.119891
H19   H     H_    0.744927 0.643154 0.302096 0.097045
H20   H     H_    0.344044 0.458645 0.227178 0.124310
H21   H     H_    0.653067 0.529445 0.772500 0.124702
H22   H     H_    0.919033 0.550534 0.208688 0.113308
H23   H     H_    0.084672 0.469187 0.791380 0.114597
H24   H     H_    0.999681 0.435422 0.952358 0.112830
H25   H     H_    0.007668 0.599150 0.049742 0.111322
H26   H     H_    0.559560 0.453105 0.166524 0.105696
N1    N     N_R   0.352080 0.500030 0.499980 -0.238742
N2    N     N_R   0.647920 0.499970 0.500020 -0.238410
O1    O     O_R   0.118740 0.319660 0.500000 -0.491559
O2    O     O_2   0.721677 0.932566 0.709232 -0.518857
O3    O     O_R   0.881260 0.680340 0.500000 -0.491651
O4    O     O_R   0.881170 0.319630 0.500010 -0.513922
O5    O     O_R   0.118830 0.680370 0.499990 -0.513932
O6    O     O_R   0.055570 0.500030 0.629830 -0.500071
O7    O     O_R   0.944430 0.499970 0.370170 -0.497673
O8    O     O_R   0.818000 0.500000 0.629840 -0.509825
O9    O     O_R   0.182000 0.500000 0.370160 -0.509285
O10   O     O_2   0.279529 0.067321 0.291422 -0.518004

loop_
_geom_bond_atom_site_label_1
_geom_bond_atom_site_label_2
_ccdc_geom_bond_type
C21   C26   A    
C30   H9    S    
C11   C18   A    
C7    C29   S    
C1    O1    A    
C9    O8    A    
Cu2   N2    S    
C28   H8    S    
C6    N1    A    
C10   O9    A    
C22   C42   A    
C29   C30   A    
C23   C42   A    
Cu1   O9    S    
Cu2   O3    S    
C5    H5    S    
C36   C37   A    
C19   C21   A    
C38   C39   A    
C27   H7    S    
Cu1   O6    S    
C20   C25   A    
C12   O3    A    
C10   O7    A    
C8    N2    A    
C25   C34   A    
C8    C36   S    
C23   C26   A    
C3    C12   S    
C27   C44   S    
Cu1   Cu2   S    
C28   O2    D    
C9    O6    A    
C18   H21   S    
C17   H22   S    
C40   H18   S    
C39   H17   S    
C36   C41   A    
C16   H23   S    
C6    H6    S    
C37   H15   S    
C44   C46   A    
C38   H16   S    
C2    C45   A    
C28   C45   S    
C34   H2    S    
C13   C19   A    
C41   H19   S    
C39   C40   A    
C5    C7    A    
C7    N1    A    
C4    C44   A    
C25   C26   A    
C46   H3    S    
C3    C45   A    
Cu2   O8    S    
C27   O10   D    
C2    C4    A    
C37   C38   A    
C11   C16   A    
C31   C32   A    
C19   H20   S    
C9    C11   S    
C2    H4    S    
C43   H12   S    
C15   C24   A    
C15   H25   S    
C20   C22   A    
C14   C16   A    
Cu1   O1    S    
C23   H26   S    
C31   H10   S    
C15   C17   A    
C40   C41   A    
C14   H24   S    
C34   C43   A    
C10   C13   S    
C6    C8    A    
C29   C35   A    
C3    C46   A    
Cu2   O7    S    
C13   C17   A    
C1    C4    S    
C32   C33   A    
Cu2   O4    S    
C5    N2    A    
Cu1   N1    S    
C14   C22   A    
C30   C31   A    
C33   C35   A    
C12   O5    A    
C35   H14   S    
C18   C20   A    
Cu1   O5    S    
C42   H1    S    
C33   H13   S    
C21   C24   A    
C24   C43   A    
C1    O4    A    
C32   H11   S    
