data_mof_unit_31218.cif
_audit_creation_date              2012-12-10T16:48:48-0500
_audit_creation_method            fapswitch 2.2
_symmetry_space_group_name_H-M    P1
_symmetry_Int_Tables_number       1
_space_group_crystal_system       triclinic
_cell_length_a                    17.229664
_cell_length_b                    8.796157
_cell_length_c                    7.429824
_cell_angle_alpha                 103.01634
_cell_angle_beta                  89.340112
_cell_angle_gamma                 93.159989
_cell_volume                      1095.42486614

loop_
_atom_site_label
_atom_site_type_symbol
_atom_type_description
_atom_site_fract_x
_atom_site_fract_y
_atom_site_fract_z
_atom_type_partial_charge
C1    C     C_R   0.498531 0.200570 0.454101 0.851992
C2    C     C_R   0.501467 0.799430 0.545899 0.851942
C3    C     C_2   0.504817 0.035191 0.427984 -0.257582
C4    C     C_2   0.495175 0.964807 0.572012 -0.257577
C5    C     C_R   0.351244 0.496390 0.526898 0.835429
C6    C     C_R   0.648756 0.503616 0.473102 0.835393
C7    C     C_R   0.267155 0.486044 0.547988 -0.094682
C8    C     C_R   0.732847 0.513984 0.452016 -0.094701
C9    C     C_R   0.219833 0.372741 0.425335 -0.030598
C10   C     C_R   0.780162 0.627264 0.574713 -0.030558
C11   C     C_R   0.139241 0.381892 0.437738 -0.174311
C12   C     C_R   0.860755 0.618140 0.562312 -0.174302
C13   C     C_R   0.105830 0.499264 0.570851 0.149060
C14   C     C_R   0.894175 0.500808 0.429162 0.149068
C15   C     C_R   0.152966 0.602720 0.699954 -0.137543
C16   C     C_R   0.847046 0.397379 0.300018 -0.137537
C17   C     C_R   0.233282 0.596665 0.688114 -0.176738
C18   C     C_R   0.766729 0.403411 0.311853 -0.176707
C19   C     C_2   0.021690 0.516345 0.577053 -0.205080
C20   C     C_2   0.978317 0.483741 0.422967 -0.205066
Cu1   Cu    Cu3+1 0.508700 0.517250 0.683000 1.044884
Cu2   Cu    Cu3+1 0.491300 0.482750 0.317000 1.044888
H1    H     H_    0.730878 0.317673 0.215933 0.173990
H2    H     H_    0.269137 0.682422 0.783999 0.173985
H3    H     H_    0.004381 0.438474 0.289174 0.157422
H4    H     H_    0.995628 0.561612 0.710849 0.157424
H5    H     H_    0.127689 0.692073 0.805458 0.144016
H6    H     H_    0.872330 0.308060 0.194482 0.144003
H7    H     H_    0.897595 0.704938 0.654100 0.168119
H8    H     H_    0.102393 0.295084 0.345983 0.168153
H9    H     H_    0.436683 0.386087 0.960190 0.236144
H10   H     H_    0.563316 0.613913 0.039810 0.236143
N1    N     N_2   0.478180 0.456750 0.041980 -0.189875
N2    N     N_2   0.521820 0.543250 0.958020 -0.189876
O1    O     O_R   0.505650 0.286040 0.618880 -0.587611
O2    O     O_R   0.494350 0.713960 0.381120 -0.587612
O3    O     O_R   0.490960 0.256910 0.309800 -0.542339
O4    O     O_R   0.509040 0.743090 0.690200 -0.542346
O5    O     O_R   0.394600 0.516230 0.672450 -0.590699
O6    O     O_R   0.605400 0.483770 0.327550 -0.590697
O7    O     O_R   0.379910 0.487100 0.363380 -0.571187
O8    O     O_R   0.620090 0.512900 0.636620 -0.571195
C21   C     C_2   0.251693 0.240799 0.287924 0.839853
O9    O     O_2   0.312632 0.186069 0.318291 -0.594699
O10   O     O_R   0.210183 0.175049 0.125832 -0.765449
H11   H     H_    0.236952 0.084643 0.044459 0.345135
C22   C     C_2   0.748294 0.759156 0.712175 0.839842
O11   O     O_2   0.687375 0.813948 0.681792 -0.594698
O12   O     O_R   0.789778 0.824792 0.874338 -0.765441
H12   H     H_    0.763013 0.915193 0.955730 0.345148
C23   C     C_2   0.528475 0.953572 0.239798 0.936636
O13   O     O_2   0.478777 0.898373 0.123775 -0.545123
O14   O     O_R   0.607349 0.943442 0.195829 -0.763507
H13   H     H_    0.616233 0.888556 0.062468 0.344349
C24   C     C_2   0.471510 0.046425 0.760192 0.936610
O15   O     O_2   0.521202 0.101598 0.876237 -0.545119
O16   O     O_R   0.392634 0.056586 0.804128 -0.763503
H14   H     H_    0.383743 0.111462 0.937491 0.344331

loop_
_geom_bond_atom_site_label_1
_geom_bond_atom_site_label_2
_ccdc_geom_bond_type
C16   H6    S    
C7    C17   A    
C2    C4    S    
C21   O9    D    
H9    N1    S    
Cu1   O1    S    
C14   C20   S    
C12   H7    S    
C21   O10   S    
C2    O4    A    
C15   H5    S    
C19   C20   D    
Cu1   O5    S    
C1    O3    A    
C24   O15   D    
Cu2   O6    S    
Cu1   Cu2   S    
C13   C15   A    
N1    N2    D    
C3    C4    D    
C23   O13   D    
C22   O12   S    
C16   C18   A    
O10   H11   S    
C9    C11   A    
O16   H14   S    
C10   C12   A    
Cu2   N1    S    
C6    C8    S    
C8    C10   A    
C12   C14   A    
C6    O6    A    
C24   O16   S    
C4    C24   S    
C14   C16   A    
C9    C21   S    
C17   H2    S    
C20   H3    S    
C13   C19   S    
C18   H1    S    
Cu2   O7    S    
C22   O11   D    
C7    C9    A    
C11   C13   A    
Cu2   O2    S    
C1    O1    A    
C15   C17   A    
O12   H12   S    
C6    O8    A    
C2    O2    A    
C10   C22   S    
C5    C7    S    
C5    O5    A    
C5    O7    A    
C3    C23   S    
Cu1   N2    S    
C23   O14   S    
O14   H13   S    
Cu2   O3    S    
C8    C18   A    
Cu1   O4    S    
Cu1   O8    S    
C11   H8    S    
H10   N2    S    
C1    C3    S    
C19   H4    S    
