data_mof_unit_7687.cif
_audit_creation_date              2012-12-10T16:50:07-0500
_audit_creation_method            fapswitch 2.2
_symmetry_space_group_name_H-M    P1
_symmetry_Int_Tables_number       1
_space_group_crystal_system       triclinic
_cell_length_a                    23.595955
_cell_length_b                    8.677006
_cell_length_c                    7.510268
_cell_angle_alpha                 103.615865
_cell_angle_beta                  95.57088
_cell_angle_gamma                 93.827859
_cell_volume                      1480.99930744

loop_
_atom_site_label
_atom_site_type_symbol
_atom_type_description
_atom_site_fract_x
_atom_site_fract_y
_atom_site_fract_z
_atom_type_partial_charge
C1    C     C_R   0.498072 0.199485 0.452610 0.910345
C2    C     C_R   0.501928 0.800515 0.547390 0.910344
C3    C     C_R   0.245418 0.579468 0.657022 -0.160042
C4    C     C_R   0.754582 0.420532 0.342977 -0.160041
C5    C     C_R   0.304638 0.586800 0.656679 -0.133866
C6    C     C_R   0.695362 0.413200 0.343321 -0.133866
C7    C     C_R   0.328110 0.498870 0.500816 -0.161298
C8    C     C_R   0.671889 0.501129 0.499184 -0.161298
C9    C     C_R   0.290672 0.411736 0.344003 -0.138368
C10   C     C_R   0.709328 0.588264 0.655997 -0.138368
C11   C     C_R   0.231294 0.423801 0.339422 0.251686
C12   C     C_R   0.768705 0.576199 0.660578 0.251686
C13   C     C_R   0.208681 0.501193 0.499937 0.270887
C14   C     C_R   0.791319 0.498806 0.500062 0.270887
C15   C     C_2   0.496746 0.030850 0.426713 -0.273583
C16   C     C_2   0.503254 0.969150 0.573287 -0.273583
C17   C     C_R   0.390998 0.499231 0.500282 0.851845
C18   C     C_R   0.609002 0.500769 0.499718 0.851844
C19   C     C_R   0.885042 0.639888 0.525126 0.658091
C20   C     C_R   0.114958 0.360112 0.474874 0.658091
C21   C     C_R   0.875914 0.355857 0.458520 0.596927
C22   C     C_R   0.124086 0.644142 0.541479 0.596927
C23   C     C_R   0.935239 0.351967 0.448118 -0.079361
C24   C     C_R   0.064761 0.648033 0.551882 -0.079361
C25   C     C_R   0.969944 0.498658 0.496684 -0.052718
C26   C     C_R   0.030056 0.501341 0.503316 -0.052717
C27   C     C_R   0.944634 0.643119 0.537557 -0.050895
C28   C     C_R   0.055366 0.356881 0.462443 -0.050895
C29   C     C_R   0.961441 0.208473 0.393860 0.286748
C30   C     C_R   0.038559 0.791527 0.606140 0.286748
C31   C     C_R   0.020840 0.212418 0.405193 -0.139508
C32   C     C_R   0.979160 0.787582 0.594807 -0.139508
Cu1   Cu    Cu3+1 0.506340 0.517380 0.684380 1.127672
Cu2   Cu    Cu3+1 0.493660 0.482620 0.315620 1.127672
H1    H     H_    0.039909 0.101300 0.363323 0.223067
H2    H     H_    0.960091 0.898699 0.636677 0.223067
H3    H     H_    0.227236 0.642202 0.777618 0.182352
H4    H     H_    0.772764 0.357798 0.222381 0.182352
H5    H     H_    0.490240 0.957318 0.286269 0.208427
H6    H     H_    0.509760 0.042682 0.713731 0.208427
N1    N     N_R   0.852147 0.498227 0.494818 -0.467488
N2    N     N_R   0.147853 0.501773 0.505182 -0.467488
N3    N     N_2   0.484110 0.456420 0.038520 0.055920
N4    N     N_2   0.515890 0.543580 0.961480 0.055920
O1    O     O_R   0.504120 0.286130 0.619770 -0.568141
O2    O     O_R   0.495880 0.713870 0.380230 -0.568141
O3    O     O_R   0.493410 0.256770 0.308360 -0.549780
O4    O     O_R   0.506590 0.743230 0.691640 -0.549780
O5    O     O_R   0.423230 0.514630 0.655730 -0.554353
O6    O     O_R   0.576770 0.485370 0.344270 -0.554353
O7    O     O_R   0.412530 0.485280 0.344320 -0.567303
O8    O     O_R   0.587470 0.514720 0.655680 -0.567303
O9    O     O_2   0.860021 0.777447 0.545133 -0.435753
O10   O     O_2   0.139978 0.222552 0.454867 -0.435753
O11   O     O_2   0.842205 0.219887 0.438511 -0.433924
O12   O     O_2   0.157795 0.780113 0.561489 -0.433924
Br1   Br    Br    0.920433 0.003556 0.283585 -0.330298
Br2   Br    Br    0.079567 0.996443 0.716415 -0.330298
C33   C     C_2   0.340108 0.696054 0.817477 0.956104
O13   O     O_2   0.376747 0.792187 0.791950 -0.536337
O14   O     O_R   0.331078 0.695419 0.998652 -0.704387
H7    H     H_    0.301192 0.608641 0.006368 0.326425
C34   C     C_2   0.659892 0.303946 0.182523 0.956105
O15   O     O_2   0.623253 0.207813 0.208050 -0.536337
O16   O     O_R   0.668922 0.304580 0.001348 -0.704387
H8    H     H_    0.698808 0.391358 0.993631 0.326425
C35   C     C_2   0.312561 0.296556 0.192740 0.974166
O17   O     O_2   0.300721 0.301226 0.032110 -0.524658
O18   O     O_R   0.346720 0.181537 0.235457 -0.729410
H9    H     H_    0.358409 0.107682 0.121754 0.373468
C36   C     C_2   0.687439 0.703444 0.807260 0.974165
O19   O     O_2   0.699279 0.698773 0.967890 -0.524658
O20   O     O_R   0.653280 0.818464 0.764543 -0.729410
H10   H     H_    0.641591 0.892318 0.878246 0.373468
Br3   Br    Br    0.180470 0.337397 0.114331 -0.350813
Br4   Br    Br    0.819530 0.662603 0.885669 -0.350813
Br5   Br    Br    0.428187 0.299103 0.897872 -0.311847
Br6   Br    Br    0.571813 0.700897 0.102128 -0.311847

loop_
_geom_bond_atom_site_label_1
_geom_bond_atom_site_label_2
_ccdc_geom_bond_type
C34   O16   S    
Cu1   O1    S    
O20   H10   S    
C17   O7    A    
C18   O8    A    
C2    O2    A    
Cu1   O8    S    
Cu2   O7    S    
C6    C8    A    
C23   C29   A    
C22   C24   A    
C24   C26   A    
Cu1   O5    S    
C15   C16   D    
C7    C17   S    
C1    C15   S    
C2    C16   S    
C3    C13   A    
C10   C36   S    
C19   O9    S    
C33   O13   D    
O18   H9    S    
C13   N2    S    
C33   O14   S    
Cu2   O6    S    
C5    C33   S    
C35   O17   D    
C4    C6    A    
C17   O5    A    
C36   O20   S    
C1    O3    A    
C22   O12   S    
C20   C28   A    
C2    O4    A    
C25   C26   A    
C8    C18   S    
C35   O18   S    
C6    C34   S    
N3    N4    D    
C9    C35   S    
Cu1   Cu2   S    
C9    C11   A    
C15   H5    S    
C10   C12   A    
C16   H6    S    
C14   N1    S    
Cu2   O2    S    
C20   O10   S    
C12   C14   A    
C21   C23   A    
C12   Br4   S    
C21   N1    A    
N3    Br5   S    
C32   H2    S    
C19   C27   A    
C18   O6    A    
C5    C7    A    
C29   Br1   S    
C7    C9    A    
C21   O11   S    
C27   C32   A    
Cu1   N4    S    
C28   C31   A    
Cu2   N3    S    
C4    H4    S    
C3    C5    A    
C20   N2    A    
C25   C27   A    
C26   C28   A    
N4    Br6   S    
C36   O19   D    
C29   C31   A    
C11   Br3   S    
C30   C32   A    
C11   C13   A    
C1    O1    A    
C22   N2    A    
C30   Br2   S    
C31   H1    S    
C23   C25   A    
C4    C14   A    
O14   H7    S    
C24   C30   A    
C34   O15   D    
C3    H3    S    
C8    C10   A    
O16   H8    S    
Cu1   O4    S    
Cu2   O3    S    
C19   N1    A    
