data_mof_unit_64304.cif
_audit_creation_date              2012-10-26T18:58:30-0400
_audit_creation_method            fapswitch 2.2
_symmetry_space_group_name_H-M    P1
_symmetry_Int_Tables_number       1
_space_group_crystal_system       triclinic
_cell_length_a                    19.458626
_cell_length_b                    18.252732
_cell_length_c                    15.980019
_cell_angle_alpha                 90.001988
_cell_angle_beta                  90.019691
_cell_angle_gamma                 90.001233
_cell_volume                      5675.67231413

loop_
_atom_site_label
_atom_site_type_symbol
_atom_type_description
_atom_site_fract_x
_atom_site_fract_y
_atom_site_fract_z
_atom_type_partial_charge
C1    C     C_R   0.367828 0.499999 0.499989 0.552038
C2    C     C_R   0.927893 0.500002 0.500004 0.033925
C3    C     C_R   0.454778 0.721849 0.450365 0.121419
C4    C     C_R   0.454818 0.278149 0.549654 0.121372
C5    C     C_R   0.545223 0.721852 0.549636 0.121287
C6    C     C_R   0.545178 0.278148 0.450340 0.121353
C7    C     C_R   0.453421 0.798951 0.450919 -0.118236
C8    C     C_R   0.453470 0.201046 0.549114 -0.118214
C9    C     C_R   0.546582 0.798954 0.549083 -0.118283
C10   C     C_R   0.546524 0.201046 0.450877 -0.118276
C11   C     C_R   0.500002 0.838794 0.500001 0.060598
C12   C     C_R   0.632165 0.500001 0.500012 0.552143
C13   C     C_R   0.499997 0.161209 0.499996 0.060654
C14   C     C_R   0.499234 0.961072 0.576126 0.078682
C15   C     C_R   0.499043 0.038942 0.423877 0.078676
C16   C     C_R   0.500771 0.961067 0.423875 0.078655
C17   C     C_R   0.500955 0.038948 0.576120 0.078658
C18   C     C_R   0.499998 0.078476 0.499997 0.074342
C19   C     C_R   0.500003 0.921533 0.500001 0.074362
C20   C     C_R   0.499976 0.499999 0.341209 0.566048
C21   C     C_R   0.500027 0.500001 0.658791 0.566038
C22   C     C_R   0.497696 0.566451 0.956330 -0.097630
C23   C     C_R   0.707746 0.500003 0.500013 0.006396
C24   C     C_R   0.502333 0.433550 0.043671 -0.097617
C25   C     C_R   0.497680 0.566449 0.043676 -0.097587
C26   C     C_R   0.502343 0.433551 0.956324 -0.097598
C27   C     C_R   0.500026 0.500002 0.912680 0.038844
C28   C     C_R   0.499999 0.499999 0.087320 0.038866
C29   C     C_1   0.500032 0.500003 0.823117 -0.036102
C30   C     C_1   0.499986 0.499997 0.176883 -0.036090
C31   C     C_1   0.499978 0.499997 0.252010 0.014188
C32   C     C_1   0.500033 0.500003 0.747990 0.014176
C33   C     C_R   0.744395 0.451436 0.552575 -0.024622
C34   C     C_R   0.292235 0.499998 0.499991 0.006290
C35   C     C_R   0.255608 0.548839 0.552230 -0.024597
C36   C     C_R   0.255574 0.451157 0.447755 -0.024642
C37   C     C_R   0.744365 0.548570 0.447449 -0.024664
C38   C     C_R   0.816077 0.451876 0.552176 -0.120002
C39   C     C_R   0.183926 0.548400 0.551829 -0.120025
C40   C     C_R   0.183892 0.451597 0.448160 -0.120025
C41   C     C_R   0.816047 0.548129 0.447843 -0.120005
C42   C     C_R   0.852223 0.500002 0.500008 0.004063
C43   C     C_R   0.147750 0.499999 0.499995 0.004051
C44   C     C_1   0.709821 0.402371 0.609757 0.215985
C45   C     C_R   0.964217 0.566427 0.499765 -0.106737
C46   C     C_1   0.290195 0.598204 0.609095 0.216095
C47   C     C_1   0.290126 0.401788 0.390893 0.216097
C48   C     C_1   0.709759 0.597636 0.390270 0.215982
C49   C     C_1   0.407650 0.684517 0.395625 0.261762
C50   C     C_1   0.407717 0.315481 0.604386 0.261811
C51   C     C_1   0.592349 0.684524 0.604376 0.261769
C52   C     C_1   0.592272 0.315479 0.395599 0.261713
C53   C     C_R   0.035760 0.433575 0.500274 -0.106740
C54   C     C_R   0.035764 0.566426 0.499721 -0.106747
C55   C     C_R   0.964213 0.433576 0.500238 -0.106742
C56   C     C_R   0.072082 0.500000 0.499997 0.033908
Cu1   Cu    Cu3+1 0.500000 0.573360 0.500000 1.026568
Cu2   Cu    Cu3+1 0.500000 0.426640 0.500000 1.026569
H1    H     H_    0.495867 0.618060 0.077111 0.124370
H2    H     H_    0.062715 0.381671 0.501315 0.112583
H3    H     H_    0.062722 0.618329 0.498678 0.112573
H4    H     H_    0.937256 0.381666 0.499598 0.112551
H5    H     H_    0.415961 0.827766 0.412982 0.123114
H6    H     H_    0.416057 0.172224 0.587084 0.123064
H7    H     H_    0.584043 0.827772 0.587019 0.123144
H8    H     H_    0.583936 0.172223 0.412904 0.123024
H9    H     H_    0.450512 0.937699 0.685178 0.240230
H10   H     H_    0.537760 0.934694 0.690372 0.230210
H11   H     H_    0.450042 0.062326 0.314972 0.240249
H12   H     H_    0.504151 0.381940 0.922889 0.124411
H13   H     H_    0.537278 0.065333 0.309519 0.230196
H14   H     H_    0.549505 0.937691 0.314833 0.240239
H15   H     H_    0.462257 0.934674 0.309626 0.230199
H16   H     H_    0.549947 0.062347 0.685027 0.240208
H17   H     H_    0.462711 0.065342 0.690470 0.230234
H18   H     H_    0.495897 0.618063 0.922899 0.124390
H19   H     H_    0.504135 0.381937 0.077102 0.124348
H20   H     H_    0.843844 0.415413 0.593756 0.118268
H21   H     H_    0.156180 0.585083 0.593156 0.118264
H22   H     H_    0.156120 0.414914 0.406834 0.118278
H23   H     H_    0.843791 0.584591 0.406260 0.118281
H24   H     H_    0.937263 0.618337 0.500407 0.112559
N1    N     N_R   0.500000 0.683620 0.500000 -0.247998
N2    N     N_1   0.630320 0.344960 0.351256 -0.300912
N3    N     N_3   0.495057 0.921600 0.653638 -0.640938
N4    N     N_3   0.494669 0.078421 0.346382 -0.640857
N5    N     N_3   0.504958 0.921589 0.346365 -0.640961
N6    N     N_3   0.505321 0.078434 0.653613 -0.640920
N7    N     N_R   0.500000 0.316380 0.500000 -0.247997
N8    N     N_1   0.682097 0.363111 0.655515 -0.280333
N9    N     N_1   0.317927 0.637706 0.654600 -0.280325
N10   N     N_1   0.317829 0.362282 0.345391 -0.279964
N11   N     N_1   0.682009 0.636897 0.344514 -0.279994
N12   N     N_1   0.369576 0.655034 0.351282 -0.300957
N13   N     N_1   0.369662 0.344964 0.648720 -0.300609
N14   N     N_1   0.630422 0.655043 0.648719 -0.300546
O1    O     O_R   0.400190 0.561980 0.499990 -0.493391
O2    O     O_R   0.599810 0.438020 0.500010 -0.493433
O3    O     O_R   0.599810 0.561980 0.500010 -0.493459
O4    O     O_R   0.400190 0.438020 0.499990 -0.493409
O5    O     O_R   0.499980 0.561940 0.380310 -0.490514
O6    O     O_R   0.500020 0.438060 0.619690 -0.490543
O7    O     O_R   0.500020 0.561940 0.619690 -0.490571
O8    O     O_R   0.499980 0.438060 0.380310 -0.490555

loop_
_geom_bond_atom_site_label_1
_geom_bond_atom_site_label_2
_ccdc_geom_bond_type
C15   C18   A    
C8    C13   A    
C27   C29   S    
C17   N6    S    
C41   C42   A    
C45   H24   S    
Cu2   O2    S    
C22   H18   S    
C4    C8    A    
C3    C49   S    
C25   C28   A    
C7    C11   A    
C12   C23   S    
C11   C19   S    
C26   C27   A    
C13   C18   S    
C24   C26   A    
C38   C42   A    
C29   C32   T    
C3    C7    A    
C2    C55   A    
C30   C31   T    
C5    N1    A    
C50   N13   T    
C15   C16   A    
Cu1   O3    S    
C55   H4    S    
C36   C47   S    
C34   C35   A    
C47   N10   T    
C52   N2    T    
H15   N5    S    
C12   O3    A    
C40   C43   A    
C23   C33   A    
C22   C25   A    
C16   N5    S    
C40   H22   S    
Cu2   O6    S    
C49   N12   T    
C12   O2    A    
C51   N14   T    
C53   C55   A    
C41   H23   S    
H10   N3    S    
C14   C17   A    
C1    O4    A    
C53   H2    S    
C1    C34   S    
C10   H8    S    
C2    C45   A    
Cu1   O7    S    
C21   C32   S    
C54   C56   A    
H9    N3    S    
C48   N11   T    
C36   C40   A    
Cu2   O4    S    
C1    O1    A    
C39   C43   A    
C20   O5    A    
C38   H20   S    
C23   C37   A    
C4    C50   S    
C39   H21   S    
C35   C39   A    
C5    C9    A    
H13   N4    S    
H17   N6    S    
Cu1   O1    S    
Cu1   N1    S    
C17   C18   A    
C37   C48   S    
C9    C11   A    
C7    H5    S    
C8    H6    S    
C15   N4    S    
C20   O8    A    
C21   O6    A    
C45   C54   A    
C22   C27   A    
C3    N1    A    
C26   H12   S    
Cu2   O8    S    
H14   N5    S    
C44   N8    T    
C4    N7    A    
C53   C56   A    
C33   C44   S    
C14   C19   A    
C24   C28   A    
C14   N3    S    
C10   C13   A    
C6    C10   A    
C46   N9    T    
C54   H3    S    
C6    N7    A    
Cu1   O5    S    
C33   C38   A    
H16   N6    S    
C28   C30   S    
Cu1   Cu2   S    
C2    C42   S    
C16   C19   A    
C34   C36   A    
C37   C41   A    
Cu2   N7    S    
C9    H7    S    
C21   O7    A    
C43   C56   S    
C24   H19   S    
C5    C51   S    
C25   H1    S    
C6    C52   S    
C35   C46   S    
H11   N4    S    
C20   C31   S    
