data_mof_unit_12418.cif
_audit_creation_date              2012-12-10T17:17:56-0500
_audit_creation_method            fapswitch 2.2
_symmetry_space_group_name_H-M    P1
_symmetry_Int_Tables_number       1
_space_group_crystal_system       triclinic
_cell_length_a                    15.206648
_cell_length_b                    15.635319
_cell_length_c                    9.63277
_cell_angle_alpha                 89.999173
_cell_angle_beta                  89.219676
_cell_angle_gamma                 90.085813
_cell_volume                      2290.08005593

loop_
_atom_site_label
_atom_site_type_symbol
_atom_type_description
_atom_site_fract_x
_atom_site_fract_y
_atom_site_fract_z
_atom_type_partial_charge
C1    C     C_R   0.388174 0.874950 0.501133 0.809000
C2    C     C_R   0.387834 0.124812 0.500985 0.809554
C3    C     C_R   0.888174 0.374949 0.501133 0.809000
C4    C     C_R   0.887834 0.624812 0.500985 0.809554
C5    C     C_R   0.306326 0.243724 0.381275 0.174471
C6    C     C_R   0.309984 0.753256 0.382746 0.163968
C7    C     C_R   0.806326 0.743724 0.381275 0.174471
C8    C     C_R   0.809984 0.253256 0.382746 0.163967
C9    C     C_R   0.732753 0.796826 0.381394 -0.230231
C10   C     C_R   0.737010 0.198984 0.382422 -0.226659
C11   C     C_R   0.232753 0.296826 0.381394 -0.230232
C12   C     C_R   0.237010 0.698984 0.382422 -0.226659
C13   C     C_R   0.681008 0.808389 0.501171 -0.166651
C14   C     C_R   0.683259 0.189540 0.500840 -0.155977
C15   C     C_R   0.181008 0.308389 0.501171 -0.166651
C16   C     C_R   0.183259 0.689540 0.500840 -0.155977
C17   C     C_R   0.658064 0.985006 0.147640 -0.120950
C18   C     C_R   0.158064 0.485006 0.147640 -0.120950
C19   C     C_R   0.733696 0.955287 0.087028 -0.331412
C20   C     C_R   0.233696 0.455287 0.087028 -0.331412
C21   C     C_R   0.737468 0.944620 0.947110 -0.263608
C22   C     C_R   0.237468 0.444620 0.947110 -0.263608
C23   C     C_R   0.668332 0.974131 0.862594 0.539793
C24   C     C_R   0.168332 0.474131 0.862594 0.539794
C25   C     C_R   0.580829 0.988536 0.925349 0.082073
C26   C     C_R   0.080829 0.488536 0.925349 0.082072
C27   C     C_R   0.578671 0.991061 0.075035 0.070361
C28   C     C_R   0.078671 0.491061 0.075035 0.070361
C29   C     C_R   0.424094 0.006719 0.075937 0.530082
C30   C     C_R   0.924094 0.506719 0.075937 0.530082
C31   C     C_R   0.615728 0.121938 0.499852 0.798242
C32   C     C_R   0.614578 0.877105 0.499996 0.777471
C33   C     C_R   0.115728 0.621938 0.499852 0.798242
C34   C     C_R   0.114578 0.377105 0.499996 0.777471
C35   C     C_R   0.425215 0.009125 0.927228 -0.211267
C36   C     C_R   0.925215 0.509125 0.927228 -0.211268
C37   C     C_R   0.325693 0.217965 0.764447 0.226299
C38   C     C_R   0.327055 0.778703 0.765628 0.232101
C39   C     C_R   0.825694 0.717965 0.764447 0.226299
C40   C     C_R   0.827055 0.278703 0.765629 0.232101
C41   C     C_R   0.272274 0.218604 0.883337 -0.181122
C42   C     C_R   0.274339 0.771975 0.885067 -0.172432
C43   C     C_R   0.772274 0.718603 0.883337 -0.181121
C44   C     C_R   0.774339 0.271976 0.885067 -0.172431
C45   C     C_R   0.684030 0.738380 0.873365 -0.203426
C46   C     C_R   0.685841 0.253622 0.874399 -0.206973
C47   C     C_R   0.184029 0.238380 0.873365 -0.203426
C48   C     C_R   0.185842 0.753621 0.874399 -0.206975
C49   C     C_R   0.651856 0.766039 0.746925 -0.172972
C50   C     C_R   0.652591 0.231723 0.745925 -0.125788
C51   C     C_R   0.151856 0.266039 0.746925 -0.172972
C52   C     C_R   0.152591 0.731722 0.745925 -0.125788
C53   C     C_R   0.704698 0.765932 0.625380 0.048941
C54   C     C_R   0.705999 0.232505 0.625000 0.058488
C55   C     C_R   0.204698 0.265932 0.625380 0.048940
C56   C     C_R   0.205999 0.732505 0.625000 0.058488
C57   C     C_R   0.287261 0.225928 0.631336 0.048487
C58   C     C_R   0.288389 0.772855 0.632078 0.036988
C59   C     C_R   0.787261 0.725928 0.631336 0.048487
C60   C     C_R   0.788389 0.272855 0.632078 0.036988
C61   C     C_R   0.329398 0.201013 0.504976 -0.146939
C62   C     C_R   0.330828 0.797874 0.505772 -0.152613
C63   C     C_R   0.829398 0.701013 0.504976 -0.146939
C64   C     C_R   0.830828 0.297874 0.505772 -0.152613
Cu1   Cu    Cu3+1 0.499990 0.000000 0.640660 0.955146
Cu2   Cu    Cu3+1 0.999990 0.500000 0.640660 0.955146
Cu3   Cu    Cu3+1 0.500010 0.000000 0.359340 0.961598
Cu4   Cu    Cu3+1 0.000010 0.500000 0.359340 0.961597
H1    H     H_    0.801109 0.925333 0.907716 0.161257
H2    H     H_    0.301109 0.425333 0.907716 0.161257
H3    H     H_    0.364823 0.018865 0.871616 0.166859
H4    H     H_    0.864823 0.518865 0.871616 0.166859
H5    H     H_    0.300091 0.208642 0.984204 0.154086
H6    H     H_    0.302876 0.775994 0.986576 0.135548
H7    H     H_    0.800091 0.708641 0.984204 0.154086
H8    H     H_    0.802875 0.275995 0.986576 0.135547
H9    H     H_    0.642606 0.739995 0.965661 0.155420
H10   H     H_    0.644698 0.249303 0.966790 0.150387
H11   H     H_    0.142606 0.239995 0.965661 0.155420
H12   H     H_    0.144698 0.749302 0.966790 0.150387
H13   H     H_    0.586383 0.788656 0.747199 0.169981
H14   H     H_    0.585891 0.212207 0.743932 0.163650
H15   H     H_    0.086383 0.288656 0.747199 0.169981
H16   H     H_    0.085891 0.712207 0.743933 0.163650
H17   H     H_    0.716530 0.830342 0.287149 0.179453
H18   H     H_    0.723136 0.162584 0.289476 0.164746
H19   H     H_    0.216530 0.330342 0.287149 0.179453
H20   H     H_    0.223136 0.662584 0.289476 0.164746
H21   H     H_    0.666013 0.000632 0.253167 0.213469
H22   H     H_    0.166013 0.500632 0.253167 0.213469
H23   H     H_    0.791843 0.944986 0.148622 0.165824
H24   H     H_    0.291843 0.444986 0.148622 0.165824
N1    N     N_R   0.501200 0.000000 0.147910 -0.221250
N2    N     N_R   0.001200 0.500000 0.147910 -0.221250
N3    N     N_R   0.501270 0.000000 0.852040 -0.220083
N4    N     N_R   0.001270 0.500000 0.852040 -0.220083
O1    O     O_R   0.409820 0.909830 0.618810 -0.575817
O2    O     O_R   0.409820 0.090170 0.618810 -0.582621
O3    O     O_R   0.909820 0.409830 0.618810 -0.575816
O4    O     O_R   0.909820 0.590170 0.618810 -0.582621
O5    O     O_R   0.409840 0.909830 0.381240 -0.549729
O6    O     O_R   0.409840 0.090170 0.381240 -0.520906
O7    O     O_R   0.909840 0.409830 0.381240 -0.549729
O8    O     O_R   0.909840 0.590170 0.381240 -0.520906
O9    O     O_R   0.590170 0.090170 0.618760 -0.519905
O10   O     O_R   0.590170 0.909830 0.618760 -0.556358
O11   O     O_R   0.090170 0.590170 0.618760 -0.519905
O12   O     O_R   0.090170 0.409830 0.618760 -0.556358
O13   O     O_R   0.590190 0.090180 0.381190 -0.623717
O14   O     O_R   0.590190 0.909820 0.381190 -0.608662
O15   O     O_R   0.090190 0.590180 0.381190 -0.623717
O16   O     O_R   0.090190 0.409820 0.381190 -0.608662
C65   C     C_3   0.363819 0.241236 0.252610 -0.842421
H25   H     H_    0.348309 0.294200 0.180215 0.206136
H26   H     H_    0.434024 0.248291 0.280931 0.226145
H27   H     H_    0.354053 0.180318 0.196904 0.279027
C66   C     C_3   0.370175 0.754122 0.256929 -0.851088
H28   H     H_    0.356077 0.699922 0.186028 0.213446
H29   H     H_    0.362418 0.814271 0.198005 0.235981
H30   H     H_    0.439632 0.747504 0.289494 0.233883
C67   C     C_3   0.863819 0.741236 0.252610 -0.842422
H31   H     H_    0.848309 0.794200 0.180215 0.206136
H32   H     H_    0.934024 0.748291 0.280930 0.226145
H33   H     H_    0.854053 0.680318 0.196904 0.279028
C68   C     C_3   0.870175 0.254122 0.256929 -0.851089
H34   H     H_    0.856077 0.199922 0.186028 0.213446
H35   H     H_    0.862419 0.314271 0.198005 0.235982
H36   H     H_    0.939632 0.247503 0.289494 0.233882
O17   O     O_3   0.690104 0.006803 0.732596 -0.560696
C69   C     C_3   0.770982 0.981132 0.669608 0.075990
H37   H     H_    0.762519 0.983985 0.555347 0.141133
H38   H     H_    0.787558 0.913335 0.690356 0.140170
C70   C     C_3   0.845704 0.043258 0.704934 -0.374083
H39   H     H_    0.837877 0.102617 0.643553 0.234540
H40   H     H_    0.843453 0.061118 0.816457 0.230696
C71   C     C_3   0.935457 0.004727 0.670361 -0.924436
H41   H     H_    0.946585 0.946569 0.733988 0.257012
H42   H     H_    0.987813 0.052056 0.693393 0.263528
H43   H     H_    0.939659 0.987626 0.558529 0.260155
O18   O     O_3   0.190104 0.506803 0.732596 -0.560696
C72   C     C_3   0.270981 0.481131 0.669608 0.075991
H44   H     H_    0.262519 0.483985 0.555347 0.141134
H45   H     H_    0.287558 0.413335 0.690356 0.140170
C73   C     C_3   0.345704 0.543258 0.704933 -0.374091
H46   H     H_    0.337876 0.602617 0.643554 0.234543
H47   H     H_    0.343454 0.561118 0.816456 0.230699
C74   C     C_3   0.435457 0.504728 0.670360 -0.924444
H48   H     H_    0.446585 0.446571 0.733987 0.257014
H49   H     H_    0.487812 0.552057 0.693391 0.263530
H50   H     H_    0.439658 0.487627 0.558529 0.260157
C75   C     C_3   0.421710 0.232577 0.785479 -0.882013
H51   H     H_    0.431421 0.288196 0.855489 0.213646
H52   H     H_    0.451572 0.175617 0.834232 0.255391
H53   H     H_    0.454580 0.248626 0.685338 0.213001
C76   C     C_3   0.423617 0.768400 0.785405 -0.879801
H54   H     H_    0.436456 0.712851 0.854181 0.217713
H55   H     H_    0.456464 0.754330 0.684538 0.218837
H56   H     H_    0.450862 0.826591 0.834848 0.249071
C77   C     C_3   0.921710 0.732577 0.785479 -0.882014
H57   H     H_    0.931421 0.788196 0.855489 0.213646
H58   H     H_    0.951572 0.675617 0.834232 0.255392
H59   H     H_    0.954579 0.748626 0.685339 0.213001
C78   C     C_3   0.923616 0.268401 0.785406 -0.879801
H60   H     H_    0.936456 0.212852 0.854183 0.217713
H61   H     H_    0.956463 0.254329 0.684539 0.218837
H62   H     H_    0.950861 0.326592 0.834847 0.249072
O19   O     O_3   0.346900 0.020406 0.151318 -0.590598
C79   C     C_3   0.276283 0.968341 0.107275 0.022909
H63   H     H_    0.252262 0.931415 0.198798 0.183610
H64   H     H_    0.294447 0.920877 0.026241 0.115812
C80   C     C_3   0.201231 0.024551 0.055856 -0.353654
H65   H     H_    0.183608 0.072484 0.136793 0.232387
H66   H     H_    0.223013 0.058877 0.960863 0.220615
C81   C     C_3   0.119988 0.971655 0.021334 -0.915541
H67   H     H_    0.135186 0.926585 0.935311 0.267834
H68   H     H_    0.066338 0.014802 0.987831 0.257005
H69   H     H_    0.096930 0.935124 0.113835 0.252988
O20   O     O_3   0.846900 0.520406 0.151318 -0.590599
C82   C     C_3   0.776283 0.468342 0.107276 0.022908
H70   H     H_    0.752263 0.431415 0.198799 0.183612
H71   H     H_    0.794447 0.420878 0.026241 0.115812
C83   C     C_3   0.701231 0.524551 0.055859 -0.353653
H72   H     H_    0.683609 0.572485 0.136795 0.232390
H73   H     H_    0.723010 0.558875 0.960865 0.220617
C84   C     C_3   0.619987 0.471655 0.021342 -0.915562
H74   H     H_    0.635182 0.426586 0.935319 0.267837
H75   H     H_    0.566336 0.514800 0.987844 0.257008
H76   H     H_    0.596932 0.435124 0.113842 0.252993

loop_
_geom_bond_atom_site_label_1
_geom_bond_atom_site_label_2
_ccdc_geom_bond_type
C58   C62   A    
Cu2   Cu4   S    
C80   H65   S    
C40   C60   A    
C51   H15   S    
C76   H55   S    
C34   O16   A    
C13   C32   S    
C74   H48   S    
C33   O11   A    
Cu4   O7    S    
C47   H11   S    
Cu2   O11   S    
C1    C62   S    
O20   C82   S    
C53   C59   A    
C54   C60   A    
C3    C64   S    
C24   O18   S    
C20   H24   S    
C4    C63   S    
C50   H14   S    
C50   C54   A    
C32   O14   A    
Cu2   N4    S    
C78   H61   S    
C24   C26   A    
Cu1   O2    S    
C38   C42   A    
C72   H45   S    
C6    C12   A    
C84   H75   S    
C2    O6    A    
C49   H13   S    
C23   O17   S    
C28   N2    A    
Cu4   O16   S    
C75   H53   S    
Cu2   O4    S    
C52   H16   S    
C9    C13   A    
C81   H67   S    
C67   H33   S    
C9    H17   S    
C83   H72   S    
C11   C15   A    
Cu3   O13   S    
C79   C80   S    
C12   C16   A    
C11   H19   S    
Cu1   Cu3   S    
C68   H36   S    
C75   H51   S    
C77   H58   S    
C33   O15   A    
C14   C31   S    
C6    C66   S    
C18   C20   A    
C2    C61   S    
C82   C83   S    
C5    C65   S    
C79   H64   S    
C35   H3    S    
C32   O10   A    
C82   H71   S    
C76   H56   S    
C43   H7    S    
C31   O9    A    
C38   C76   S    
C37   C75   S    
C73   C74   S    
Cu1   O9    S    
C26   C28   A    
C44   C46   A    
C13   C53   A    
C21   C23   A    
C26   N4    A    
C80   C81   S    
C74   H49   S    
C42   H6    S    
C12   H20   S    
Cu1   N3    S    
C5    C61   A    
C17   C27   A    
C29   O19   S    
C78   H62   S    
C18   C28   A    
O18   C72   S    
C40   C78   S    
C71   H42   S    
C10   C14   A    
C66   H30   S    
C1    O1    A    
O19   C79   S    
C46   H10   S    
C71   H41   S    
C84   H76   S    
C39   C43   A    
Cu4   N2    S    
C21   H1    S    
Cu4   O15   S    
C18   H22   S    
Cu2   O3    S    
C69   H38   S    
C16   C56   A    
C16   C33   S    
C70   C71   S    
C80   H66   S    
C7    C67   S    
Cu3   O14   S    
C77   H57   S    
C45   C49   A    
C39   C59   A    
C74   H50   S    
C41   C47   A    
C77   H59   S    
C17   H21   S    
C42   C48   A    
C57   C61   A    
C43   C45   A    
C81   H69   S    
C7    C63   A    
C67   H31   S    
C8    C64   A    
C73   H47   S    
C79   H63   S    
C14   C54   A    
C20   C22   A    
C25   N3    A    
C55   C57   A    
C70   H39   S    
C22   C24   A    
C72   C73   S    
C69   C70   S    
C40   C44   A    
C1    O5    A    
Cu1   O10   S    
C22   H2    S    
Cu3   O5    S    
C68   H35   S    
C65   H25   S    
C3    O7    A    
C7    C9    A    
C46   C50   A    
C10   H18   S    
C15   C34   S    
C39   C77   S    
C31   O13   A    
C19   H23   S    
Cu4   O8    S    
Cu2   O12   S    
C73   H46   S    
C47   C51   A    
C30   O20   S    
C65   H27   S    
C5    C11   A    
C35   N3    A    
C25   C27   A    
C29   C35   A    
C59   C63   A    
C4    O4    A    
C30   C36   A    
C60   C64   A    
C34   O12   A    
C48   H12   S    
C66   H29   S    
C69   H37   S    
O17   C69   S    
Cu1   O1    S    
C30   N2    A    
C66   H28   S    
C71   H43   S    
C29   N1    A    
C6    C62   A    
C84   H74   S    
C68   H34   S    
C65   H26   S    
C52   C56   A    
C49   C53   A    
C4    O8    A    
C17   C19   A    
C81   H68   S    
C56   C58   A    
C51   C55   A    
C75   H52   S    
C37   C41   A    
C83   H73   S    
C67   H32   S    
C78   H60   S    
C27   N1    A    
C41   H5    S    
C82   H70   S    
C3    O3    A    
C8    C68   S    
C48   C52   A    
C23   C25   A    
C2    O2    A    
C8    C10   A    
C76   H54   S    
Cu3   N1    S    
C70   H40   S    
C45   H9    S    
C44   H8    S    
C72   H44   S    
C38   C58   A    
C83   C84   S    
C37   C57   A    
C36   H4    S    
Cu3   O6    S    
C15   C55   A    
C36   N4    A    
C19   C21   A    
