data_mof_unit_37412.cif
_audit_creation_date              2012-12-11T18:07:23-0500
_audit_creation_method            fapswitch 2.2
_symmetry_space_group_name_H-M    P1
_symmetry_Int_Tables_number       1
_space_group_crystal_system       triclinic
_cell_length_a                    8.440802
_cell_length_b                    12.847295
_cell_length_c                    26.98441
_cell_angle_alpha                 97.423341
_cell_angle_beta                  92.443461
_cell_angle_gamma                 81.624269
_cell_volume                      2869.90821272

loop_
_atom_site_label
_atom_site_type_symbol
_atom_type_description
_atom_site_fract_x
_atom_site_fract_y
_atom_site_fract_z
_atom_type_partial_charge
Ba1   Ba    Ba6+2 0.859560 0.448380 0.523550 1.658694
Ba2   Ba    Ba6+2 0.330270 0.551530 0.476440 1.669760
C1    C     C_3   0.667534 0.152404 0.742915 0.850776
C2    C     C_R   0.950576 0.614327 0.185013 0.605461
C3    C     C_2   0.776669 0.581993 0.275546 -0.090756
C4    C     C_3   0.108118 0.241562 0.656057 0.312328
C5    C     C_3   0.746912 0.607499 0.330848 -0.068214
C6    C     C_1   0.987887 0.480924 0.344310 0.040855
C7    C     C_2   0.029346 0.474608 0.296678 -0.083183
C8    C     C_2   0.917066 0.525936 0.259093 0.215744
C9    C     C_R   0.021657 0.514426 0.103840 -0.090700
C10   C     C_R   0.035937 0.420233 0.126312 -0.043877
C11   C     C_R   0.075306 0.323041 0.096393 -0.087897
C12   C     C_3   0.602908 0.222829 0.701535 0.433521
C13   C     C_R   0.978504 0.611964 0.133544 -0.083054
C14   C     C_2   0.853131 0.536113 0.362192 -0.264486
C15   C     C_2   0.340448 0.463781 0.641330 -0.226956
C16   C     C_3   0.122927 0.229626 0.711177 -0.371661
C17   C     C_R   0.155810 0.413462 0.972889 0.026970
C18   C     C_R   0.037575 0.600639 0.975832 0.027116
C19   C     C_R   0.113395 0.505877 0.948755 0.037824
C20   C     C_R   0.253435 0.326693 0.946685 -0.101341
C21   C     C_R   0.291030 0.326060 0.896819 -0.082687
C22   C     C_R   0.236863 0.413436 0.871220 -0.028843
C23   C     C_3   0.419940 0.794425 0.625256 0.722860
C24   C     C_R   0.149080 0.503955 0.897232 -0.084679
C25   C     C_R   0.098869 0.593018 0.871975 -0.027120
C26   C     C_R   0.141183 0.591327 0.821502 0.568492
C27   C     C_R   0.273001 0.413072 0.820547 0.592234
C28   C     C_3   0.215916 0.222835 0.414163 0.290418
C29   C     C_2   0.436149 0.486691 0.733609 0.152993
C30   C     C_3   0.480227 0.466833 0.678036 -0.077359
C31   C     C_1   0.199271 0.513141 0.655444 0.094730
C32   C     C_2   0.156243 0.505841 0.701954 -0.239208
C33   C     C_2   0.277593 0.499194 0.744426 0.210715
C34   C     C_3   0.417895 0.849357 0.679437 -0.070389
C35   C     C_R   0.104871 0.412656 0.022841 0.027016
C36   C     C_R   0.050444 0.511240 0.051735 -0.033787
C37   C     C_R   0.024761 0.606780 0.028929 -0.040010
C38   C     C_R   0.104498 0.317644 0.045230 0.173442
C39   C     C_R   0.966484 0.705927 0.111569 -0.097639
C40   C     C_3   0.219562 0.103804 0.400747 -0.354461
C41   C     C_R   0.975842 0.685124 0.948433 -0.086872
C42   C     C_R   0.007483 0.681896 0.897837 -0.093903
C43   C     C_R   0.993066 0.704833 0.060712 0.394503
C44   C     C_R   0.736442 0.818463 0.468320 -0.260369
C45   C     C_3   0.959203 0.856880 0.343465 0.290245
C46   C     C_R   0.426795 0.186385 0.514469 -0.293736
C47   C     C_R   0.393880 0.007924 0.525397 -0.103179
C48   C     C_R   0.336847 0.116093 0.531324 0.012312
C49   C     C_R   0.570160 0.150189 0.489501 0.058078
C50   C     C_R   0.627664 0.038972 0.481493 -0.054496
C51   C     C_R   0.537385 0.967197 0.499962 -0.066767
C52   C     C_3   0.974290 0.791341 0.659318 0.810171
C53   C     C_R   0.596482 0.856950 0.494244 0.053627
C54   C     C_R   0.832058 0.887617 0.453643 -0.034733
C55   C     C_R   0.775922 0.997153 0.458465 -0.096890
C56   C     C_3   0.000459 0.886391 0.293337 -0.301182
C57   C     C_3   0.922710 0.732670 0.700236 -0.240504
C58   C     C_3   0.700259 0.314685 0.376977 0.294245
C59   C     C_3   0.719477 0.286839 0.320820 -0.359868
C60   C     C_3   0.595372 0.093543 0.626298 -0.217814
C61   C     C_3   0.861878 0.859520 0.581874 -0.109845
C62   C     C_3   0.060555 0.964862 0.670684 0.140024
C63   C     C_3   0.484782 0.070413 0.781825 0.128537
C64   C     C_3   0.583594 0.635118 0.631099 0.267987
C65   C     C_3   0.538976 0.779433 0.754579 -0.268321
C66   C     C_3   0.884617 0.116055 0.796812 0.122411
C67   C     C_3   0.478206 0.820749 0.343940 0.376727
C68   C     C_3   0.697906 0.461389 0.781860 -0.149916
C69   C     C_3   0.974308 0.195043 0.987545 -0.241222
C70   C     C_3   0.150766 0.826923 0.047657 0.146572
C71   C     C_3   0.468653 0.896871 0.304876 -0.387099
C72   C     C_R   0.003622 0.424730 0.177876 0.601284
H1    H     H_    0.280823 0.077314 0.364814 0.117679
H2    H     H_    0.824552 0.224746 0.313012 0.129632
H3    H     H_    0.737482 0.357964 0.303648 0.076582
H4    H     H_    0.610168 0.257012 0.303639 0.132136
H5    H     H_    0.523425 0.290105 0.720813 0.027267
H6    H     H_    0.302845 0.824799 0.608965 0.038056
H7    H     H_    0.395118 0.936258 0.677784 0.030664
H8    H     H_    0.317825 0.824286 0.697556 0.151146
H9    H     H_    0.248716 0.201704 0.721730 0.153859
H10   H     H_    0.926252 0.775540 0.337744 0.023189
H11   H     H_    0.855349 0.914727 0.357694 -0.025638
H12   H     H_    0.284653 0.060347 0.429952 0.076822
H13   H     H_    0.098795 0.827514 0.276303 0.163721
H14   H     H_    0.893534 0.887825 0.267895 0.117259
H15   H     H_    0.038409 0.966365 0.298404 0.096723
H16   H     H_    0.605519 0.808157 0.357215 -0.106587
H17   H     H_    0.404979 0.858638 0.376356 0.082474
H18   H     H_    0.517955 0.969893 0.320891 0.074553
H19   H     H_    0.342499 0.918727 0.292620 0.125295
H20   H     H_    0.983052 0.269694 0.646260 0.158195
H21   H     H_    0.540075 0.859104 0.272028 0.126955
H22   H     H_    0.145593 0.433315 0.284786 0.114165
H23   H     H_    0.095365 0.084264 0.396904 0.130626
H24   H     H_    0.078041 0.249572 0.112393 0.119450
H25   H     H_    0.365266 0.256943 0.878536 0.131509
H26   H     H_    0.308916 0.259898 0.964703 0.109869
H27   H     H_    0.692145 0.619811 0.249611 0.098557
H28   H     H_    0.938798 0.782232 0.134074 0.136062
H29   H     H_    0.897254 0.753519 0.964856 0.138819
H30   H     H_    0.182005 0.302642 0.650153 -0.004730
H31   H     H_    0.959830 0.749799 0.878988 0.112582
H32   H     H_    0.031829 0.510112 0.710616 0.130113
H33   H     H_    0.827557 0.544107 0.401680 0.069222
H34   H     H_    0.839230 0.676344 0.688792 0.059215
H35   H     H_    0.356881 0.423570 0.603582 0.057113
H36   H     H_    0.325306 0.957354 0.541804 0.105957
H37   H     H_    0.851715 0.048195 0.445538 0.101856
H38   H     H_    0.782376 0.734757 0.465654 0.049711
H39   H     H_    0.382588 0.270361 0.519914 0.062526
H40   H     H_    0.082192 0.306920 0.733613 0.126058
H41   H     H_    0.046631 0.172283 0.719440 0.151394
H42   H     H_    0.340186 0.240887 0.419805 0.009167
H43   H     H_    0.147364 0.248032 0.448987 0.055100
H44   H     H_    0.423787 0.217815 0.647541 0.160121
H45   H     H_    0.868744 0.790466 0.731061 0.106012
H46   H     H_    0.613413 0.134179 0.593641 0.115111
H47   H     H_    0.528234 0.026235 0.615384 0.126560
H48   H     H_    0.715239 0.063746 0.639882 0.105629
H49   H     H_    0.764643 0.899803 0.653603 0.172549
H50   H     H_    0.859001 0.784251 0.557009 0.065611
H51   H     H_    0.978875 0.884264 0.576417 0.091287
H52   H     H_    0.769734 0.922880 0.570858 0.067945
H53   H     H_    0.943118 0.014539 0.672960 0.060977
H54   H     H_    0.113837 0.956193 0.633693 0.064163
H55   H     H_    0.141163 0.007520 0.696409 0.077197
H56   H     H_    0.031716 0.693066 0.716884 0.130083
H57   H     H_    0.577828 0.006738 0.792529 0.014778
H58   H     H_    0.425020 0.047177 0.745877 0.034864
H59   H     H_    0.391178 0.084781 0.810242 0.078049
H60   H     H_    0.603763 0.625309 0.670885 0.027692
H61   H     H_    0.677971 0.677707 0.620338 0.086092
H62   H     H_    0.599459 0.558229 0.607273 0.106409
H63   H     H_    0.626478 0.885396 0.716274 0.193402
H64   H     H_    0.656755 0.754777 0.773529 0.120850
H65   H     H_    0.474898 0.708922 0.745884 0.151426
H66   H     H_    0.464935 0.840109 0.780540 0.108687
H67   H     H_    0.812670 0.339862 0.393727 0.014429
H68   H     H_    0.996467 0.145052 0.812348 0.064408
H69   H     H_    0.919198 0.036282 0.775627 0.043321
H70   H     H_    0.809181 0.110643 0.828962 0.076324
H71   H     H_    0.497997 0.572000 0.802396 0.193928
H72   H     H_    0.703396 0.444672 0.821220 0.105726
H73   H     H_    0.795896 0.507108 0.776274 0.105181
H74   H     H_    0.716953 0.385152 0.758007 0.168958
H75   H     H_    0.164833 0.153794 0.035539 0.190533
H76   H     H_    0.998308 0.117047 0.964079 0.108364
H77   H     H_    0.937434 0.256850 0.962445 0.121875
H78   H     H_    0.600092 0.380669 0.383748 0.084448
H79   H     H_    0.875060 0.192898 0.013026 0.114587
H80   H     H_    0.234790 0.766383 0.024792 0.034568
H81   H     H_    0.193819 0.836143 0.087361 0.038970
H82   H     H_    0.151024 0.903958 0.033165 0.071623
H83   H     H_    0.698412 0.068978 0.724819 -0.151031
N1    N     N_R   0.959739 0.521241 0.206690 -0.420454
N2    N     N_R   0.227298 0.501504 0.796039 -0.427049
N3    N     N_2   0.508083 0.166613 0.664067 -0.470407
N4    N     N_2   0.837059 0.840958 0.632780 -0.443307
N5    N     N_2   0.562680 0.822942 0.708877 -0.445894
N6    N     N_2   0.546220 0.523477 0.771664 -0.449157
N7    N     N_2   0.117658 0.215999 0.016220 -0.441565
O1    O     O_2   0.907040 0.557650 0.617910 -0.530840
O2    O     O_2   0.158386 0.884817 0.471073 -0.485917
O3    O     O_3   0.092341 0.861426 0.376265 -0.585478
O4    O     O_3   0.139040 0.557570 0.557730 -0.440726
O5    O     O_3   0.571310 0.369620 0.475470 -0.495261
O6    O     O_2   0.348200 0.764910 0.523260 -0.446659
O7    O     O_3   0.539400 0.824176 0.597345 -0.702297
O8    O     O_2   0.453647 0.521123 0.324790 -0.482643
O9    O     O_3   0.418156 0.727196 0.322951 -0.566826
O10   O     O_2   0.011968 0.342572 0.196787 -0.599702
O11   O     O_2   0.345874 0.333434 0.798083 -0.579391
O12   O     O_3   0.667099 0.225028 0.396872 -0.641289
O13   O     O_2   0.918529 0.699826 0.210670 -0.628574
O14   O     O_2   0.104932 0.670897 0.800905 -0.620998
O15   O     O_3   0.684960 0.360550 0.588460 -0.468295
O16   O     O_2   0.806553 0.439759 0.672575 -0.518109
O17   O     O_3   0.079469 0.728161 0.623653 -0.630419
O18   O     O_3   0.729717 0.257303 0.678416 -0.624587
O19   O     O_2   0.841490 0.235060 0.476710 -0.470402
O20   O     O_3   0.099640 0.305100 0.564190 -0.500984
O21   O     O_2   0.002653 0.116910 0.540639 -0.480676
O22   O     O_3   0.057068 0.867592 0.688561 -0.701067
O23   O     O_3   0.159127 0.144975 0.626525 -0.641212
O24   O     O_3   0.551094 0.164578 0.780371 -0.625448
O25   O     O_3   0.426424 0.683667 0.623089 -0.694682
O26   O     O_3   0.806911 0.188632 0.765419 -0.662828
O27   O     O_3   0.993074 0.801694 0.043576 -0.658295
O28   O     O_2   0.282660 0.442310 0.382060 -0.453317
O29   O     O_3   0.050670 0.442340 0.442260 -0.502025
O30   O     O_3   0.504750 0.639360 0.411530 -0.471992
O31   O     O_3   0.143381 0.272311 0.374200 -0.630514
O32   O     O_3   0.618400 0.630290 0.524520 -0.480784
O33   O     O_3   0.090070 0.694820 0.435810 -0.455085
P1    P     P_3+3 0.072810 0.589830 0.610360 1.021545
P2    P     P_3+3 0.661990 0.251250 0.462170 0.971476
P3    P     P_3+3 0.148120 0.168459 0.563779 0.929213
P4    P     P_3+3 0.116900 0.410080 0.389630 0.990231
P5    P     P_3+3 0.039657 0.832388 0.434398 0.966019
P6    P     P_3+3 0.667063 0.378432 0.654439 0.887251
P7    P     P_3+3 0.530592 0.767229 0.534500 0.954661
P8    P     P_3+3 0.531595 0.619218 0.347047 0.975078

loop_
_geom_bond_atom_site_label_1
_geom_bond_atom_site_label_2
_ccdc_geom_bond_type
C21   H25   S    
C19   C24   A    
C57   H56   S    
C62   O22   S    
C70   H82   S    
C10   C72   A    
C23   H6    S    
C55   H37   S    
H44   N3    S    
Ba1   P1    S    
C71   H19   S    
C2    O13   D    
C5    P8    S    
O16   P6    D    
C68   N6    S    
C16   H40   S    
C61   H50   S    
Ba1   O19   S    
C27   N2    Am   
C28   H42   S    
C42   H31   S    
C54   C55   A    
C47   H36   S    
C40   H1    S    
O4    P1    S    
C45   H11   S    
C6    P4    S    
C17   C19   A    
C22   C24   A    
C72   O10   D    
C35   C38   A    
C44   H38   S    
O2    P5    D    
C36   C37   A    
H49   N4    S    
C69   H76   S    
C54   P5    S    
Ba2   O33   S    
C64   O25   S    
C40   H12   S    
C11   H24   S    
O29   P4    S    
C39   H28   S    
C66   H69   S    
C32   C33   S    
C58   H78   S    
O3    P5    S    
O7    P7    S    
C65   H64   S    
C22   C27   A    
C11   C38   A    
O21   P3    D    
C17   C35   A    
C14   H33   S    
C63   H57   S    
C64   H60   S    
C9    C13   A    
C25   C42   A    
C43   O27   S    
C46   C49   A    
C69   H77   S    
C29   C30   S    
C59   H3    S    
C6    C7    D    
O20   P3    S    
C56   H13   S    
C44   C53   A    
O28   P4    D    
C67   C71   S    
C68   H72   S    
C4    H30   S    
O32   P7    S    
C65   H65   S    
C7    C8    S    
C8    N1    S    
C70   O27   S    
O6    P7    D    
C37   C43   A    
C23   O7    S    
C46   C48   A    
C63   O24   S    
C6    C14   D    
C70   H81   S    
C1    O24   S    
C34   N5    S    
Ba1   P2    S    
Ba2   P4    S    
C67   O9    S    
C23   C34   S    
C27   O11   D    
O17   P1    S    
C12   O18   S    
Ba1   O20   S    
C16   H9    S    
C29   N6    S    
C52   C57   S    
C51   C53   A    
C59   H2    S    
C4    C16   S    
C2    N1    Am   
C20   H26   S    
C69   N7    S    
C72   N1    Am   
O18   P6    S    
C32   H32   S    
C17   C20   A    
C70   H80   S    
C13   C39   A    
C40   H23   S    
C34   H8    S    
C3    C5    S    
C18   C37   A    
C48   P3    S    
H71   N6    S    
Ba1   O4    S    
C62   H54   S    
C45   H10   S    
C4    O23   S    
C26   N2    Am   
O19   P2    D    
C49   C50   A    
C12   N3    S    
C58   C59   S    
Ba2   O30   S    
C9    C36   A    
Ba1   O29   S    
C41   C42   A    
C35   C36   A    
C58   H67   S    
C45   O3    S    
C28   O31   S    
C66   O26   S    
C34   H7    S    
C21   C22   A    
C62   H53   S    
Ba1   O32   S    
C31   C32   D    
C24   C25   A    
C52   O17   S    
O33   P5    S    
C15   C31   D    
H75   N7    S    
C12   H5    S    
C18   C19   A    
C66   H68   S    
C65   H66   S    
C7    H22   S    
C61   H51   S    
C1    C12   S    
C49   P2    S    
Ba2   O6    S    
C64   H62   S    
C5    C14   S    
O15   P6    S    
C58   O12   S    
C60   N3    S    
C1    O26   S    
C68   H74   S    
C71   H21   S    
O12   P2    S    
C67   H16   S    
Ba2   O4    S    
C60   H48   S    
C63   H58   S    
C50   C51   A    
C61   N4    S    
O30   P8    S    
O8    P8    D    
C57   H45   S    
Ba1   O1    S    
C60   H46   S    
C71   H18   S    
Ba2   O28   S    
C56   H14   S    
C16   H41   S    
C9    C10   A    
C38   N7    S    
O31   P4    S    
C28   H43   S    
C62   H55   S    
C57   H34   S    
C3    H27   S    
O5    P2    S    
O23   P3    S    
Ba2   O29   S    
C2    C13   A    
C3    C8    D    
C33   N2    S    
C23   O25   S    
O1    P1    D    
C45   C56   S    
Ba1   O15   S    
C65   N5    S    
C4    H20   S    
H63   N5    S    
C15   H35   S    
C31   P1    S    
C30   P6    S    
C47   C51   A    
C53   P7    S    
Ba1   Ba2   S    
C29   C33   D    
Ba1   O5    S    
C66   H70   S    
Ba2   O32   S    
C52   N4    S    
C56   H15   S    
C41   H29   S    
C18   C41   A    
C59   H4    S    
C50   C55   A    
Ba2   O5    S    
C64   H61   S    
C61   H52   S    
C10   C11   A    
C47   C48   A    
C52   O22   S    
C44   C54   A    
C25   C26   A    
C1    H83   S    
C15   C30   S    
C39   C43   A    
C20   C21   A    
C28   C40   S    
O9    P8    S    
C68   H73   S    
C67   H17   S    
C26   O14   D    
C60   H47   S    
C63   H59   S    
C46   H39   S    
C69   H79   S    
