data_mof_unit_65718.cif
_audit_creation_date              2012-10-26T18:35:49-0400
_audit_creation_method            fapswitch 2.2
_symmetry_space_group_name_H-M    P1
_symmetry_Int_Tables_number       1
_space_group_crystal_system       triclinic
_cell_length_a                    10.747311
_cell_length_b                    12.750523
_cell_length_c                    13.900033
_cell_angle_alpha                 97.938067
_cell_angle_beta                  90.177791
_cell_angle_gamma                 93.132809
_cell_volume                      1883.59457644

loop_
_atom_site_label
_atom_site_type_symbol
_atom_type_description
_atom_site_fract_x
_atom_site_fract_y
_atom_site_fract_z
_atom_type_partial_charge
C1    C     C_R   0.498525 0.483575 0.315830 0.579320
C2    C     C_1   0.497075 0.474181 0.212498 0.025982
C3    C     C_2   0.464424 0.028201 0.473586 -0.159848
C4    C     C_R   0.259485 0.500464 0.499928 0.585115
C5    C     C_2   0.535557 0.971796 0.526405 -0.162453
C6    C     C_1   0.525546 0.854619 0.519111 0.140903
C7    C     C_1   0.474442 0.145379 0.480883 0.141398
C8    C     C_R   0.501324 0.516423 0.684174 0.538914
C9    C     C_R   0.740634 0.499826 0.499849 0.533705
C10   C     C_3   0.066873 0.434084 0.404293 0.103119
C11   C     C_3   0.922938 0.435288 0.404341 -0.196530
C12   C     C_3   0.878420 0.500171 0.499316 0.009760
C13   C     C_3   0.069428 0.451892 0.587519 -0.279331
C14   C     C_3   0.078666 0.616161 0.505975 -0.217966
C15   C     C_3   0.121816 0.501045 0.498781 0.050402
C16   C     C_3   0.925809 0.450909 0.587495 -0.251363
C17   C     C_3   0.936204 0.615520 0.505385 -0.232166
C18   C     C_1   0.502244 0.525811 0.787517 -0.015048
C19   C     C_2   0.504162 0.543503 0.978412 -0.112633
C20   C     C_2   0.494309 0.456482 0.021612 -0.108330
C21   C     C_1   0.495727 0.465626 0.125436 -0.020937
C22   C     C_1   0.503134 0.534357 0.874584 -0.045419
Cl1   Cl    Cl    0.128842 0.479189 0.296369 -0.636513
Cu1   Cu    Cu3+1 0.491980 0.395330 0.493960 0.996880
Cu2   Cu    Cu3+1 0.508020 0.604670 0.506040 0.997488
H1    H     H_    0.093141 0.350534 0.402042 0.146548
H2    H     H_    0.882554 0.352301 0.397716 0.112937
H3    H     H_    0.098937 0.369287 0.585486 0.129717
H4    H     H_    0.886828 0.367828 0.584614 0.137145
H5    H     H_    0.115371 0.664091 0.574227 0.119952
H6    H     H_    0.115512 0.655470 0.444456 0.185425
H7    H     H_    0.904553 0.652674 0.442272 0.148582
H8    H     H_    0.905121 0.664601 0.572638 0.134662
H9    H     H_    0.107046 0.498271 0.656173 0.123350
H10   H     H_    0.893940 0.496425 0.656294 0.126604
H11   H     H_    0.485313 0.378076 0.979321 0.139388
H12   H     H_    0.513204 0.621905 0.020708 0.141985
H13   H     H_    0.604069 0.014090 0.577144 0.126090
H14   H     H_    0.395910 0.985907 0.422846 0.132668
H15   H     H_    0.888421 0.469964 0.340734 0.166129
N1    N     N_1   0.479930 0.238040 0.484880 -0.188379
N2    N     N_1   0.520070 0.761960 0.515120 -0.189162
O1    O     O_R   0.492240 0.399110 0.356330 -0.481743
O2    O     O_R   0.505790 0.575900 0.366540 -0.482299
O3    O     O_R   0.310920 0.411610 0.494880 -0.498926
O4    O     O_R   0.324460 0.588390 0.505090 -0.492912
O5    O     O_R   0.494210 0.424100 0.633460 -0.495319
O6    O     O_R   0.507760 0.600890 0.643670 -0.494407
O7    O     O_R   0.675540 0.411610 0.494910 -0.505464
O8    O     O_R   0.689080 0.588390 0.505120 -0.507017

loop_
_geom_bond_atom_site_label_1
_geom_bond_atom_site_label_2
_ccdc_geom_bond_type
Cu2   N2    S    
C12   C17   S    
C11   C12   S    
C8    O6    A    
C13   H3    S    
Cu2   O8    S    
C10   Cl1   S    
C1    O2    A    
C19   C20   D    
Cu2   O6    S    
C11   H2    S    
C14   H6    S    
C4    O3    A    
C10   H1    S    
C2    C21   T    
C7    N1    T    
C8    O5    A    
C3    H14   S    
C13   H9    S    
C4    O4    A    
C5    H13   S    
Cu1   Cu2   S    
Cu1   N1    S    
C14   C17   S    
C11   H15   S    
C17   H8    S    
C4    C15   S    
Cu1   O3    S    
Cu2   O2    S    
C14   H5    S    
C3    C7    S    
C10   C15   S    
C13   C15   S    
C16   H10   S    
C5    C6    S    
C9    C12   S    
C10   C11   S    
C20   H11   S    
C19   C22   S    
C9    O7    A    
C20   C21   S    
C1    C2    S    
C6    N2    T    
C13   C16   S    
Cu1   O7    S    
Cu1   O1    S    
C17   H7    S    
C14   C15   S    
C19   H12   S    
C16   H4    S    
C18   C22   T    
Cu1   O5    S    
Cu2   O4    S    
C1    O1    A    
C8    C18   S    
C9    O8    A    
C12   C16   S    
C3    C5    D    
