data_mof_unit_17904.cif
_audit_creation_date              2012-12-10T20:24:39-0500
_audit_creation_method            fapswitch 2.2
_symmetry_space_group_name_H-M    P1
_symmetry_Int_Tables_number       1
_space_group_crystal_system       triclinic
_cell_length_a                    10.760024
_cell_length_b                    19.27607
_cell_length_c                    18.45171
_cell_angle_alpha                 89.576166
_cell_angle_beta                  89.793216
_cell_angle_gamma                 88.528684
_cell_volume                      3825.69835174

loop_
_atom_site_label
_atom_site_type_symbol
_atom_type_description
_atom_site_fract_x
_atom_site_fract_y
_atom_site_fract_z
_atom_type_partial_charge
C1    C     C_R   0.501693 0.365511 0.500264 0.953104
C2    C     C_R   0.478413 0.182190 0.566138 -0.139523
C3    C     C_R   0.477694 0.853790 0.497568 0.171970
C4    C     C_R   0.513495 0.146122 0.503695 0.174320
C5    C     C_R   0.513012 0.818476 0.434661 -0.126712
C6    C     C_R   0.541682 0.181435 0.439608 -0.073346
C7    C     C_R   0.521069 0.746538 0.435461 -0.177424
C8    C     C_R   0.536267 0.253394 0.438122 -0.140418
C9    C     C_R   0.494067 0.709923 0.499386 -0.032056
C10   C     C_R   0.503052 0.290066 0.500935 -0.032563
C11   C     C_R   0.595222 0.956752 0.521319 -0.287335
C12   C     C_R   0.497814 0.634481 0.499770 0.957567
C13   C     C_R   0.394864 0.043186 0.480934 -0.332117
C14   C     C_R   0.608309 0.028175 0.523713 0.504968
C15   C     C_R   0.381563 0.971721 0.478882 0.440829
C16   C     C_R   0.260081 0.498897 0.500192 1.018994
C17   C     C_R   0.739815 0.501545 0.499818 1.004192
C18   C     C_R   0.506894 0.071299 0.503053 -0.127470
C19   C     C_R   0.483325 0.928625 0.499053 -0.132693
C20   C     C_R   0.515397 0.559998 0.726525 0.036893
C21   C     C_R   0.511268 0.439396 0.273289 0.058054
C22   C     C_R   0.516357 0.560121 0.802563 -0.320294
C23   C     C_R   0.872387 0.501556 0.499542 -0.251615
C24   C     C_R   0.511546 0.439363 0.197248 -0.276623
C25   C     C_R   0.501129 0.498072 0.841790 0.108425
C26   C     C_R   0.501261 0.502162 0.158389 0.059307
C27   C     C_R   0.486867 0.436340 0.802248 0.009343
C28   C     C_R   0.488592 0.564480 0.198157 0.009724
C29   C     C_R   0.486362 0.438891 0.725910 0.010042
C30   C     C_R   0.488698 0.561709 0.274283 0.062097
C31   C     C_R   0.408335 0.465525 0.963418 -0.128833
C32   C     C_R   0.594752 0.534139 0.037258 -0.168129
C33   C     C_R   0.408775 0.466515 0.039538 -0.189172
C34   C     C_R   0.127409 0.499173 0.500621 -0.247834
C35   C     C_R   0.594319 0.533222 0.961144 -0.188463
C36   C     C_R   0.501352 0.501329 0.077336 0.111445
C37   C     C_R   0.501392 0.498672 0.923118 0.139331
C38   C     C_R   0.222436 0.724751 0.427480 -0.146161
C39   C     C_R   0.775204 0.276202 0.569754 -0.170193
C40   C     C_R   0.166185 0.671232 0.466466 0.460215
C41   C     C_R   0.832935 0.329939 0.531951 0.408621
C42   C     C_R   0.133085 0.610486 0.429257 0.058169
C43   C     C_R   0.866368 0.389993 0.570217 0.078874
C44   C     C_R   0.159946 0.604072 0.354971 -0.088538
C45   C     C_R   0.936187 0.446361 0.535028 -0.139721
C46   C     C_R   0.837487 0.395837 0.644298 -0.072449
C47   C     C_R   0.217724 0.657483 0.317493 -0.159714
C48   C     C_R   0.777000 0.342577 0.680477 -0.158333
C49   C     C_R   0.248567 0.717832 0.353643 -0.148508
C50   C     C_R   0.746770 0.282623 0.643393 -0.142351
C51   C     C_R   0.933937 0.556084 0.464253 0.456183
C52   C     C_R   0.065729 0.444624 0.535862 0.460174
C53   C     C_R   0.063536 0.554498 0.465291 -0.133118
C54   C     C_R   0.460548 0.745881 0.562607 -0.143755
C55   C     C_R   0.473408 0.254132 0.564882 -0.171327
C56   C     C_R   0.452242 0.817767 0.561603 -0.083932
H1    H     H_    0.293063 0.759335 0.324442 0.191898
H2    H     H_    0.520747 0.390521 0.168835 0.166528
H3    H     H_    0.475974 0.391467 0.695951 0.149358
H4    H     H_    0.479030 0.609391 0.304397 0.147122
H5    H     H_    0.334100 0.439544 0.935997 0.154063
H6    H     H_    0.669102 0.559827 0.064883 0.146715
H7    H     H_    0.335803 0.440734 0.069055 0.149701
H8    H     H_    0.667851 0.558750 0.931877 0.146116
H9    H     H_    0.247076 0.771919 0.454342 0.236161
H10   H     H_    0.750568 0.229462 0.542009 0.235626
H11   H     H_    0.134587 0.557878 0.326004 0.160652
H12   H     H_    0.700578 0.241163 0.671687 0.187733
H13   H     H_    0.862549 0.441665 0.673986 0.152375
H14   H     H_    0.237811 0.652266 0.260252 0.156697
H15   H     H_    0.754615 0.347529 0.737461 0.140750
H16   H     H_    0.439623 0.718545 0.612482 0.179279
H17   H     H_    0.446360 0.281556 0.613702 0.174793
H18   H     H_    0.427638 0.845422 0.610723 0.161789
H19   H     H_    0.453886 0.154575 0.615288 0.158359
H20   H     H_    0.535721 0.846685 0.385572 0.166093
H21   H     H_    0.566443 0.153201 0.390873 0.170231
H22   H     H_    0.930126 0.020027 0.587045 0.390091
H23   H     H_    0.548233 0.719648 0.386330 0.182361
H24   H     H_    0.105942 0.020020 0.480930 0.366112
H25   H     H_    0.393674 0.348920 0.823082 0.200550
H26   H     H_    0.549967 0.338426 0.821164 0.183066
H27   H     H_    0.395322 0.627691 0.127883 0.198264
H28   H     H_    0.550203 0.641451 0.132988 0.203548
H29   H     H_    0.206655 0.640135 0.660118 0.382467
H30   H     H_    0.924203 0.212316 0.430363 0.398095
H31   H     H_    0.871582 0.731244 0.381552 0.394015
H32   H     H_    0.127031 0.268577 0.616616 0.383800
H33   H     H_    0.559226 0.280208 0.388268 0.188690
H34   H     H_    0.672225 0.922428 0.536558 0.234337
H35   H     H_    0.318102 0.077539 0.465392 0.208443
H36   H     H_    0.527099 0.608203 0.697345 0.147144
H37   H     H_    0.520347 0.390661 0.302299 0.153221
H38   H     H_    0.527668 0.608689 0.830622 0.159462
N1    N     N_R   0.500020 0.499980 0.689440 -0.099541
N2    N     N_R   0.499980 0.500020 0.310560 -0.113764
N3    N     N_3   0.477001 0.370978 0.838904 -0.462363
N4    N     N_3   0.470761 0.630553 0.163193 -0.472855
O1    O     O_R   0.500010 0.398180 0.560840 -0.633065
O2    O     O_2   0.731075 0.107258 0.616210 -0.342384
O3    O     O_3   0.852663 0.996700 0.573553 -0.516355
O4    O     O_2   0.257256 0.895245 0.384788 -0.290214
O5    O     O_2   0.187235 0.893174 0.511064 -0.267184
O6    O     O_3   0.133857 0.002568 0.433042 -0.485505
O7    O     O_2   0.155375 0.756733 0.581412 -0.259750
O8    O     O_2   0.001005 0.665942 0.576126 -0.244530
O9    O     O_3   0.227686 0.629993 0.608921 -0.600341
O10   O     O_2   0.775067 0.364766 0.395438 -0.304623
O11   O     O_2   0.994557 0.341118 0.420436 -0.257913
O12   O     O_R   0.499990 0.601820 0.439160 -0.635307
O13   O     O_3   0.847638 0.236863 0.413321 -0.512929
O14   O     O_2   0.770367 0.603486 0.363223 -0.304211
O15   O     O_2   0.762186 0.656577 0.483412 -0.321879
O16   O     O_3   0.932576 0.693881 0.394541 -0.529963
O17   O     O_2   0.236268 0.343874 0.515174 -0.328712
O18   O     O_2   0.229540 0.395861 0.635941 -0.321013
O19   O     O_3   0.066275 0.306233 0.604190 -0.548466
O20   O     O_R   0.499950 0.398180 0.439210 -0.624017
O21   O     O_R   0.500050 0.601820 0.560790 -0.619165
O22   O     O_R   0.316790 0.500010 0.560810 -0.528643
O23   O     O_R   0.683210 0.499990 0.439190 -0.533551
O24   O     O_R   0.316730 0.500000 0.439190 -0.647530
O25   O     O_R   0.683270 0.500000 0.560810 -0.646508
O26   O     O_2   0.805342 0.103305 0.490433 -0.301992
S1    S     S_3+6 0.751857 0.061533 0.551486 0.015243
S2    S     S_3+6 0.237743 0.938209 0.451643 0.043765
S3    S     S_3+6 0.133757 0.682973 0.559966 0.024339
S4    S     S_3+6 0.864539 0.319783 0.438198 0.027137
S5    S     S_3+6 0.846886 0.628197 0.425443 0.040518
S6    S     S_3+6 0.152350 0.371929 0.573686 0.023822
Zn1   Zn    Zn3+2 0.500040 0.500000 0.581210 1.021722
Zn2   Zn    Zn3+2 0.499960 0.500000 0.418790 1.029899

loop_
_geom_bond_atom_site_label_1
_geom_bond_atom_site_label_2
_ccdc_geom_bond_type
C23   C45   A    
C27   C29   A    
O22   Zn1   S    
C41   C43   A    
C31   H5    S    
C1    O1    A    
C12   O12   A    
C51   S5    S    
C39   C41   A    
C38   C49   A    
C15   C19   A    
C20   H36   S    
C11   C19   A    
C17   C23   S    
C14   S1    S    
O15   S5    D    
C13   C18   A    
H24   O6    S    
C32   C36   A    
C35   C37   A    
C24   C26   A    
C2    C55   A    
C16   O22   A    
C42   C53   S    
C11   C14   A    
C26   C36   S    
C33   C36   A    
C49   H1    S    
O5    S2    D    
C16   O24   A    
H31   O16   S    
C30   N2    A    
C16   C34   S    
C17   O25   A    
C29   H3    S    
C15   S2    S    
H27   N4    S    
C30   H4    S    
O21   Zn1   S    
C31   C33   A    
C3    C19   S    
C35   H8    S    
O14   S5    D    
C44   C47   A    
C29   N1    A    
N2    Zn2   S    
C4    C18   S    
C40   C42   A    
C13   H35   S    
H22   O3    S    
N1    Zn1   S    
C22   H38   S    
C41   S4    S    
C42   C44   A    
O24   Zn2   S    
C43   C46   A    
C46   C48   A    
C54   C56   A    
C56   H18   S    
O7    S3    D    
O2    S1    D    
C32   C35   A    
C4    C6    A    
C5    C7    A    
C6    H21   S    
C6    C8    A    
C45   C52   A    
O4    S2    D    
C40   S3    S    
O8    S3    D    
C22   C25   A    
C31   C37   A    
C51   C53   A    
C2    C4    A    
C47   H14   S    
O19   S6    S    
C12   O21   A    
C3    C56   A    
O11   S4    D    
C23   C51   A    
C38   H9    S    
C33   H7    S    
C54   H16   S    
O10   S4    D    
O12   Zn2   S    
C10   C55   A    
C43   C45   S    
C17   O23   A    
C20   N1    A    
C20   C22   A    
C13   C15   A    
C39   H10   S    
C48   H15   S    
H26   N3    S    
C7    H23   S    
C28   N4    S    
C7    C9    A    
C27   N3    S    
O25   Zn1   S    
C34   C52   A    
C14   C18   A    
C8    C10   A    
C1    C10   S    
C3    C5    A    
C9    C54   A    
C21   N2    A    
C25   C27   A    
C26   C28   A    
O1    Zn1   S    
H28   N4    S    
C5    H20   S    
C28   C30   A    
H30   O13   S    
O9    S3    S    
C47   C49   A    
C38   C40   A    
C52   S6    S    
C11   H34   S    
C21   H37   S    
C48   C50   A    
O16   S5    S    
C1    O20   A    
C9    C12   S    
O6    S2    S    
O20   Zn2   S    
C32   H6    S    
C55   H17   S    
C39   C50   A    
O18   S6    D    
C34   C53   A    
C24   H2    S    
C21   C24   A    
O13   S4    S    
C46   H13   S    
H25   N3    S    
C44   H11   S    
C8    H33   S    
O23   Zn2   S    
H32   O19   S    
H29   O9    S    
C50   H12   S    
O3    S1    S    
C2    H19   S    
C25   C37   S    
O26   S1    D    
O17   S6    D    
