data_mof_unit_41995.cif
_audit_creation_date              2012-12-10T17:42:37-0500
_audit_creation_method            fapswitch 2.2
_symmetry_space_group_name_H-M    P1
_symmetry_Int_Tables_number       1
_space_group_crystal_system       triclinic
_cell_length_a                    9.985263
_cell_length_b                    10.60808
_cell_length_c                    13.141439
_cell_angle_alpha                 92.603003
_cell_angle_beta                  70.188652
_cell_angle_gamma                 90.640191
_cell_volume                      1308.24810947

loop_
_atom_site_label
_atom_site_type_symbol
_atom_type_description
_atom_site_fract_x
_atom_site_fract_y
_atom_site_fract_z
_atom_type_partial_charge
C1    C     C_R   0.500381 0.739163 0.501120 0.902768
C2    C     C_R   0.443224 0.511497 0.980043 0.094580
C3    C     C_R   0.458416 0.459747 0.875932 0.077637
C4    C     C_R   0.547126 0.480461 0.026509 0.100039
C5    C     C_R   0.657368 0.392291 0.972172 0.158282
C6    C     C_R   0.662843 0.335120 0.873535 -0.237996
C7    C     C_R   0.563199 0.366526 0.826958 -0.180546
C8    C     C_R   0.541794 0.530828 0.127566 -0.189246
C9    C     C_R   0.741112 0.401558 0.124751 -0.206740
C10   C     C_R   0.370511 0.504637 0.821246 -0.101492
C11   C     C_R   0.344238 0.877246 0.698710 -0.172346
C12   C     C_R   0.420587 0.497868 0.703581 0.789590
C13   C     C_R   0.263134 0.946430 0.791539 -0.144397
C14   C     C_R   0.255132 0.077241 0.790213 -0.120663
C15   C     C_R   0.329738 0.139263 0.696481 -0.168798
C16   C     C_R   0.412689 0.070280 0.601840 0.090362
C17   C     C_R   0.417851 0.938483 0.602288 0.045697
C18   C     C_R   0.500484 0.872040 0.506589 -0.211011
C19   C     C_R   0.583306 0.932684 0.414014 0.463931
C20   C     C_R   0.582454 0.062270 0.416052 -0.270370
C21   C     C_R   0.495134 0.129093 0.507181 -0.148660
C22   C     C_R   0.799651 0.665472 0.644185 -0.094030
C23   C     C_R   0.498446 0.261111 0.502185 0.914653
C24   C     C_R   0.838242 0.743239 0.717764 -0.187891
C25   C     C_R   0.975978 0.739802 0.719735 -0.184333
C26   C     C_R   0.076308 0.659347 0.647479 -0.116033
C27   C     C_R   0.040966 0.578541 0.572785 0.065767
C28   C     C_R   0.897401 0.580116 0.571753 0.152622
C29   C     C_R   0.955626 0.424520 0.431383 -0.173898
C30   C     C_R   0.098706 0.423645 0.428882 0.468233
C31   C     C_R   0.579577 0.499303 0.296458 0.904559
C32   C     C_R   0.757047 0.357765 0.019888 -0.194565
C33   C     C_R   0.628765 0.483538 0.179737 -0.077405
C34   C     C_R   0.251096 0.579333 0.876555 -0.214770
C35   C     C_R   0.226833 0.620254 0.982921 -0.146721
C36   C     C_R   0.324071 0.591129 0.033227 -0.113433
H1    H     H_    0.809647 0.364805 0.165172 0.171727
H2    H     H_    0.351127 0.776288 0.703709 0.111690
H3    H     H_    0.207082 0.898443 0.864797 0.132773
H4    H     H_    0.192462 0.130960 0.862356 0.145171
H5    H     H_    0.323126 0.241033 0.699279 0.128907
H6    H     H_    0.648864 0.110935 0.345849 0.161586
H7    H     H_    0.922763 0.366383 0.374345 0.199712
H8    H     H_    0.693033 0.676109 0.645640 0.192656
H9    H     H_    0.760886 0.807283 0.773055 0.147783
H10   H     H_    0.005752 0.800815 0.776768 0.147560
H11   H     H_    0.180908 0.662878 0.651289 0.192051
H12   H     H_    0.743339 0.264741 0.832834 0.151797
H13   H     H_    0.841408 0.290819 0.978934 0.143660
H14   H     H_    0.463474 0.600083 0.172173 0.140031
H15   H     H_    0.181557 0.612725 0.835688 0.147679
H16   H     H_    0.300724 0.631010 0.114151 0.151462
H17   H     H_    0.136012 0.680189 0.024891 0.150613
H18   H     H_    0.568490 0.316488 0.752019 0.166965
N1    N     N_R   0.856860 0.501200 0.500990 -0.151908
N2    N     N_R   0.142450 0.501280 0.501020 -0.184755
O1    O     O_R   0.385310 0.683220 0.500000 -0.647430
O2    O     O_R   0.614640 0.683250 0.500010 -0.600047
O3    O     O_R   0.328400 0.499950 0.653610 -0.647271
O4    O     O_R   0.557730 0.499970 0.653620 -0.631456
O5    O     O_R   0.385360 0.316750 0.499990 -0.542806
O6    O     O_R   0.614690 0.316780 0.500000 -0.624633
O7    O     O_R   0.442270 0.500030 0.346380 -0.541295
O8    O     O_R   0.671600 0.500050 0.346390 -0.610872
Zn1   Zn    Zn3+2 0.346880 0.499980 0.499990 0.991288
Zn2   Zn    Zn3+2 0.653120 0.500020 0.500010 0.954769
S1    S     S_3+6 0.211285 0.331287 0.315424 0.032647
O9    O     O_2   0.125814 0.223431 0.291567 -0.324034
O10   O     O_2   0.252249 0.414235 0.220385 -0.345943
O11   O     O_3   0.359380 0.267921 0.324282 -0.526931
H19   H     H_    0.414264 0.236049 0.249870 0.360878
O12   O     O_3   0.674329 0.865478 0.325182 -0.591922
C37   C     C_3   0.614688 0.858970 0.241826 0.092594
H20   H     H_    0.578284 0.952970 0.226450 0.142526
H21   H     H_    0.522906 0.793000 0.263158 0.132417
C38   C     C_3   0.726976 0.810058 0.137369 -0.817760
H22   H     H_    0.770987 0.718800 0.150024 0.266634
H23   H     H_    0.679061 0.796223 0.072768 0.204682
H24   H     H_    0.815166 0.879091 0.110980 0.253426

loop_
_geom_bond_atom_site_label_1
_geom_bond_atom_site_label_2
_ccdc_geom_bond_type
O7    Zn1   S    
C16   C21   A    
C35   H17   S    
C37   H20   S    
C35   C36   A    
C38   H24   S    
C4    C8    A    
C34   H15   S    
C6    H12   S    
C24   H9    S    
C38   H23   S    
C34   C35   A    
C3    C7    A    
C5    C6    A    
N2    Zn1   S    
C18   C19   A    
C1    C18   S    
C9    C32   A    
C12   O3    A    
O2    Zn2   S    
C23   O6    A    
C22   H8    S    
C19   C20   A    
C16   C17   A    
C31   C33   S    
O11   H19   S    
C30   S1    S    
C36   H16   S    
C5    C32   A    
O4    Zn2   S    
C22   C28   A    
C13   C14   A    
C29   H7    S    
C9    C33   A    
C37   H21   S    
C19   O12   S    
C28   N1    A    
O6    Zn2   S    
S1    O9    D    
C31   O7    A    
C38   H22   S    
C15   H5    S    
C27   N2    A    
C4    C5    A    
C29   N1    A    
C25   C26   A    
C30   N2    A    
S1    O10   D    
O8    Zn2   S    
C11   H2    S    
C2    C4    A    
C29   C30   A    
C1    O1    A    
C9    H1    S    
C17   C18   A    
C26   C27   A    
C10   C34   A    
C24   C25   A    
C10   C12   S    
C26   H11   S    
C21   C23   S    
C37   C38   S    
C22   C24   A    
C8    H14   S    
N1    Zn2   S    
C2    C36   A    
C11   C17   A    
C31   O8    A    
O1    Zn1   S    
O12   C37   S    
C20   H6    S    
C6    C7    A    
S1    O11   S    
C2    C3    A    
C3    C10   A    
C1    O2    A    
O3    Zn1   S    
C11   C13   A    
C8    C33   A    
C32   H13   S    
C13   H3    S    
C14   H4    S    
C12   O4    A    
O5    Zn1   S    
C23   O5    A    
C20   C21   A    
C27   C28   A    
C14   C15   A    
C7    H18   S    
C25   H10   S    
C15   C16   A    
