data_mof_unit_43415.cif
_audit_creation_date              2012-12-11T14:50:32-0500
_audit_creation_method            fapswitch 2.2
_symmetry_space_group_name_H-M    P1
_symmetry_Int_Tables_number       1
_space_group_crystal_system       triclinic
_cell_length_a                    10.942768
_cell_length_b                    10.963784
_cell_length_c                    18.781284
_cell_angle_alpha                 89.917658
_cell_angle_beta                  89.678615
_cell_angle_gamma                 60.460982
_cell_volume                      1960.35587653

loop_
_atom_site_label
_atom_site_type_symbol
_atom_type_description
_atom_site_fract_x
_atom_site_fract_y
_atom_site_fract_z
_atom_type_partial_charge
C1    C     C_R   0.234919 0.646967 0.609113 0.556869
C2    C     C_3   0.684268 0.539468 0.802241 -0.168383
C3    C     C_3   0.689317 0.677065 0.813411 0.023608
C4    C     C_3   0.660411 0.645248 0.677901 -0.030103
C5    C     C_3   0.800816 0.639937 0.689494 -0.241325
C6    C     C_3   0.656477 0.527553 0.722694 -0.265685
C7    C     C_R   0.765588 0.185109 0.713382 -0.128019
C8    C     C_R   0.787936 0.160846 0.786462 -0.128447
C9    C     C_R   0.674669 0.187818 0.831650 0.036950
C10   C     C_R   0.536625 0.262486 0.805122 0.028915
C11   C     C_R   0.515641 0.288627 0.732747 -0.111447
C12   C     C_R   0.649178 0.617142 0.602870 0.540131
C13   C     C_R   0.628538 0.246751 0.686045 0.009069
C14   C     C_R   0.167322 0.565792 0.719698 0.159507
C15   C     C_R   0.156210 0.573247 0.793379 -0.114375
C16   C     C_R   0.166032 0.678128 0.831481 0.022335
C17   C     C_R   0.186102 0.777480 0.794661 -0.136869
C18   C     C_R   0.190971 0.774869 0.721416 -0.171622
C19   C     C_R   0.187964 0.666034 0.683076 0.039162
C20   C     C_R   0.771781 0.555360 0.280802 -0.145673
C21   C     C_R   0.771820 0.557236 0.208163 -0.139877
C22   C     C_R   0.663989 0.669572 0.170760 0.031672
C23   C     C_R   0.597261 0.284489 0.610768 0.544639
C24   C     C_R   0.548102 0.773383 0.208063 -0.141920
C25   C     C_R   0.543010 0.765509 0.282187 -0.137821
C26   C     C_R   0.655898 0.656035 0.318752 0.028141
C27   C     C_R   0.592371 0.104673 0.294062 -0.138251
C28   C     C_R   0.593548 0.087728 0.221448 -0.128237
C29   C     C_R   0.649614 0.150651 0.176657 0.040383
C30   C     C_R   0.702355 0.232763 0.204302 -0.119158
C31   C     C_R   0.702910 0.248465 0.277246 -0.123272
C32   C     C_R   0.646988 0.185103 0.322093 0.027626
C33   C     C_R   0.078522 0.817789 0.309962 -0.134154
C34   C     C_R   0.217546 0.651068 0.402630 0.551586
C35   C     C_R   0.043390 0.840734 0.238818 -0.022884
C36   C     C_R   0.047569 0.730856 0.196714 0.009710
C37   C     C_R   0.078557 0.603607 0.229607 -0.142467
C38   C     C_R   0.122927 0.579231 0.300198 -0.135210
C39   C     C_R   0.130938 0.684214 0.339002 0.014151
C40   C     C_R   0.699327 0.108688 0.898316 0.578230
C41   C     C_R   0.720840 0.688368 0.889045 0.567366
C42   C     C_R   0.115286 0.708345 0.904717 0.590675
C43   C     C_R   0.674164 0.106810 0.103763 0.534593
C44   C     C_R   0.696153 0.689626 0.097738 0.537974
C45   C     C_R   0.642300 0.623229 0.392317 0.549919
C46   C     C_R   0.026477 0.747282 0.119204 0.551178
C47   C     C_R   0.617152 0.230566 0.394783 0.553361
C48   C     C_3   0.545145 0.802593 0.784565 0.097448
C49   C     C_3   0.536736 0.788818 0.702937 -0.088556
C50   C     C_3   0.815533 0.664394 0.768287 -0.126529
Cr1   Cr    Cr6+3 0.392930 0.397900 0.502230 1.084499
Cr2   Cr    Cr6+3 0.398240 0.708600 0.501260 1.024917
Cr3   Cr    Cr6+3 0.708800 0.393470 0.496460 1.030557
Cr4   Cr    Cr6+3 0.937620 0.938540 0.007640 1.057207
Cr5   Cr    Cr6+3 0.625150 0.937450 0.994520 1.093915
Cr6   Cr    Cr6+3 0.937990 0.625080 0.001190 1.048332
H1    H     H_    0.740836 0.425258 0.703089 0.149830
H2    H     H_    0.912265 0.571468 0.787161 0.137107
H3    H     H_    0.885088 0.534029 0.674222 0.208547
H4    H     H_    0.854992 0.155806 0.678522 0.148747
H5    H     H_    0.894764 0.106461 0.806004 0.148688
H6    H     H_    0.411446 0.340497 0.712198 0.187896
H7    H     H_    0.130810 0.501607 0.820276 0.177049
H8    H     H_    0.189020 0.862985 0.821960 0.155630
H9    H     H_    0.458330 0.791614 0.808971 0.137731
H10   H     H_    0.201413 0.857170 0.695115 0.150284
H11   H     H_    0.860425 0.468949 0.306794 0.138670
H12   H     H_    0.862935 0.473447 0.181897 0.146994
H13   H     H_    0.463947 0.860908 0.180336 0.134455
H14   H     H_    0.450737 0.842872 0.310526 0.135284
H15   H     H_    0.546325 0.057949 0.328104 0.129935
H16   H     H_    0.554214 0.022155 0.200330 0.136561
H17   H     H_    0.745522 0.281474 0.169735 0.141342
H18   H     H_    0.741642 0.314691 0.298322 0.145007
H19   H     H_    0.080387 0.900840 0.340529 0.138909
H20   H     H_    0.436040 0.791382 0.691941 0.106437
H21   H     H_    0.079327 0.519114 0.199485 0.139772
H22   H     H_    0.160313 0.475721 0.322471 0.138496
H23   H     H_    0.811840 0.715466 0.653860 0.146937
H24   H     H_    0.787514 0.447934 0.816612 0.140252
H25   H     H_    0.553728 0.531478 0.714869 0.112454
O1    O     O_R   0.507430 0.255570 0.581420 -0.448906
O2    O     O_R   0.524460 0.695920 0.424060 -0.498414
O3    O     O_R   0.736530 0.504260 0.414810 -0.524532
O4    O     O_R   0.691460 0.277160 0.422180 -0.507009
O5    O     O_3   0.499990 0.499990 0.499980 -0.288826
O6    O     O_R   0.089490 0.825610 0.930610 -0.507721
O7    O     O_R   0.818370 0.054540 0.929880 -0.510315
O8    O     O_R   0.605870 0.077310 0.915530 -0.439791
O9    O     O_R   0.646440 0.806700 0.917570 -0.438599
O10   O     O_R   0.837200 0.593290 0.915250 -0.534586
O11   O     O_R   0.065330 0.635370 0.931590 -0.493349
O12   O     O_R   0.280190 0.527390 0.578910 -0.458614
O13   O     O_R   0.068300 0.828790 0.091860 -0.490771
O14   O     O_R   0.798730 0.057480 0.079370 -0.511878
O15   O     O_R   0.584680 0.080480 0.076790 -0.520156
O16   O     O_R   0.626790 0.809640 0.067050 -0.507679
O17   O     O_R   0.816010 0.596460 0.076500 -0.532612
O18   O     O_R   0.045680 0.638310 0.081070 -0.497074
O19   O     O_3   0.833590 0.833690 0.001120 -0.295118
O20   O     O_R   0.260310 0.739740 0.584580 -0.540107
O21   O     O_R   0.532250 0.695150 0.573830 -0.511265
O22   O     O_R   0.744930 0.503430 0.576380 -0.513106
O23   O     O_R   0.699250 0.276390 0.571950 -0.509740
O24   O     O_R   0.499020 0.256400 0.419850 -0.511292
O25   O     O_R   0.272400 0.528160 0.429140 -0.500088
O26   O     O_R   0.251910 0.740570 0.423020 -0.521954
Cl1   Cl    Cl    0.497277 0.978788 0.808646 -0.566598
C51   C     C_1   0.416794 0.302920 0.851614 0.301102
N1    N     N_1   0.325361 0.330238 0.891150 -0.259553
Cl2   Cl    Cl    0.153973 0.429554 0.676680 -0.652024
C52   C     C_1   0.025426 0.970979 0.210027 0.233233
N2    N     N_1   0.015117 0.073698 0.187174 -0.312660
C53   C     C_1   0.533886 0.905523 0.661480 0.293645
N3    N     N_1   0.531805 0.995997 0.628809 -0.213859
C54   C     C_1   0.836113 0.785692 0.776111 0.252892
N4    N     N_1   0.854906 0.879662 0.781550 -0.283713
C55   C     C_1   0.578007 0.533751 0.848889 0.153876
N5    N     N_1   0.494904 0.531441 0.886341 -0.310190

loop_
_geom_bond_atom_site_label_1
_geom_bond_atom_site_label_2
_ccdc_geom_bond_type
C46   O18   A    
C23   O1    A    
C1    O20   A    
C20   H11   S    
C35   C36   A    
Cr6   O17   S    
C11   H6    S    
C53   N3    T    
C2    C55   S    
C7    C8    A    
C2    C6    S    
Cr2   O21   S    
C29   C30   A    
Cr3   O3    S    
C34   O26   A    
C47   O4    A    
C36   C37   A    
Cr5   O9    S    
C17   H8    S    
Cr4   O6    S    
Cr3   O23   S    
C15   C16   A    
C3    C48   S    
C54   N4    T    
C13   C23   S    
C10   C51   S    
C18   C19   A    
C55   N5    T    
C26   C45   S    
C44   O17   A    
C33   H19   S    
Cr6   O10   S    
C22   C44   S    
C31   C32   A    
Cr2   O26   S    
C8    C9    A    
C47   O24   A    
Cr5   O19   S    
C43   O14   A    
C36   C46   S    
Cr3   O5    S    
C48   H9    S    
C5    H23   S    
C9    C10   A    
C50   C54   S    
C8    H5    S    
C49   C53   S    
C6    H25   S    
C21   C22   A    
C29   C43   S    
C6    H1    S    
Cr4   O19   S    
C28   H16   S    
Cr1   O5    S    
C52   N2    T    
C3    C50   S    
C24   H13   S    
C17   C18   A    
C14   Cl2   S    
Cr2   O20   S    
C1    C19   S    
C5    H3    S    
C34   C39   S    
C34   O25   A    
C45   O2    A    
C38   C39   A    
C24   C25   A    
C12   O22   A    
C4    C6    S    
C30   H17   S    
C16   C17   A    
C31   H18   S    
C38   H22   S    
C25   C26   A    
C37   H21   S    
C9    C40   S    
C50   H2    S    
Cr2   O2    S    
C12   O21   A    
C37   C38   A    
C44   O16   A    
C23   O23   A    
C46   O13   A    
C7    C13   A    
Cr1   O24   S    
Cr5   O16   S    
C43   O15   A    
C49   H20   S    
C33   C39   A    
Cr1   O1    S    
Cr4   O14   S    
C48   Cl1   S    
Cr1   O12   S    
C48   C49   S    
C41   O10   A    
C21   H12   S    
C40   O8    A    
C32   C47   S    
C22   C24   A    
C5    C50   S    
C45   O3    A    
C4    C12   S    
Cr6   O19   S    
C16   C42   S    
C7    H4    S    
C27   H15   S    
C28   C29   A    
C27   C32   A    
C14   C19   A    
Cr5   O15   S    
C25   H14   S    
C18   H10   S    
C4    C49   S    
C40   O7    A    
C2    H24   S    
Cr2   O5    S    
C2    C3    S    
Cr5   O8    S    
C51   N1    T    
Cr4   O7    S    
C11   C13   A    
C30   C31   A    
C20   C26   A    
Cr3   O22   S    
Cr1   O25   S    
C4    C5    S    
C33   C35   A    
C41   O9    A    
C42   O11   A    
Cr4   O13   S    
C3    C41   S    
C10   C11   A    
Cr6   O11   S    
C20   C21   A    
C1    O12   A    
C27   C28   A    
C15   H7    S    
C14   C15   A    
Cr3   O4    S    
C42   O6    A    
Cr6   O18   S    
C35   C52   S    
