data_mof_unit_23775.cif
_audit_creation_date              2012-12-10T20:51:41-0500
_audit_creation_method            fapswitch 2.2
_symmetry_space_group_name_H-M    P1
_symmetry_Int_Tables_number       1
_space_group_crystal_system       triclinic
_cell_length_a                    8.099617
_cell_length_b                    8.931793
_cell_length_c                    16.896593
_cell_angle_alpha                 89.541283
_cell_angle_beta                  94.626002
_cell_angle_gamma                 90.002725
_cell_volume                      1218.34757399

loop_
_atom_site_label
_atom_site_type_symbol
_atom_type_description
_atom_site_fract_x
_atom_site_fract_y
_atom_site_fract_z
_atom_type_partial_charge
C1    C     C_R   0.499973 0.217963 0.500006 0.916426
C2    C     C_R   0.500020 0.782027 0.499932 1.004020
C3    C     C_R   0.521355 0.501373 0.653592 0.949797
C4    C     C_R   0.478627 0.504864 0.346403 0.950440
C5    C     C_R   0.534992 0.494738 0.739522 -0.172536
C6    C     C_R   0.464992 0.498256 0.260546 -0.171747
C7    C     C_R   0.417786 0.565223 0.784382 0.422077
C8    C     C_R   0.582355 0.568335 0.215104 0.421981
C9    C     C_R   0.427095 0.539881 0.865698 -0.230021
C10   C     C_R   0.574075 0.541741 0.134115 -0.230002
C11   C     C_R   0.552548 0.448828 0.902851 0.251157
C12   C     C_R   0.449344 0.449844 0.097874 0.251428
C13   C     C_R   0.673453 0.387595 0.858922 -0.137473
C14   C     C_R   0.328110 0.389204 0.142273 -0.137815
C15   C     C_R   0.664009 0.409051 0.777372 -0.229921
C16   C     C_R   0.336586 0.411914 0.223506 -0.230586
C17   C     C_1   0.499979 0.065171 0.499968 -0.160528
C18   C     C_1   0.500016 0.934801 0.499939 -0.142696
H1    H     H_    0.662406 0.595876 0.098509 0.202529
H2    H     H_    0.338987 0.594413 0.900848 0.202724
H3    H     H_    0.773464 0.321658 0.887832 0.173093
H4    H     H_    0.228603 0.322688 0.113991 0.173200
H5    H     H_    0.755573 0.355864 0.743576 0.197573
H6    H     H_    0.244936 0.358936 0.257745 0.197520
N1    N     N_1   0.073640 0.500030 0.499990 0.007492
N2    N     N_1   0.926360 0.499970 0.500010 0.007317
N3    N     N_2   0.569293 0.433160 0.985810 -0.162366
N4    N     N_2   0.433167 0.432901 0.015132 -0.162638
O1    O     O_R   0.636850 0.285340 0.500000 -0.626189
O2    O     O_R   0.363150 0.714660 0.500000 -0.606645
O3    O     O_R   0.363100 0.285350 0.500000 -0.626330
O4    O     O_R   0.636900 0.714650 0.500000 -0.607290
O5    O     O_R   0.652140 0.498630 0.616140 -0.621401
O6    O     O_R   0.347860 0.501370 0.383860 -0.621796
O7    O     O_R   0.378390 0.498650 0.616130 -0.564732
O8    O     O_R   0.621610 0.501350 0.383870 -0.565579
Zn1   Zn    Zn3+2 0.682780 0.499990 0.500010 1.065619
Zn2   Zn    Zn3+2 0.317220 0.500010 0.499990 1.065862
S1    S     S_3+6 0.734754 0.695193 0.255610 0.036679
O9    O     O_2   0.877932 0.607981 0.294904 -0.291250
O10   O     O_2   0.796184 0.792477 0.191162 -0.282070
O11   O     O_3   0.653300 0.804795 0.322974 -0.572929
H7    H     H_    0.748191 0.862240 0.347786 0.383680
S2    S     S_3+6 0.264521 0.691427 0.742760 0.036630
O12   O     O_2   0.122231 0.603679 0.703882 -0.290779
O13   O     O_2   0.201859 0.788044 0.806378 -0.282890
O14   O     O_3   0.345602 0.801872 0.674775 -0.572813
H8    H     H_    0.250623 0.859828 0.649867 0.383779

loop_
_geom_bond_atom_site_label_1
_geom_bond_atom_site_label_2
_ccdc_geom_bond_type
O3    Zn2   S    
N2    Zn1   S    
C8    S1    S    
C3    O7    A    
N1    Zn2   S    
C2    C18   S    
C11   C13   A    
C9    H2    S    
C1    C17   S    
O14   H8    S    
S2    O14   S    
C11   N3    S    
C10   H1    S    
C2    O2    A    
C14   H4    S    
C15   H5    S    
C17   C18   T    
C13   H3    S    
C16   H6    S    
O6    Zn2   S    
C7    S2    S    
C9    C11   A    
C10   C12   A    
C12   N4    S    
C2    O4    A    
C1    O1    A    
O8    Zn1   S    
C12   C14   A    
S1    O11   S    
C14   C16   A    
C13   C15   A    
C4    O6    A    
C5    C15   A    
C4    C6    S    
O11   H7    S    
C3    O5    A    
C6    C16   A    
S1    O9    D    
C1    O3    A    
O7    Zn2   S    
S2    O12   D    
O2    Zn2   S    
S1    O10   D    
O1    Zn1   S    
N3    N4    D    
C7    C9    A    
C5    C7    A    
C6    C8    A    
N1    N2    T    
O4    Zn1   S    
C8    C10   A    
O5    Zn1   S    
C4    O8    A    
S2    O13   D    
C3    C5    S    
