data_mof_unit_29286.cif
_audit_creation_date              2012-12-11T15:52:31-0500
_audit_creation_method            fapswitch 2.2
_symmetry_space_group_name_H-M    P1
_symmetry_Int_Tables_number       1
_space_group_crystal_system       triclinic
_cell_length_a                    6.931911
_cell_length_b                    14.535659
_cell_length_c                    16.00712
_cell_angle_alpha                 90.183645
_cell_angle_beta                  89.988083
_cell_angle_gamma                 90.016795
_cell_volume                      1612.86733399

loop_
_atom_site_label
_atom_site_type_symbol
_atom_type_description
_atom_site_fract_x
_atom_site_fract_y
_atom_site_fract_z
_atom_type_partial_charge
O1    O     O_R   0.494400 0.415640 0.412830 -0.532878
O2    O     O_R   0.823920 0.405510 0.586560 -0.543659
O3    O     O_R   0.994250 0.584360 0.587170 -0.542444
C1    C     C_R   0.654867 0.383234 0.615368 0.682532
O4    O     O_R   0.824110 0.404610 0.413450 -0.544586
O5    O     O_R   0.994440 0.583460 0.412820 -0.546949
C2    C     C_R   0.655076 0.382390 0.384199 0.699178
O6    O     O_R   0.494210 0.416540 0.587180 -0.541159
O7    O     O_3   0.660810 0.558680 0.500000 -0.371374
V1    V     V_3+5 0.935650 0.489110 0.500000 1.383254
O8    O     O_R   0.324150 0.594490 0.413440 -0.524316
C3    C     C_R   0.155628 0.615886 0.383792 0.726475
O9    O     O_R   0.323970 0.595390 0.586550 -0.545402
C4    C     C_R   0.154735 0.617676 0.615615 0.646863
V2    V     V_3+5 0.435660 0.510890 0.500000 1.403425
O10   O     O_3   0.160630 0.441320 0.500000 -0.368622
C5    C     C_3   0.929257 0.705314 0.712654 -0.306433
H1    H     H_    0.845406 0.731338 0.658330 0.136542
H2    H     H_    0.860807 0.639753 0.732863 0.133170
C6    C     C_3   0.916839 0.776004 0.784707 -0.317189
H3    H     H_    0.842745 0.743902 0.839009 0.135526
H4    H     H_    0.827333 0.835475 0.764450 0.134257
H5    H     H_    0.154124 0.808192 0.604463 0.121527
H6    H     H_    0.135459 0.913474 0.711652 0.122364
C7    C     C_3   0.231455 0.781165 0.660130 -0.324479
C8    C     C_3   0.253024 0.652947 0.764691 -0.321879
C9    C     C_3   0.142637 0.687614 0.686461 0.118405
H7    H     H_    0.407248 0.640699 0.748805 0.136941
H8    H     H_    0.191536 0.586101 0.785480 0.122739
C10   C     C_3   0.121107 0.809659 0.810863 0.118570
C11   C     C_3   0.218811 0.852352 0.732638 -0.318073
C12   C     C_3   0.240370 0.724068 0.837252 -0.321493
H9    H     H_    0.172767 0.691292 0.892752 0.120334
H10   H     H_    0.388688 0.745336 0.855658 0.140224
H11   H     H_    0.385191 0.771585 0.642034 0.137775
H12   H     H_    0.366643 0.876515 0.748684 0.136590
C13   C     C_R   0.988435 0.814260 0.247439 -0.161634
H13   H     H_    0.875691 0.865822 0.248960 0.121861
C14   C     C_R   0.002649 0.751356 0.313426 -0.235054
H14   H     H_    0.900654 0.756006 0.364520 0.123444
C15   C     C_R   0.146886 0.683346 0.313941 -0.077361
C16   C     C_R   0.278481 0.679580 0.246400 0.288480
C17   C     C_R   0.265680 0.744420 0.181284 -0.213853
H15   H     H_    0.366678 0.740556 0.129701 0.116944
C18   C     C_R   0.121027 0.812086 0.181177 -0.077428
C19   C     C_R   0.812200 0.274392 0.716273 -0.162225
H16   H     H_    0.952892 0.293052 0.692295 0.116695
C20   C     C_R   0.801259 0.209637 0.780519 -0.157817
H17   H     H_    0.934036 0.180278 0.804044 0.118225
C21   C     C_R   0.621671 0.183183 0.813770 -0.045519
C22   C     C_R   0.453306 0.223131 0.781039 -0.162195
H18   H     H_    0.312613 0.204463 0.805012 0.116621
C23   C     C_R   0.464247 0.287893 0.716798 -0.157774
H19   H     H_    0.331473 0.317254 0.693273 0.118083
C24   C     C_R   0.643834 0.314333 0.683536 -0.045126
C25   C     C_R   0.812017 0.274000 0.281436 -0.161400
H20   H     H_    0.952695 0.292065 0.305879 0.117468
C26   C     C_R   0.800932 0.210043 0.215952 -0.153344
H21   H     H_    0.933630 0.180685 0.192155 0.118711
C27   C     C_R   0.621441 0.184208 0.181905 -0.048140
C28   C     C_R   0.453371 0.224290 0.215173 -0.160654
H22   H     H_    0.312700 0.206239 0.190716 0.116726
C29   C     C_R   0.464464 0.288269 0.280649 -0.145240
H23   H     H_    0.331791 0.317681 0.304419 0.120844
C30   C     C_R   0.643928 0.313917 0.314831 -0.048618
O11   O     O_R   0.771300 0.080930 0.910090 -0.540487
O12   O     O_R   0.441270 0.092800 0.083770 -0.542234
O13   O     O_R   0.271080 0.913920 0.084380 -0.536305
C31   C     C_R   0.610305 0.115330 0.112840 0.689474
O14   O     O_R   0.441580 0.091910 0.910670 -0.543651
O15   O     O_R   0.271390 0.913020 0.910040 -0.541252
C32   C     C_R   0.610639 0.114238 0.881902 0.684227
O16   O     O_R   0.770990 0.081830 0.084440 -0.540430
O17   O     O_3   0.604750 0.938760 0.997250 -0.368462
V3    V     V_3+5 0.329850 0.008280 0.997210 1.390865
O18   O     O_R   0.941680 0.901940 0.910610 -0.544770
C33   C     C_R   0.110531 0.879642 0.881630 0.650322
O19   O     O_R   0.941370 0.902830 0.083720 -0.541143
C34   C     C_R   0.110297 0.880616 0.112612 0.698421
V4    V     V_3+5 0.829860 0.986420 0.997150 1.389022
O20   O     O_3   0.104830 0.056030 0.997180 -0.368306
N1    N     N_2   0.414159 0.606519 0.240393 -0.537063
H24   H     H_    0.409507 0.573269 0.183395 0.243318
C35   C     C_3   0.608831 0.631922 0.262942 -0.487294
H25   H     H_    0.668096 0.681478 0.216868 0.182952
H26   H     H_    0.701406 0.569589 0.263419 0.186500
H27   H     H_    0.611834 0.663198 0.326300 0.209824

loop_
_geom_bond_atom_site_label_1
_geom_bond_atom_site_label_2
_ccdc_geom_bond_type
C7    C11   S    
C10   C12   S    
C29   C30   A    
C8    C12   S    
C15   C16   A    
C16   N1    S    
C35   H27   S    
C1    O6    A    
C14   C15   A    
C6    C10   S    
C23   H19   S    
O13   V3    S    
C8    C9    S    
C3    C15   S    
C35   H26   S    
O5    C3    A    
C10   C11   S    
O19   V4    S    
C26   C27   A    
C25   C30   A    
C5    C6    S    
C25   H20   S    
C28   C29   A    
C21   C32   S    
C10   C33   S    
O8    V2    S    
O11   C32   A    
C19   C24   A    
C31   O16   A    
O1    V2    S    
C4    C9    S    
O7    V1    S    
O13   C34   A    
C20   C21   A    
O17   V4    S    
O9    C4    A    
C21   C22   A    
C23   C24   A    
C19   C20   A    
O17   V3    S    
C22   H18   S    
C5    C9    S    
O18   C33   A    
C14   H14   S    
O4    C2    A    
O19   C34   A    
V3    O20   S    
C26   H21   S    
C27   C28   A    
O12   C31   A    
C12   H10   S    
O2    C1    A    
C17   H15   S    
C13   H13   S    
C2    C30   S    
C5    H1    S    
C18   C34   S    
C35   H25   S    
C17   C18   A    
O3    C4    A    
C7    H11   S    
C20   H17   S    
C6    H4    S    
O6    V2    S    
N1    C35   S    
O9    V2    S    
C1    C24   S    
O12   V3    S    
C16   C17   A    
C13   C18   A    
O2    V1    S    
O15   C33   A    
C19   H16   S    
O1    C2    A    
O18   V4    S    
V4    O20   S    
O5    V1    S    
O8    C3    A    
C7    C9    S    
O11   V4    S    
C8    H7    S    
C12   H9    S    
O7    V2    S    
H6    C11   S    
O4    V1    S    
C13   C14   A    
O3    V1    S    
V1    O10   S    
O15   V3    S    
C27   C31   S    
C5    H2    S    
O16   V4    S    
C25   C26   A    
H5    C7    S    
C28   H22   S    
C29   H23   S    
C6    H3    S    
C8    H8    S    
N1    H24   S    
O14   V3    S    
C11   H12   S    
O14   C32   A    
C22   C23   A    
V2    O10   S    
