data_mof_unit_45896.cif
_audit_creation_date              2012-12-10T17:37:21-0500
_audit_creation_method            fapswitch 2.2
_symmetry_space_group_name_H-M    P1
_symmetry_Int_Tables_number       1
_space_group_crystal_system       triclinic
_cell_length_a                    11.977236
_cell_length_b                    12.847955
_cell_length_c                    16.599114
_cell_angle_alpha                 90.893338
_cell_angle_beta                  81.392504
_cell_angle_gamma                 94.081791
_cell_volume                      2519.11372048

loop_
_atom_site_label
_atom_site_type_symbol
_atom_type_description
_atom_site_fract_x
_atom_site_fract_y
_atom_site_fract_z
_atom_type_partial_charge
C1    C     C_R   0.523167 0.700669 0.498938 0.924873
C2    C     C_R   0.546818 0.133166 0.526059 -0.315366
C3    C     C_R   0.454725 0.973369 0.484568 0.113930
C4    C     C_R   0.545084 0.026563 0.516965 0.127341
C5    C     C_R   0.965076 0.421316 0.409884 -0.103362
C6    C     C_R   0.036168 0.586435 0.586297 -0.113758
C7    C     C_R   0.846759 0.425962 0.422183 0.032817
C8    C     C_R   0.154094 0.578152 0.575595 0.044362
C9    C     C_R   0.852410 0.532694 0.539186 -0.070732
C10   C     C_R   0.147366 0.467659 0.460812 -0.028223
C11   C     C_R   0.971813 0.531753 0.531410 -0.010866
C12   C     C_R   0.476958 0.299368 0.501071 0.915361
C13   C     C_R   0.028765 0.473241 0.466310 -0.024586
C14   C     C_R   0.484589 0.500588 0.654331 0.835237
C15   C     C_R   0.516364 0.505488 0.346026 0.877691
C16   C     C_R   0.479130 0.518089 0.741335 -0.127455
C17   C     C_R   0.533248 0.534516 0.260557 -0.058237
C18   C     C_R   0.548407 0.465933 0.786833 -0.036295
C19   C     C_R   0.494151 0.628383 0.234384 -0.008773
C20   C     C_R   0.560784 0.503463 0.864574 -0.112567
C21   C     C_R   0.529115 0.660761 0.154269 -0.230952
C22   C     C_R   0.505462 0.591217 0.896650 0.138383
C23   C     C_R   0.461559 0.187578 0.500889 -0.162993
C24   C     C_R   0.598103 0.599940 0.099850 0.183875
C25   C     C_R   0.430464 0.636868 0.853486 -0.150022
C26   C     C_R   0.640405 0.510424 0.126889 -0.144792
C27   C     C_R   0.417635 0.600774 0.775979 -0.160617
C28   C     C_R   0.608468 0.478125 0.206849 -0.212324
C29   C     C_2   0.515671 0.628302 0.979085 -0.210666
C30   C     C_2   0.609262 0.616368 0.012215 -0.215454
C31   C     C_2   0.605864 0.371664 0.754763 0.409228
C32   C     C_2   0.421544 0.698225 0.287587 0.346270
C33   C     C_2   0.018476 0.365609 0.336362 0.363055
C34   C     C_R   0.539012 0.812514 0.499372 -0.170829
C35   C     C_2   0.984743 0.652965 0.654357 0.370151
C36   C     C_3   0.181748 0.174661 0.494155 0.074757
C37   C     C_3   0.091334 0.132976 0.443617 -0.333101
C38   C     C_3   0.972533 0.135566 0.491761 -0.940238
C39   C     C_3   0.824060 0.836086 0.512684 0.074076
C40   C     C_3   0.842040 0.783251 0.428641 -0.359444
C41   C     C_3   0.964156 0.802539 0.387085 -0.916456
C42   C     C_R   0.633312 0.972858 0.538834 -0.294609
C43   C     C_R   0.366424 0.027002 0.462777 -0.283463
C44   C     C_R   0.633253 0.864934 0.527733 0.493065
C45   C     C_R   0.368345 0.134914 0.471745 0.476248
C46   C     C_R   0.452949 0.866927 0.475445 -0.329263
H1    H     H_    0.205418 0.618550 0.616280 0.170173
H2    H     H_    0.611640 0.462667 0.900798 0.171938
H3    H     H_    0.616799 0.174303 0.550532 0.182659
H4    H     H_    0.382435 0.825942 0.451558 0.203507
H5    H     H_    0.700276 0.014437 0.566164 0.151463
H6    H     H_    0.297514 0.985786 0.437329 0.153203
H7    H     H_    0.194281 0.420746 0.415104 0.140357
H8    H     H_    0.804148 0.574920 0.587251 0.147946
H9    H     H_    0.585627 0.333579 0.699445 0.063438
H10   H     H_    0.439145 0.782123 0.282549 0.058091
H11   H     H_    0.108186 0.376859 0.314512 0.083547
H12   H     H_    0.796155 0.387890 0.379995 0.177958
H13   H     H_    0.897558 0.672307 0.660476 0.081045
H14   H     H_    0.159181 0.251879 0.520240 0.174009
H15   H     H_    0.181357 0.121278 0.546784 0.124967
H16   H     H_    0.096813 0.180883 0.387920 0.254026
H17   H     H_    0.106916 0.051403 0.424445 0.209513
H18   H     H_    0.964330 0.086325 0.547027 0.257679
H19   H     H_    0.909239 0.105111 0.453186 0.271708
H20   H     H_    0.954365 0.216866 0.510174 0.273970
H21   H     H_    0.886385 0.808142 0.549163 0.163577
H22   H     H_    0.843299 0.921694 0.506513 0.131413
H23   H     H_    0.642117 0.408483 0.226939 0.161784
H24   H     H_    0.822143 0.697905 0.435237 0.253381
H25   H     H_    0.784595 0.814105 0.389436 0.212200
H26   H     H_    0.986087 0.887521 0.378608 0.264002
H27   H     H_    0.974454 0.763797 0.326425 0.275602
H28   H     H_    0.023057 0.769824 0.424231 0.270336
H29   H     H_    0.364361 0.641221 0.741305 0.164772
H30   H     H_    0.685600 0.592739 0.974584 0.161330
H31   H     H_    0.438759 0.651284 0.016385 0.163445
H32   H     H_    0.384258 0.702190 0.878926 0.146671
H33   H     H_    0.693727 0.462740 0.085087 0.146507
H34   H     H_    0.498506 0.731350 0.133077 0.134582
N1    N     N_R   0.206400 0.519440 0.514690 -0.110855
N2    N     N_R   0.793600 0.480560 0.485310 -0.125921
O1    O     O_R   0.421320 0.658850 0.503920 -0.607190
O2    O     O_2   0.337286 0.664381 0.332562 -0.545535
O3    O     O_2   0.961581 0.306486 0.297829 -0.570201
O4    O     O_2   0.040796 0.688803 0.705318 -0.566818
O5    O     O_3   0.287237 0.189556 0.442760 -0.638960
O6    O     O_3   0.714632 0.808675 0.555502 -0.634956
O7    O     O_R   0.578680 0.341150 0.496080 -0.629906
O8    O     O_R   0.609840 0.646370 0.494500 -0.592195
O9    O     O_R   0.390160 0.353630 0.505500 -0.591701
O10   O     O_R   0.394600 0.506990 0.621070 -0.623444
O11   O     O_R   0.605400 0.493010 0.378930 -0.638672
O12   O     O_R   0.583120 0.494520 0.611640 -0.618051
O13   O     O_R   0.416880 0.505480 0.388360 -0.553913
O14   O     O_2   0.675965 0.334614 0.790223 -0.565855
Zn1   Zn    Zn3+2 0.374120 0.508330 0.506290 0.989636
Zn2   Zn    Zn3+2 0.625880 0.491670 0.493710 0.948464

loop_
_geom_bond_atom_site_label_1
_geom_bond_atom_site_label_2
_ccdc_geom_bond_type
C1    O8    A    
C23   C45   A    
C40   H25   S    
C39   H22   S    
C12   O9    A    
C28   H23   S    
C37   H16   S    
C12   C23   S    
C3    C43   A    
C37   C38   S    
C40   H24   S    
C36   C37   S    
C22   C29   S    
C24   C26   A    
C15   O13   A    
C35   O4    D    
C43   H6    S    
O12   Zn2   S    
C31   O14   D    
C6    C35   S    
C35   H13   S    
C10   H7    S    
C33   O3    D    
C41   H28   S    
C38   H20   S    
C22   C25   A    
C5    C33   S    
O10   Zn1   S    
C34   C46   A    
C7    H12   S    
C5    C13   A    
C42   H5    S    
C16   C27   A    
C32   H10   S    
N2    Zn2   S    
C42   C44   A    
C39   O6    S    
C27   H29   S    
C19   C32   S    
C37   H17   S    
C1    C34   S    
C38   H18   S    
C36   O5    S    
C32   O2    D    
C8    N1    A    
C12   O7    A    
C34   C44   A    
C39   C40   S    
C5    C7    A    
C6    C8    A    
C25   H32   S    
C2    C4    A    
C29   C30   D    
C2    H3    S    
C30   H30   S    
C38   H19   S    
O9    Zn1   S    
C9    C11   A    
C14   O10   A    
C20   H2    S    
C41   H26   S    
C40   C41   S    
C20   C22   A    
C14   C16   S    
C1    O1    A    
C3    C4    A    
C6    C11   A    
C15   C17   S    
C46   H4    S    
C33   H11   S    
C10   N1    A    
C45   O5    S    
C17   C28   A    
C39   H21   S    
C36   H14   S    
C10   C13   A    
C15   O11   A    
O13   Zn1   S    
C9    H8    S    
C25   C27   A    
C9    N2    A    
C3    C46   A    
C26   C28   A    
C26   H33   S    
O7    Zn2   S    
C8    H1    S    
C43   C45   A    
C11   C13   A    
C4    C42   A    
C21   H34   S    
C17   C19   A    
C14   O12   A    
C18   C20   A    
C24   C30   S    
C41   H27   S    
C7    N2    A    
C29   H31   S    
C16   C18   A    
O1    Zn1   S    
C21   C24   A    
C2    C23   A    
N1    Zn1   S    
C18   C31   S    
C31   H9    S    
C44   O6    S    
O11   Zn2   S    
O8    Zn2   S    
C36   H15   S    
C19   C21   A    
