data_mof_unit_26888.cif
_audit_creation_date              2012-12-10T20:34:50-0500
_audit_creation_method            fapswitch 2.2
_symmetry_space_group_name_H-M    P1
_symmetry_Int_Tables_number       1
_space_group_crystal_system       triclinic
_cell_length_a                    10.64028
_cell_length_b                    10.707599
_cell_length_c                    9.86529
_cell_angle_alpha                 89.694506
_cell_angle_beta                  89.55588
_cell_angle_gamma                 90.296225
_cell_volume                      1123.90574955

loop_
_atom_site_label
_atom_site_type_symbol
_atom_type_description
_atom_site_fract_x
_atom_site_fract_y
_atom_site_fract_z
_atom_type_partial_charge
C1    C     C_R   0.499413 0.260370 0.500160 0.891441
C2    C     C_3   0.878659 0.505001 0.500776 0.164916
C3    C     C_3   0.928838 0.612746 0.409283 -0.410163
C4    C     C_3   0.928230 0.378500 0.447986 -0.411855
C5    C     C_R   0.561407 0.062987 0.600966 0.105154
C6    C     C_R   0.502938 0.128788 0.497705 -0.132860
C7    C     C_R   0.455178 0.066776 0.384678 -0.259228
C8    C     C_R   0.451618 0.937741 0.383296 0.072039
C9    C     C_R   0.499675 0.871942 0.495728 -0.107038
C10   C     C_R   0.559998 0.935412 0.599801 0.072400
C11   C     C_3   0.540982 0.927010 0.749995 -0.474277
C12   C     C_R   0.257760 0.503486 0.500581 0.847857
C13   C     C_3   0.542423 0.068583 0.751015 -0.444962
C14   C     C_R   0.434009 0.411220 0.072551 0.101747
C15   C     C_R   0.574794 0.580152 0.070894 0.148122
C16   C     C_R   0.574611 0.579794 0.926509 -0.197086
C17   C     C_R   0.433546 0.411535 0.929825 0.140687
C18   C     C_3   0.294522 0.392349 0.927092 -0.236437
C19   C     C_3   0.295879 0.389482 0.081264 0.441720
C20   C     C_R   0.497138 0.739774 0.499318 0.896098
C21   C     C_R   0.742302 0.502674 0.499862 0.835322
C22   C     C_3   0.069681 0.528320 0.648719 -0.040470
C23   C     C_3   0.926196 0.525929 0.647568 -0.431610
C24   C     C_3   0.073141 0.610040 0.405093 -0.400295
C25   C     C_3   0.072365 0.378204 0.451375 -0.447799
C26   C     C_3   0.121303 0.506285 0.501984 0.164711
H1    H     H_    0.896186 0.362622 0.342258 0.189795
H2    H     H_    0.104662 0.591269 0.299322 0.176240
H3    H     H_    0.892664 0.603360 0.304312 0.184131
H4    H     H_    0.413828 0.117831 0.301099 0.223989
H5    H     H_    0.448266 0.886099 0.779126 0.217328
H6    H     H_    0.623198 0.885201 0.801831 0.188558
H7    H     H_    0.450515 0.109515 0.780485 0.227805
H8    H     H_    0.625364 0.108610 0.803449 0.198258
H9    H     H_    0.100495 0.449193 0.713782 0.138809
H10   H     H_    0.632978 0.645497 0.870593 0.145003
H11   H     H_    0.243068 0.473096 0.884125 0.126728
H12   H     H_    0.243415 0.467351 0.129079 0.047013
H13   H     H_    0.892691 0.448895 0.715402 0.169565
H14   H     H_    0.886990 0.614353 0.688827 0.166411
H15   H     H_    0.112113 0.702933 0.432735 0.161540
H16   H     H_    0.896383 0.704282 0.449052 0.157497
H17   H     H_    0.109485 0.358355 0.347938 0.227871
H18   H     H_    0.105115 0.301946 0.519490 0.154833
H19   H     H_    0.890840 0.300407 0.511739 0.160389
N1    N     N_R   0.499150 0.499140 0.142800 -0.138803
N2    N     N_R   0.499150 0.499180 0.857150 -0.117593
O1    O     O_R   0.500020 0.316790 0.614690 -0.622035
O2    O     O_R   0.500000 0.316760 0.385350 -0.599022
O3    O     O_R   0.314800 0.500000 0.614670 -0.616960
O4    O     O_R   0.314790 0.499960 0.385330 -0.629094
O5    O     O_R   0.500000 0.683240 0.614650 -0.624817
O6    O     O_R   0.499980 0.683210 0.385310 -0.578964
O7    O     O_R   0.685210 0.500040 0.614670 -0.630776
O8    O     O_R   0.685200 0.500000 0.385330 -0.609904
Zn1   Zn    Zn3+2 0.500010 0.500020 0.653130 0.939157
Zn2   Zn    Zn3+2 0.499990 0.499980 0.346870 0.977623
N3    N     N_3   0.117928 0.645024 0.707264 -0.452203
H20   H     H_    0.075397 0.722100 0.661491 0.188579
H21   H     H_    0.092920 0.646930 0.809988 0.168330
N4    N     N_3   0.391264 0.875053 0.273114 -0.432526
H22   H     H_    0.437012 0.901319 0.183121 0.192187
H23   H     H_    0.298418 0.906167 0.267922 0.186682
N5    N     N_3   0.652358 0.666903 0.141699 -0.391387
H24   H     H_    0.745356 0.652411 0.110969 0.145942
H25   H     H_    0.627229 0.756958 0.111168 0.164019
N6    N     N_3   0.260719 0.272412 0.867478 -0.391556
H26   H     H_    0.163971 0.259837 0.881512 0.200021
H27   H     H_    0.275502 0.279424 0.762823 0.192056
F1    F     F_    0.268517 0.273245 0.136655 -0.668849

loop_
_geom_bond_atom_site_label_1
_geom_bond_atom_site_label_2
_ccdc_geom_bond_type
C22   N3    S    
C12   O3    A    
C15   N5    S    
C1    O1    A    
C13   H7    S    
C6    C7    A    
O4    Zn2   S    
C19   H12   S    
C24   H2    S    
C9    C10   A    
C9    C20   S    
C2    C4    S    
C14   N1    A    
C8    N4    S    
N5    H24   S    
C25   H17   S    
C2    C21   S    
C22   H9    S    
C17   C18   S    
C18   N6    S    
C11   H5    S    
C5    C10   A    
C20   O5    A    
C7    H4    S    
C16   H10   S    
C24   H15   S    
C11   C13   S    
C14   C17   A    
C3    H3    S    
C3    C24   S    
C21   O7    A    
C1    O2    A    
N6    H26   S    
C23   H13   S    
C5    C6    A    
C25   H18   S    
C3    H16   S    
C18   H11   S    
C24   C26   S    
C11   H6    S    
C4    C25   S    
C2    C3    S    
C4    H19   S    
O8    Zn2   S    
N1    Zn2   S    
N4    H22   S    
O7    Zn1   S    
N3    H20   S    
C10   C11   S    
N3    H21   S    
C23   H14   S    
N2    Zn1   S    
C17   N2    A    
C7    C8    A    
C12   O4    A    
O2    Zn2   S    
C16   N2    A    
O1    Zn1   S    
C18   C19   S    
C22   C26   S    
C2    C23   S    
N4    H23   S    
O6    Zn2   S    
C22   C23   S    
C20   O6    A    
C21   O8    A    
C13   H8    S    
C4    H1    S    
C1    C6    S    
C15   N1    A    
N6    H27   S    
C25   C26   S    
C5    C13   S    
C14   C19   S    
C15   C16   A    
O3    Zn1   S    
O5    Zn1   S    
C12   C26   S    
C8    C9    A    
C19   F1    S    
N5    H25   S    
