data_mof_unit_54912.cif
_audit_creation_date              2012-12-10T18:09:10-0500
_audit_creation_method            fapswitch 2.2
_symmetry_space_group_name_H-M    P1
_symmetry_Int_Tables_number       1
_space_group_crystal_system       triclinic
_cell_length_a                    12.663014
_cell_length_b                    13.181647
_cell_length_c                    13.643179
_cell_angle_alpha                 89.137647
_cell_angle_beta                  95.963827
_cell_angle_gamma                 96.772023
_cell_volume                      2249.17410613

loop_
_atom_site_label
_atom_site_type_symbol
_atom_type_description
_atom_site_fract_x
_atom_site_fract_y
_atom_site_fract_z
_atom_type_partial_charge
C1    C     C_R   0.559510 0.691247 0.506451 0.890738
C2    C     C_R   0.475922 0.037827 0.441604 0.054337
C3    C     C_R   0.375452 0.996151 0.397036 0.022899
C4    C     C_R   0.515969 0.493695 0.318432 0.894339
C5    C     C_R   0.366954 0.898276 0.355874 -0.035937
C6    C     C_R   0.452371 0.839207 0.377159 -0.003646
C7    C     C_R   0.498182 0.142976 0.443958 -0.135276
C8    C     C_R   0.307147 0.157779 0.426038 0.484065
C9    C     C_R   0.596726 0.800916 0.507525 -0.282812
C10   C     C_R   0.899695 0.412883 0.682159 -0.303797
C11   C     C_R   0.208241 0.607427 0.366348 0.038675
C12   C     C_1   0.524326 0.482249 0.217675 -0.133729
C13   C     C_R   0.105517 0.627950 0.334095 -0.234646
C14   C     C_R   0.022041 0.593581 0.388825 -0.169677
C15   C     C_R   0.040617 0.537010 0.476284 0.004044
C16   C     C_R   0.442451 0.309429 0.481338 0.905634
C17   C     C_R   0.146847 0.517012 0.507321 0.172085
C18   C     C_R   0.956840 0.495905 0.531736 -0.027752
C19   C     C_R   0.981634 0.456926 0.627921 0.104237
C20   C     C_R   0.087965 0.455154 0.665064 -0.111894
C21   C     C_R   0.164882 0.462946 0.598357 -0.088273
C22   C     C_R   0.848679 0.490596 0.495234 0.003731
C23   C     C_R   0.290817 0.057151 0.388641 -0.303369
C24   C     C_R   0.795588 0.405741 0.640258 -0.014113
C25   C     C_R   0.483365 0.503864 0.681627 0.881932
C26   C     C_1   0.472415 0.505805 0.782607 -0.176342
C27   C     C_2   0.460804 0.505532 0.971527 -0.199449
C28   C     C_2   0.536072 0.465282 0.030032 0.018906
C29   C     C_1   0.531822 0.472619 0.132453 -0.030478
C30   C     C_1   0.464023 0.506713 0.868325 0.015582
C31   C     C_1   0.622488 0.418530 0.994091 0.204627
C32   C     C_1   0.469234 0.764170 0.305974 0.169452
C33   C     C_1   0.116752 0.428057 0.767593 0.167110
C34   C     C_R   0.413950 0.202387 0.450889 -0.205061
C35   C     C_1   0.234772 0.384327 0.615889 0.310422
C36   C     C_3   0.134397 0.167291 0.467849 0.088493
C37   C     C_3   0.035910 0.154732 0.392047 -0.371431
C38   C     C_3   0.936704 0.108208 0.438821 -0.870622
C39   C     C_1   0.279268 0.865145 0.282256 0.146711
C40   C     C_1   0.601433 0.187055 0.414910 0.238941
C41   C     C_3   0.725281 0.744384 0.711243 0.122454
C42   C     C_3   0.802033 0.672238 0.758343 -0.285982
C43   C     C_3   0.772092 0.634979 0.859283 -0.952833
C44   C     C_3   0.771817 0.021649 0.740020 0.063503
C45   C     C_R   0.686776 0.838628 0.573128 0.379355
C46   C     C_3   0.815641 0.134701 0.748883 -0.349086
C47   C     C_3   0.787575 0.179856 0.843962 -0.922788
C48   C     C_R   0.708563 0.943432 0.591588 0.446723
C49   C     C_R   0.639126 0.009438 0.547812 -0.362562
C50   C     C_R   0.551474 0.973482 0.479799 0.026214
C51   C     C_R   0.533773 0.869685 0.454509 -0.036368
H1    H     H_    0.731456 0.374476 0.682301 0.157827
H2    H     H_    0.116836 0.216598 0.527807 0.164428
H3    H     H_    0.147783 0.092259 0.503036 0.127348
H4    H     H_    0.021314 0.230706 0.360521 0.243203
H5    H     H_    0.050117 0.104757 0.331107 0.221904
H6    H     H_    0.948983 0.031812 0.470429 0.279255
H7    H     H_    0.866940 0.099221 0.381924 0.270801
H8    H     H_    0.918860 0.158684 0.498004 0.269296
H9    H     H_    0.642452 0.704145 0.705322 0.116610
H10   H     H_    0.729001 0.811748 0.759925 0.116012
H11   H     H_    0.800213 0.605399 0.709509 0.246435
H12   H     H_    0.915443 0.382355 0.755468 0.164233
H13   H     H_    0.884735 0.712352 0.766405 0.227379
H14   H     H_    0.774956 0.700596 0.910000 0.262051
H15   H     H_    0.829414 0.582686 0.890995 0.276001
H16   H     H_    0.690550 0.592803 0.852483 0.274162
H17   H     H_    0.810268 0.980197 0.802947 0.161771
H18   H     H_    0.684190 0.012223 0.747993 0.112513
H19   H     H_    0.903997 0.143118 0.748590 0.236193
H20   H     H_    0.781608 0.177849 0.685067 0.215700
H21   H     H_    0.699428 0.175546 0.843946 0.269261
H22   H     H_    0.821711 0.261116 0.850388 0.267417
H23   H     H_    0.821704 0.522060 0.425036 0.125484
H24   H     H_    0.820901 0.137829 0.908957 0.268013
H25   H     H_    0.273107 0.633336 0.323244 0.149497
H26   H     H_    0.944223 0.614046 0.362011 0.144205
H27   H     H_    0.090125 0.669812 0.266375 0.173493
H28   H     H_    0.397602 0.540622 0.001548 0.168565
H29   H     H_    0.212177 0.026164 0.356466 0.162112
H30   H     H_    0.653083 0.088496 0.570107 0.176160
N1    N     N_R   0.773270 0.445590 0.549770 -0.106133
N2    N     N_R   0.227520 0.553880 0.450750 -0.126040
N3    N     N_1   0.691562 0.381244 0.965328 -0.224051
N4    N     N_1   0.482992 0.706769 0.246706 -0.223631
N5    N     N_1   0.139781 0.406631 0.848951 -0.199496
N6    N     N_1   0.286433 0.318880 0.637135 -0.230890
N7    N     N_1   0.209641 0.839737 0.222757 -0.224548
N8    N     N_1   0.683374 0.221937 0.391656 -0.203570
O1    O     O_R   0.631100 0.627590 0.523760 -0.569904
O2    O     O_3   0.756015 0.773677 0.617259 -0.596303
O3    O     O_3   0.799437 0.980653 0.651852 -0.616513
O4    O     O_R   0.455900 0.662370 0.491970 -0.618434
O5    O     O_R   0.600200 0.480080 0.377830 -0.619659
O6    O     O_R   0.425000 0.514870 0.346040 -0.616628
O7    O     O_R   0.544100 0.337630 0.508030 -0.622216
O8    O     O_R   0.368900 0.372410 0.476240 -0.563837
O9    O     O_R   0.575000 0.485130 0.653960 -0.624322
O10   O     O_R   0.399800 0.519920 0.622170 -0.615827
O11   O     O_3   0.223376 0.217482 0.423955 -0.621019
Zn1   Zn    Zn3+2 0.616980 0.476780 0.521230 0.956478
Zn2   Zn    Zn3+2 0.383020 0.523220 0.478770 0.971928

loop_
_geom_bond_atom_site_label_1
_geom_bond_atom_site_label_2
_ccdc_geom_bond_type
C24   H1    S    
C15   C18   A    
C6    C32   S    
C9    C45   A    
C1    O1    A    
N2    Zn2   S    
C12   C29   T    
C41   C42   S    
C3    C23   A    
C2    C7    A    
C9    C51   A    
C41   H10   S    
C22   N1    A    
C36   C37   S    
C27   H28   S    
C11   H25   S    
C5    C6    A    
C16   O8    A    
C4    O6    A    
C8    C23   A    
C18   C19   A    
C14   H26   S    
C49   H30   S    
C24   N1    A    
C36   H2    S    
C2    C50   A    
C16   C34   S    
C38   H7    S    
C37   H5    S    
C35   N6    T    
C25   O10   A    
C10   H12   S    
O5    Zn1   S    
C7    C40   S    
C23   H29   S    
C4    C12   S    
C42   H11   S    
O8    Zn2   S    
C44   O3    S    
O6    Zn2   S    
C13   C14   A    
C27   C30   S    
C39   N7    T    
C44   C46   S    
C16   O7    A    
C1    C9    S    
C47   H22   S    
C6    C51   A    
C11   N2    A    
C25   C26   S    
C17   C21   A    
C31   N3    T    
C17   N2    A    
C33   N5    T    
O1    Zn1   S    
C37   C38   S    
C38   H6    S    
C10   C19   A    
C43   H14   S    
C50   C51   A    
C44   H18   S    
C36   O11   S    
C8    C34   A    
C46   H20   S    
C4    O5    A    
C20   C33   S    
C1    O4    A    
C48   C49   A    
C41   O2    S    
C26   C30   T    
C5    C39   S    
C40   N8    T    
C7    C34   A    
C44   H17   S    
C42   C43   S    
C22   H23   S    
C42   H13   S    
C45   C48   A    
C15   C17   A    
C46   C47   S    
C28   C29   S    
C18   C22   A    
C28   C31   S    
C41   H9    S    
C3    C5    A    
O4    Zn2   S    
C21   C35   S    
O9    Zn1   S    
C10   C24   A    
C19   C20   A    
C2    C3    A    
C8    O11   S    
C47   H24   S    
C11   C13   A    
C43   H15   S    
C32   N4    T    
N1    Zn1   S    
C45   O2    S    
C47   H21   S    
C46   H19   S    
C36   H3    S    
C13   H27   S    
C38   H8    S    
C37   H4    S    
C25   O9    A    
O10   Zn2   S    
C20   C21   A    
C43   H16   S    
C49   C50   A    
C48   O3    S    
C27   C28   D    
C14   C15   A    
O7    Zn1   S    
