data_mof_unit_52764.cif
_audit_creation_date              2012-10-26T19:21:08-0400
_audit_creation_method            fapswitch 2.2
_symmetry_space_group_name_H-M    P1
_symmetry_Int_Tables_number       1
_space_group_crystal_system       triclinic
_cell_length_a                    9.825041
_cell_length_b                    11.046913
_cell_length_c                    13.450577
_cell_angle_alpha                 94.277441
_cell_angle_beta                  81.576825
_cell_angle_gamma                 111.622492
_cell_volume                      1342.1715959

loop_
_atom_site_label
_atom_site_type_symbol
_atom_type_description
_atom_site_fract_x
_atom_site_fract_y
_atom_site_fract_z
_atom_type_partial_charge
C1    C     C_R   0.556927 0.745661 0.507070 0.562123
C2    C     C_R   0.377764 0.493286 0.800323 -0.000123
C3    C     C_2   0.589253 0.885221 0.510494 -0.126314
C4    C     C_R   0.423872 0.494790 0.690742 0.541353
C5    C     C_2   0.485030 0.930511 0.496790 -0.153372
C6    C     C_2   0.411360 0.114888 0.487952 -0.127680
C7    C     C_2   0.516158 0.069633 0.500299 -0.153778
C8    C     C_2   0.938087 0.520917 0.478513 -0.034133
C9    C     C_2   0.082177 0.517689 0.504869 0.005063
C10   C     C_R   0.443253 0.254377 0.492503 0.559935
C11   C     C_R   0.577780 0.512331 0.309494 0.546851
C12   C     C_R   0.439405 0.509566 0.972386 0.043472
C13   C     C_R   0.814018 0.613040 0.059602 0.041068
C14   C     C_R   0.624659 0.530798 0.201165 -0.033843
C15   C     C_R   0.228142 0.430427 0.835965 -0.131151
C16   C     C_R   0.182905 0.410699 0.937955 -0.112080
C17   C     C_R   0.286461 0.446932 0.005398 -0.078518
C18   C     C_3   0.096923 0.373100 0.366413 -0.100071
C19   C     C_3   0.138216 0.252156 0.342149 -0.265836
C20   C     C_3   0.058076 0.169981 0.257029 -0.478056
C21   C     C_2   0.873900 0.775245 0.872489 0.193708
C22   C     C_2   0.969704 0.637798 0.015944 0.273515
C23   C     C_R   0.482340 0.542918 0.870001 0.021059
C24   C     C_R   0.551171 0.539031 0.036937 0.007457
C25   C     C_R   0.702679 0.606208 0.999547 0.027738
C26   C     C_R   0.735366 0.665281 0.904578 -0.016695
C27   C     C_R   0.626482 0.630456 0.840867 -0.137905
C28   C     C_R   0.516275 0.501982 0.137615 -0.130114
C29   C     C_R   0.773150 0.581049 0.161419 -0.112183
Cu1   Cu    Cu3+1 0.362000 0.479240 0.482530 0.928335
Cu2   Cu    Cu3+1 0.638000 0.520760 0.517470 0.929195
H1    H     H_    0.856886 0.593359 0.209531 0.163891
H2    H     H_    0.241736 0.425716 0.082717 0.101002
H3    H     H_    0.066857 0.362983 0.964753 0.124166
H4    H     H_    0.653300 0.679812 0.770097 0.131030
H5    H     H_    0.626010 0.135474 0.513505 0.158301
H6    H     H_    0.936660 0.133626 0.279346 0.160484
H7    H     H_    0.085874 0.228363 0.188172 0.152654
H8    H     H_    0.092563 0.084815 0.239705 0.174298
H9    H     H_    0.257697 0.279811 0.316934 0.202665
H10   H     H_    0.105757 0.190665 0.409642 0.179546
H11   H     H_    0.974421 0.332238 0.377792 0.107164
H12   H     H_    0.375394 0.864674 0.483123 0.159969
H13   H     H_    0.135498 0.437908 0.300572 0.134943
H14   H     H_    0.913727 0.790302 0.793036 0.093497
H15   H     H_    0.997900 0.626994 0.935611 0.106870
H16   H     H_    0.301721 0.048849 0.474628 0.100558
H17   H     H_    0.698697 0.951306 0.524190 0.101719
H18   H     H_    0.126905 0.576508 0.569032 0.128744
H19   H     H_    0.908463 0.494959 0.403368 0.147973
H20   H     H_    0.873317 0.573796 0.615631 0.198662
H21   H     H_    0.404177 0.452006 0.169724 0.121299
H22   H     H_    0.145873 0.393878 0.784688 0.130647
N1    N     N_2   0.845330 0.551960 0.543750 -0.358477
N2    N     N_2   0.154690 0.448120 0.456210 -0.229265
O1    O     O_R   0.426290 0.668220 0.490680 -0.496656
O2    O     O_2   0.067990 0.667552 0.069417 -0.506951
O3    O     O_R   0.659360 0.703290 0.520190 -0.488617
O4    O     O_R   0.326580 0.473880 0.629020 -0.501788
O5    O     O_R   0.559660 0.508940 0.658530 -0.501543
O6    O     O_R   0.340640 0.296710 0.479810 -0.511636
O7    O     O_R   0.573710 0.331780 0.509320 -0.484006
O8    O     O_R   0.440340 0.491060 0.341470 -0.506818
O9    O     O_R   0.673420 0.526120 0.370980 -0.502830
O10   O     O_2   0.939661 0.854456 0.933631 -0.480512

loop_
_geom_bond_atom_site_label_1
_geom_bond_atom_site_label_2
_ccdc_geom_bond_type
Cu2   O5    S    
C6    C10   S    
C2    C4    S    
C21   C26   S    
C6    C7    D    
C2    C15   A    
C18   H13   S    
C20   H7    S    
C7    H5    S    
C12   C24   A    
C11   O8    A    
C19   C20   S    
Cu2   O7    S    
C3    C5    D    
H20   N1    S    
C27   H4    S    
Cu1   O4    S    
C4    O5    A    
C22   O2    D    
C5    H12   S    
C19   H10   S    
C1    O3    A    
C12   C17   A    
C20   H6    S    
C28   H21   S    
C12   C23   A    
C13   C25   A    
C26   C27   A    
C10   O7    A    
C17   H2    S    
C18   N2    S    
C9    N2    D    
C15   H22   S    
C4    O4    A    
C13   C29   A    
C6    H16   S    
C22   H15   S    
C1    O1    A    
C13   C22   S    
C11   O9    A    
C29   H1    S    
C21   H14   S    
C23   C27   A    
C18   H11   S    
Cu2   N1    S    
Cu1   Cu2   S    
C11   C14   S    
C10   O6    A    
C19   H9    S    
C14   C29   A    
C15   C16   A    
C8    H19   S    
C3    H17   S    
C9    H18   S    
C24   C25   A    
Cu2   O3    S    
C18   C19   S    
Cu1   N2    S    
Cu1   O6    S    
C8    N1    D    
C2    C23   A    
C5    C7    S    
C20   H8    S    
C16   C17   A    
C14   C28   A    
C25   C26   A    
Cu1   O8    S    
Cu1   O1    S    
Cu2   O9    S    
C21   O10   D    
C24   C28   A    
C16   H3    S    
C8    C9    S    
C1    C3    S    
