data_mof_unit_38826.cif
_audit_creation_date              2012-12-10T17:57:53-0500
_audit_creation_method            fapswitch 2.2
_symmetry_space_group_name_H-M    P1
_symmetry_Int_Tables_number       1
_space_group_crystal_system       triclinic
_cell_length_a                    10.821702
_cell_length_b                    9.793256
_cell_length_c                    14.852741
_cell_angle_alpha                 89.948267
_cell_angle_beta                  97.678581
_cell_angle_gamma                 89.730558
_cell_volume                      1559.95538311

loop_
_atom_site_label
_atom_site_type_symbol
_atom_type_description
_atom_site_fract_x
_atom_site_fract_y
_atom_site_fract_z
_atom_type_partial_charge
C1    C     C_R   0.263747 0.501100 0.506259 0.841315
C2    C     C_R   0.735308 0.500342 0.491591 0.842315
C3    C     C_R   0.272554 0.488643 0.025641 -0.250276
C4    C     C_R   0.727100 0.491191 0.974294 -0.250997
C5    C     C_R   0.063527 0.381703 0.513534 0.184299
C6    C     C_R   0.932216 0.628656 0.481391 0.209200
C7    C     C_R   0.936260 0.379909 0.485518 0.187412
C8    C     C_R   0.061907 0.630531 0.500657 0.202217
C9    C     C_R   0.868391 0.502856 0.481693 -0.280102
C10   C     C_R   0.129081 0.505196 0.511183 -0.282412
C11   C     C_R   0.434768 0.074326 0.427827 0.198112
C12   C     C_R   0.565353 0.924885 0.571154 0.189482
C13   C     C_R   0.565155 0.073564 0.572214 0.196029
C14   C     C_R   0.434815 0.925707 0.428827 0.193596
C15   C     C_R   0.498323 0.499576 0.329634 0.771449
C16   C     C_R   0.501370 0.499439 0.670331 0.772821
C17   C     C_R   0.613207 0.492733 0.823404 -0.252968
C18   C     C_R   0.386479 0.491685 0.176577 -0.254552
C19   C     C_R   0.500622 0.496516 0.766491 -0.051041
C20   C     C_R   0.499014 0.496964 0.233461 -0.048485
C21   C     C_R   0.387064 0.494072 0.800411 -0.239895
C22   C     C_R   0.612577 0.495850 0.199520 -0.238449
C23   C     C_R   0.383875 0.492279 0.894274 0.083978
C24   C     C_R   0.615766 0.493850 0.105670 0.084396
C25   C     C_R   0.499202 0.493022 0.952841 0.023423
C26   C     C_R   0.500417 0.493150 0.047113 0.023484
C27   C     C_R   0.613662 0.492439 0.916884 0.107131
C28   C     C_R   0.385976 0.491296 0.083075 0.107090
C29   C     C_R   0.269509 0.488855 0.931185 0.092378
C30   C     C_R   0.730162 0.491525 0.068742 0.092746
Cu1   Cu    Cu3+1 0.500000 0.640660 0.500000 0.963618
Cu2   Cu    Cu3+1 0.500000 0.359340 0.500000 0.969158
H1    H     H_    0.699991 0.491460 0.794489 0.117766
H2    H     H_    0.299759 0.489251 0.205527 0.117549
H3    H     H_    0.302643 0.493820 0.752325 0.157447
H4    H     H_    0.696990 0.496533 0.247593 0.156376
H5    H     H_    0.185795 0.486526 0.054721 0.137879
H6    H     H_    0.813878 0.490083 0.945180 0.139058
N1    N     N_R   0.500000 0.852070 0.500000 -0.186684
N2    N     N_R   0.500000 0.147930 0.500000 -0.173077
O1    O     O_R   0.319640 0.618740 0.499990 -0.557311
O2    O     O_R   0.680360 0.381260 0.500010 -0.562290
O3    O     O_R   0.680360 0.618740 0.500010 -0.558651
O4    O     O_R   0.319640 0.381260 0.499990 -0.560219
O5    O     O_R   0.499970 0.618800 0.370260 -0.592565
O6    O     O_R   0.500030 0.381200 0.629740 -0.578182
O7    O     O_R   0.500030 0.618800 0.629740 -0.594132
O8    O     O_R   0.499970 0.381200 0.370260 -0.579611
C31   C     C_3   0.143596 0.480635 0.872459 -0.417453
C32   C     C_3   0.102279 0.619936 0.830924 -0.327307
C33   C     C_3   0.989983 0.605215 0.757677 -0.838777
H7    H     H_    0.014848 0.541704 0.700749 0.263006
H8    H     H_    0.911522 0.556661 0.786497 0.232968
H9    H     H_    0.959562 0.707493 0.730629 0.263370
H10   H     H_    0.076996 0.688397 0.885321 0.218406
H11   H     H_    0.178863 0.669174 0.800175 0.236239
H12   H     H_    0.147197 0.402130 0.818872 0.215579
H13   H     H_    0.070957 0.444996 0.913363 0.185403
C34   C     C_3   0.856282 0.484628 0.127343 -0.421353
C35   C     C_3   0.895574 0.624545 0.167824 -0.322516
C36   C     C_3   0.012528 0.612038 0.237284 -0.830632
H14   H     H_    0.994445 0.545435 0.294662 0.260233
H15   H     H_    0.090180 0.567820 0.204867 0.230111
H16   H     H_    0.040482 0.714536 0.264512 0.268811
H17   H     H_    0.914804 0.694425 0.112324 0.218527
H18   H     H_    0.820079 0.671040 0.201653 0.240623
H19   H     H_    0.854203 0.406709 0.181553 0.213487
H20   H     H_    0.929207 0.449083 0.086453 0.186928
Br1   Br    Br    0.136244 0.221004 0.575728 -0.456530
Br2   Br    Br    0.848583 0.798277 0.440309 -0.418267
Br3   Br    Br    0.866835 0.214600 0.428972 -0.446245
Br4   Br    Br    0.138829 0.808226 0.524783 -0.417274
C37   C     C_3   0.368592 0.146172 0.340256 -0.372014
C38   C     C_3   0.249046 0.229250 0.347024 -0.268630
C39   C     C_3   0.146891 0.209872 0.266024 -0.894871
H21   H     H_    0.182531 0.237446 0.201653 0.246225
H22   H     H_    0.114527 0.102279 0.262414 0.279427
H23   H     H_    0.066095 0.276984 0.274149 0.270337
H24   H     H_    0.209476 0.197554 0.408308 0.295078
H25   H     H_    0.270648 0.339386 0.347337 0.224306
H26   H     H_    0.435711 0.195103 0.301399 0.206686
H27   H     H_    0.336149 0.075904 0.286691 0.192745
C40   C     C_3   0.645853 0.848875 0.648545 -0.319268
C41   C     C_3   0.589517 0.847193 0.740490 -0.360555
C42   C     C_3   0.691594 0.833311 0.821717 -0.868902
H28   H     H_    0.749761 0.741650 0.813964 0.259149
H29   H     H_    0.752543 0.924532 0.827820 0.252850
H30   H     H_    0.648677 0.822885 0.885216 0.257468
H31   H     H_    0.531483 0.938478 0.749554 0.203579
H32   H     H_    0.522482 0.765140 0.745537 0.259660
H33   H     H_    0.672090 0.745633 0.630363 0.240342
H34   H     H_    0.739810 0.896382 0.657744 0.186577
C43   C     C_3   0.630293 0.144682 0.660052 -0.372178
C44   C     C_3   0.749120 0.228253 0.654049 -0.268308
C45   C     C_3   0.850060 0.209984 0.736118 -0.902174
H35   H     H_    0.812620 0.237764 0.799805 0.248211
H36   H     H_    0.883940 0.102613 0.740674 0.277197
H37   H     H_    0.930263 0.277449 0.728530 0.271696
H38   H     H_    0.790315 0.196022 0.593625 0.293443
H39   H     H_    0.726504 0.338331 0.652687 0.227234
H40   H     H_    0.562249 0.193095 0.698709 0.207384
H41   H     H_    0.663515 0.073738 0.713227 0.194618
C46   C     C_3   0.355273 0.850604 0.351102 -0.316353
C47   C     C_3   0.413025 0.849129 0.259715 -0.358775
C48   C     C_3   0.312127 0.835091 0.177877 -0.868179
H42   H     H_    0.255011 0.743108 0.185239 0.259469
H43   H     H_    0.249994 0.926035 0.171351 0.252873
H44   H     H_    0.356118 0.825189 0.114783 0.257282
H45   H     H_    0.469997 0.940776 0.250913 0.204494
H46   H     H_    0.481409 0.767412 0.255373 0.261205
H47   H     H_    0.328778 0.747622 0.369302 0.242190
H48   H     H_    0.261160 0.898694 0.341249 0.191320

loop_
_geom_bond_atom_site_label_1
_geom_bond_atom_site_label_2
_ccdc_geom_bond_type
C43   C44   S    
C37   C38   S    
C45   H35   S    
C6    C9    A    
C45   H37   S    
C29   C31   S    
C42   H28   S    
C40   H34   S    
C48   H43   S    
C17   H1    S    
C23   C29   A    
C3    C28   A    
C19   C21   A    
C24   C26   A    
C7    Br3   S    
C47   H45   S    
C11   C14   A    
C31   H12   S    
C46   H47   S    
C3    C29   A    
C13   N2    A    
C5    Br1   S    
C34   H19   S    
C14   N1    A    
C40   C41   S    
C23   C25   A    
C35   H18   S    
C34   C35   S    
Cu1   O7    S    
Cu2   O8    S    
C11   N2    A    
C41   H32   S    
C15   O8    A    
C16   O7    A    
C37   H26   S    
C47   C48   S    
C42   H29   S    
C15   C20   S    
C48   H44   S    
C8    Br4   S    
C38   C39   S    
C33   H7    S    
C17   C27   A    
C18   C28   A    
C41   C42   S    
C11   C37   S    
C16   O6    A    
C5    C7    A    
C6    C8    A    
C25   C26   A    
C32   H11   S    
C31   H13   S    
C12   C40   S    
C13   C43   S    
C35   C36   S    
C33   H8    S    
C36   H16   S    
C39   H21   S    
C34   H20   S    
C39   H22   S    
C1    O4    A    
Cu1   Cu2   S    
C44   H39   S    
C2    O3    A    
C30   C34   S    
C36   H15   S    
C32   C33   S    
Cu2   O4    S    
C44   C45   S    
C18   H2    S    
Cu1   O3    S    
C1    O1    A    
C4    H6    S    
C35   H17   S    
C38   H24   S    
C21   C23   A    
C22   C24   A    
C41   H31   S    
C15   O5    A    
C43   H40   S    
C37   H27   S    
C4    C27   A    
C40   H33   S    
C42   H30   S    
C6    Br2   S    
Cu1   O1    S    
Cu2   O6    S    
C1    C10   S    
C20   C22   A    
C43   H41   S    
C45   H36   S    
C21   H3    S    
C25   C27   A    
C22   H4    S    
C48   H42   S    
C26   C28   A    
C32   H10   S    
C33   H9    S    
C12   N1    A    
C5    C10   A    
C47   H46   S    
C14   C46   S    
C44   H38   S    
C2    O2    A    
C16   C19   S    
C17   C19   A    
Cu1   N1    S    
C18   C20   A    
Cu2   N2    S    
C36   H14   S    
C39   H23   S    
C24   C30   A    
C7    C9    A    
C12   C13   A    
C3    H5    S    
C8    C10   A    
C31   C32   S    
Cu1   O5    S    
C46   C47   S    
Cu2   O2    S    
C46   H48   S    
C38   H25   S    
C2    C9    S    
C4    C30   A    
