data_mof_unit_17727.cif
_audit_creation_date              2012-12-10T17:54:44-0500
_audit_creation_method            fapswitch 2.2
_symmetry_space_group_name_H-M    P1
_symmetry_Int_Tables_number       1
_space_group_crystal_system       triclinic
_cell_length_a                    21.740682
_cell_length_b                    21.740675
_cell_length_c                    30.028388
_cell_angle_alpha                 90.000409
_cell_angle_beta                  90.00033
_cell_angle_gamma                 90.000236
_cell_volume                      14193.1308383

loop_
_atom_site_label
_atom_site_type_symbol
_atom_type_description
_atom_site_fract_x
_atom_site_fract_y
_atom_site_fract_z
_atom_type_partial_charge
C1    C     C_R   0.500000 0.119592 0.499994 0.905529
C2    C     C_R   1.000000 0.499999 0.773234 0.025109
C3    C     C_R   0.956743 0.534970 0.842971 -0.247269
C4    C     C_R   0.534974 0.956744 0.157031 -0.247229
C5    C     C_R   0.043256 0.534973 0.157031 -0.247230
C6    C     C_R   0.465028 0.043257 0.157031 -0.247233
C7    C     C_R   0.956744 0.465026 0.157030 -0.247240
C8    C     C_R   0.034967 0.543261 0.342971 -0.247299
C9    C     C_R   0.543260 0.965032 0.342971 -0.247291
C10   C     C_R   0.965033 0.456739 0.342971 -0.247312
C11   C     C_R   0.456739 0.034966 0.342971 -0.247302
C12   C     C_R   0.034978 0.456748 0.657030 -0.247197
C13   C     C_R   0.500001 0.000000 0.226768 0.025150
C14   C     C_R   0.543253 0.034977 0.657031 -0.247207
C15   C     C_R   0.965023 0.543253 0.657031 -0.247202
C16   C     C_R   0.456747 0.965023 0.657030 -0.247202
C17   C     C_R   0.500000 1.000000 0.865573 -0.037516
C18   C     C_R   0.999999 0.499999 0.865573 -0.037516
C19   C     C_R   0.500001 0.000001 0.134429 -0.037491
C20   C     C_R   0.000000 0.499999 0.134429 -0.037491
C21   C     C_R   0.000000 0.500000 0.365573 -0.037529
C22   C     C_R   0.499999 0.999999 0.365573 -0.037528
C23   C     C_R   0.000001 0.500000 0.634428 -0.037476
C24   C     C_R   1.000000 0.500000 0.226768 0.025150
C25   C     C_R   0.500000 0.000000 0.634428 -0.037477
C26   C     C_R   0.462677 0.957284 0.796555 0.040809
C27   C     C_R   0.957284 0.537322 0.796555 0.040808
C28   C     C_R   0.537323 0.042716 0.796556 0.040806
C29   C     C_R   0.042715 0.462676 0.796555 0.040809
C30   C     C_R   0.462678 0.042717 0.203447 0.040807
C31   C     C_R   0.957284 0.462676 0.203446 0.040805
C32   C     C_R   0.537324 0.957284 0.203447 0.040810
C33   C     C_R   0.042716 0.537323 0.203447 0.040809
C34   C     C_R   0.962679 0.457282 0.296555 0.040793
C35   C     C_R   1.000000 0.500000 0.273234 0.025109
C36   C     C_R   0.457283 0.037320 0.296555 0.040794
C37   C     C_R   0.037320 0.542718 0.296555 0.040794
C38   C     C_R   0.542717 0.962679 0.296555 0.040797
C39   C     C_R   0.962675 0.542715 0.703447 0.040821
C40   C     C_R   0.457284 0.962675 0.703446 0.040820
C41   C     C_R   0.037325 0.457284 0.703446 0.040823
C42   C     C_R   0.542715 0.037325 0.703447 0.040821
C43   C     C_R   0.385339 0.870802 0.797415 0.139218
C44   C     C_R   0.414052 0.818390 0.815176 -0.173628
C45   C     C_R   0.379150 0.773451 0.836857 -0.148035
C46   C     C_R   0.500000 1.000000 0.273234 0.025109
C47   C     C_R   0.315451 0.780334 0.840605 -0.106897
C48   C     C_R   0.286662 0.832304 0.822859 -0.145762
C49   C     C_R   0.321419 0.877752 0.801637 -0.148699
C50   C     C_R   0.870800 0.614657 0.797416 0.139220
C51   C     C_R   0.818388 0.585943 0.815176 -0.173627
C52   C     C_R   0.773448 0.620842 0.836857 -0.148038
C53   C     C_R   0.780330 0.684542 0.840607 -0.106894
C54   C     C_R   0.832300 0.713333 0.822862 -0.145760
C55   C     C_R   0.877749 0.678577 0.801640 -0.148700
C56   C     C_R   0.614660 0.129199 0.797418 0.139218
C57   C     C_R   0.000000 0.499999 0.726768 0.025151
C58   C     C_R   0.585947 0.181610 0.815179 -0.173625
C59   C     C_R   0.620848 0.226550 0.836860 -0.148037
C60   C     C_R   0.684548 0.219668 0.840608 -0.106896
C61   C     C_R   0.713337 0.167698 0.822861 -0.145761
C62   C     C_R   0.678580 0.122250 0.801639 -0.148701
C63   C     C_R   0.129197 0.385338 0.797417 0.139216
C64   C     C_R   0.181607 0.414050 0.815181 -0.173633
C65   C     C_R   0.226545 0.379148 0.836863 -0.148036
C66   C     C_R   0.219663 0.315448 0.840608 -0.106897
C67   C     C_R   0.167694 0.286660 0.822858 -0.145762
C68   C     C_R   0.500000 0.000000 0.726768 0.025151
C69   C     C_R   0.122247 0.321418 0.801635 -0.148695
C70   C     C_R   0.385357 0.129219 0.202594 0.139232
C71   C     C_R   0.414088 0.181620 0.184831 -0.173548
C72   C     C_R   0.379198 0.226581 0.163164 -0.148021
C73   C     C_R   0.315492 0.219733 0.159435 -0.106924
C74   C     C_R   0.286686 0.167776 0.177186 -0.145802
C75   C     C_R   0.321431 0.122304 0.198390 -0.148689
C76   C     C_R   0.870780 0.385355 0.202593 0.139229
C77   C     C_R   0.818382 0.414086 0.184828 -0.173547
C78   C     C_R   0.773420 0.379196 0.163162 -0.148021
C79   C     C_R   0.422514 0.917500 0.773303 -0.075049
C80   C     C_R   0.780264 0.315490 0.159435 -0.106926
C81   C     C_R   0.832220 0.286683 0.177188 -0.145805
C82   C     C_R   0.877693 0.321429 0.198391 -0.148688
C83   C     C_R   0.614643 0.870780 0.202594 0.139226
C84   C     C_R   0.585911 0.818383 0.184825 -0.173554
C85   C     C_R   0.620800 0.773422 0.163159 -0.148019
C86   C     C_R   0.684507 0.780265 0.159435 -0.106928
C87   C     C_R   0.713315 0.832218 0.177190 -0.145804
C88   C     C_R   0.678570 0.877691 0.198395 -0.148682
C89   C     C_R   0.129218 0.614645 0.202595 0.139229
C90   C     C_R   0.917499 0.577484 0.773304 -0.075051
C91   C     C_R   0.181618 0.585916 0.184831 -0.173550
C92   C     C_R   0.226579 0.620806 0.163164 -0.148022
C93   C     C_R   0.219731 0.684512 0.159436 -0.106925
C94   C     C_R   0.167774 0.713318 0.177187 -0.145803
C95   C     C_R   0.122302 0.678571 0.198392 -0.148689
C96   C     C_R   0.885342 0.370801 0.297415 0.139257
C97   C     C_R   0.914050 0.318374 0.315156 -0.173580
C98   C     C_R   0.879150 0.273442 0.336845 -0.148046
C99   C     C_R   0.815456 0.280348 0.340623 -0.106865
C100  C     C_R   0.786672 0.332334 0.322897 -0.145727
C101  C     C_R   0.577485 0.082501 0.773305 -0.075047
C102  C     C_R   0.821428 0.377773 0.301664 -0.148765
C103  C     C_R   0.370800 0.114656 0.297415 0.139260
C104  C     C_R   0.318374 0.085946 0.315156 -0.173580
C105  C     C_R   0.273440 0.120844 0.336844 -0.148046
C106  C     C_R   0.280345 0.184538 0.340624 -0.106864
C107  C     C_R   0.332331 0.213324 0.322899 -0.145727
C108  C     C_R   0.377771 0.178570 0.301665 -0.148766
C109  C     C_R   0.114653 0.629204 0.297416 0.139255
C110  C     C_R   0.085939 0.681628 0.315158 -0.173578
C111  C     C_R   0.120835 0.726564 0.336847 -0.148046
C112  C     C_R   0.119592 0.500000 0.499994 0.905530
C113  C     C_R   0.082500 0.422514 0.773304 -0.075048
C114  C     C_R   0.184530 0.719665 0.340624 -0.106868
C115  C     C_R   0.213319 0.667682 0.322897 -0.145728
C116  C     C_R   0.178567 0.622239 0.301665 -0.148764
C117  C     C_R   0.629199 0.885343 0.297416 0.139254
C118  C     C_R   0.681624 0.914052 0.315161 -0.173586
C119  C     C_R   0.726556 0.879153 0.336850 -0.148046
C120  C     C_R   0.719652 0.815458 0.340626 -0.106865
C121  C     C_R   0.667668 0.786673 0.322898 -0.145727
C122  C     C_R   0.622229 0.821428 0.301663 -0.148761
C123  C     C_R   0.885355 0.629219 0.702594 0.139192
C124  C     C_R   0.422519 0.082504 0.226700 -0.075086
C125  C     C_R   0.914091 0.681604 0.684810 -0.173596
C126  C     C_R   0.879200 0.726572 0.663152 -0.148012
C127  C     C_R   0.815489 0.719750 0.659455 -0.106955
C128  C     C_R   0.786676 0.667810 0.677226 -0.145839
C129  C     C_R   0.821423 0.622328 0.698418 -0.148620
C130  C     C_R   0.370780 0.885355 0.702592 0.139191
C131  C     C_R   0.318396 0.914090 0.684807 -0.173596
C132  C     C_R   0.273428 0.879199 0.663149 -0.148012
C133  C     C_R   0.280249 0.815487 0.659452 -0.106957
C134  C     C_R   0.332189 0.786675 0.677225 -0.145838
C135  C     C_R   0.917496 0.422517 0.226699 -0.075083
C136  C     C_R   0.377671 0.821422 0.698418 -0.148622
C137  C     C_R   0.114646 0.370781 0.702593 0.139188
C138  C     C_R   0.085912 0.318399 0.684804 -0.173601
C139  C     C_R   0.120804 0.273432 0.663145 -0.148010
C140  C     C_R   0.184516 0.280254 0.659452 -0.106958
C141  C     C_R   0.213327 0.332192 0.677228 -0.145837
C142  C     C_R   0.178579 0.377672 0.698421 -0.148617
C143  C     C_R   0.629218 0.114648 0.702595 0.139192
C144  C     C_R   0.681603 0.085915 0.684810 -0.173597
C145  C     C_R   0.726570 0.120807 0.663152 -0.148011
C146  C     C_R   0.577482 0.917495 0.226700 -0.075085
C147  C     C_R   0.719746 0.184519 0.659455 -0.106956
C148  C     C_R   0.667805 0.213329 0.677228 -0.145838
C149  C     C_R   0.622324 0.178580 0.698420 -0.148621
C150  C     C_R   0.558101 0.182692 0.427297 0.132019
C151  C     C_R   0.525750 0.173861 0.387348 -0.189123
C152  C     C_R   0.555142 0.147455 0.350617 -0.127309
C153  C     C_R   0.616142 0.127775 0.354000 -0.096962
C154  C     C_R   0.648394 0.135898 0.393836 -0.146153
C155  C     C_R   0.619752 0.163946 0.430258 -0.089369
C156  C     C_R   0.182691 0.441900 0.427296 0.132023
C157  C     C_R   0.082503 0.577483 0.226701 -0.075085
C158  C     C_R   0.173858 0.474253 0.387348 -0.189129
C159  C     C_R   0.147454 0.444860 0.350616 -0.127307
C160  C     C_R   0.127778 0.383859 0.353997 -0.096960
C161  C     C_R   0.135903 0.351605 0.393833 -0.146155
C162  C     C_R   0.163950 0.380248 0.430255 -0.089371
C163  C     C_R   0.441903 0.817306 0.427295 0.132009
C164  C     C_R   0.474256 0.826130 0.387346 -0.189121
C165  C     C_R   0.444868 0.852537 0.350614 -0.127315
C166  C     C_R   0.383871 0.872224 0.353995 -0.096960
C167  C     C_R   0.351616 0.864108 0.393831 -0.146148
C168  C     C_R   0.922516 0.417498 0.273303 -0.075038
C169  C     C_R   0.380254 0.836059 0.430254 -0.089365
C170  C     C_R   0.817308 0.558105 0.427300 0.132035
C171  C     C_R   0.826148 0.525755 0.387351 -0.189130
C172  C     C_R   0.852553 0.555151 0.350622 -0.127306
C173  C     C_R   0.872222 0.616155 0.354006 -0.096959
C174  C     C_R   0.864089 0.648407 0.393842 -0.146159
C175  C     C_R   0.836042 0.619760 0.430261 -0.089369
C176  C     C_R   0.558004 0.817322 0.572736 0.131836
C177  C     C_R   0.525629 0.825993 0.612693 -0.188829
C178  C     C_R   0.554948 0.852407 0.649451 -0.127341
C179  C     C_R   0.417499 0.077483 0.273303 -0.075043
C180  C     C_R   0.615899 0.872245 0.646092 -0.097012
C181  C     C_R   0.648179 0.864271 0.606252 -0.146036
C182  C     C_R   0.619612 0.836218 0.569801 -0.089364
C183  C     C_R   0.182679 0.558002 0.572737 0.131823
C184  C     C_R   0.174015 0.525626 0.612695 -0.188822
C185  C     C_R   0.147599 0.554943 0.649454 -0.127346
C186  C     C_R   0.127754 0.615891 0.646094 -0.097014
C187  C     C_R   0.135720 0.648171 0.606253 -0.146031
C188  C     C_R   0.163775 0.619607 0.569802 -0.089362
C189  C     C_R   0.441993 0.182679 0.572734 0.131839
C190  C     C_R   0.077482 0.582503 0.273304 -0.075042
C191  C     C_R   0.474368 0.174006 0.612692 -0.188828
C192  C     C_R   0.445048 0.147591 0.649449 -0.127342
C193  C     C_R   0.384096 0.127755 0.646088 -0.097012
C194  C     C_R   0.351817 0.135731 0.606248 -0.146037
C195  C     C_R   0.380385 0.163785 0.569798 -0.089364
C196  C     C_R   0.817322 0.441995 0.572735 0.131829
C197  C     C_R   0.825989 0.474370 0.612694 -0.188823
C198  C     C_R   0.852405 0.445052 0.649452 -0.127342
C199  C     C_R   0.872247 0.384103 0.646091 -0.097016
C200  C     C_R   0.864277 0.351824 0.606250 -0.146034
C201  C     C_R   0.582502 0.922516 0.273303 -0.075044
C202  C     C_R   0.836222 0.380390 0.569799 -0.089363
C203  C     C_R   0.058072 0.682688 0.927288 0.131961
C204  C     C_R   0.025714 0.673905 0.887335 -0.189034
C205  C     C_R   0.055084 0.647496 0.850596 -0.127317
C206  C     C_R   0.116069 0.627768 0.853973 -0.096978
C207  C     C_R   0.148329 0.635846 0.893811 -0.146120
C208  C     C_R   0.119709 0.663896 0.930241 -0.089366
C209  C     C_R   0.682687 0.941923 0.927290 0.131978
C210  C     C_R   0.673895 0.974279 0.887338 -0.189041
C211  C     C_R   0.647488 0.944903 0.850600 -0.127312
C212  C     C_R   0.922517 0.582503 0.726700 -0.075095
C213  C     C_R   0.627772 0.883914 0.853977 -0.096977
C214  C     C_R   0.635859 0.851656 0.893815 -0.146126
C215  C     C_R   0.663907 0.880281 0.930244 -0.089369
C216  C     C_R   0.941924 0.317311 0.927289 0.131966
C217  C     C_R   0.974281 0.326095 0.887337 -0.189035
C218  C     C_R   0.944909 0.352504 0.850598 -0.127318
C219  C     C_R   0.883924 0.372230 0.853976 -0.096977
C220  C     C_R   0.851665 0.364150 0.893813 -0.146121
C221  C     C_R   0.880286 0.336100 0.930243 -0.089368
C222  C     C_R   0.317312 0.058073 0.927288 0.131968
C223  C     C_R   0.500000 0.880408 0.499994 0.905530
C224  C     C_R   0.417496 0.922517 0.726699 -0.075093
C225  C     C_R   0.326097 0.025715 0.887337 -0.189039
C226  C     C_R   0.352505 0.055087 0.850598 -0.127316
C227  C     C_R   0.372229 0.116073 0.853975 -0.096976
C228  C     C_R   0.364148 0.148333 0.893812 -0.146122
C229  C     C_R   0.336099 0.119712 0.930242 -0.089369
C230  C     C_R   0.058037 0.317318 0.072724 0.131901
C231  C     C_R   0.025671 0.326043 0.112679 -0.188921
C232  C     C_R   0.055015 0.352455 0.149428 -0.127329
C233  C     C_R   0.115983 0.372238 0.146061 -0.096997
C234  C     C_R   0.148253 0.364213 0.106222 -0.146073
C235  C     C_R   0.077483 0.417496 0.726700 -0.075095
C236  C     C_R   0.119660 0.336162 0.069781 -0.089368
C237  C     C_R   0.682684 0.058033 0.072726 0.131884
C238  C     C_R   0.673970 0.025664 0.112682 -0.188911
C239  C     C_R   0.647556 0.055003 0.149432 -0.127336
C240  C     C_R   0.627760 0.115966 0.146066 -0.096998
C241  C     C_R   0.635774 0.148238 0.106227 -0.146066
C242  C     C_R   0.663827 0.119651 0.069784 -0.089365
C243  C     C_R   0.941967 0.682683 0.072725 0.131893
C244  C     C_R   0.974336 0.673964 0.112680 -0.188917
C245  C     C_R   0.944995 0.647551 0.149430 -0.127334
C246  C     C_R   0.582504 0.077484 0.726700 -0.075093
C247  C     C_R   0.884029 0.627762 0.146063 -0.096996
C248  C     C_R   0.851757 0.635781 0.106224 -0.146070
C249  C     C_R   0.880346 0.663833 0.069783 -0.089364
C250  C     C_R   0.317318 0.941967 0.072725 0.131890
C251  C     C_R   0.326037 0.974334 0.112681 -0.188916
C252  C     C_R   0.352450 0.944993 0.149430 -0.127333
C253  C     C_R   0.372240 0.884027 0.146063 -0.096998
C254  C     C_R   0.364221 0.851756 0.106223 -0.146069
C255  C     C_R   0.336169 0.880346 0.069782 -0.089364
C256  C     C_R   0.562810 0.313222 0.428702 0.168364
C257  C     C_R   0.528938 0.216517 0.464818 -0.075001
C258  C     C_R   0.623477 0.333076 0.435136 -0.146408
C259  C     C_R   0.654076 0.365171 0.401470 -0.134797
C260  C     C_R   0.624201 0.377475 0.361175 -0.129605
C261  C     C_R   0.564213 0.356620 0.354214 -0.139795
C262  C     C_R   0.533722 0.324225 0.387757 -0.083469
C263  C     C_R   0.313221 0.437191 0.428701 0.168365
C264  C     C_R   0.333078 0.376525 0.435134 -0.146399
C265  C     C_R   0.365171 0.345928 0.401466 -0.134800
C266  C     C_R   0.377470 0.375802 0.361170 -0.129615
C267  C     C_R   0.356612 0.435790 0.354211 -0.139797
C268  C     C_R   0.216516 0.471063 0.464818 -0.075003
C269  C     C_R   0.324219 0.466280 0.387755 -0.083470
C270  C     C_R   0.437185 0.686777 0.428704 0.168364
C271  C     C_R   0.376515 0.666933 0.435137 -0.146420
C272  C     C_R   0.345912 0.634841 0.401472 -0.134811
C273  C     C_R   0.375784 0.622530 0.361177 -0.129615
C274  C     C_R   0.435776 0.643376 0.354216 -0.139793
C275  C     C_R   0.466272 0.675767 0.387759 -0.083457
C276  C     C_R   0.686778 0.562809 0.428702 0.168368
C277  C     C_R   0.666917 0.623473 0.435136 -0.146392
C278  C     C_R   0.634825 0.654071 0.401468 -0.134797
C279  C     C_R   0.471062 0.783483 0.464818 -0.074997
C280  C     C_R   0.622530 0.624198 0.361171 -0.129625
C281  C     C_R   0.643393 0.564212 0.354209 -0.139799
C282  C     C_R   0.675785 0.533722 0.387754 -0.083476
C283  C     C_R   0.562726 0.686815 0.571347 0.168421
C284  C     C_R   0.623553 0.667349 0.565092 -0.146642
C285  C     C_R   0.654124 0.635348 0.598818 -0.135459
C286  C     C_R   0.624075 0.622783 0.639003 -0.129763
C287  C     C_R   0.563924 0.643274 0.645793 -0.139688
C288  C     C_R   0.533455 0.675565 0.612187 -0.083183
C289  C     C_R   0.313187 0.562728 0.571346 0.168419
C290  C     C_R   0.783483 0.528938 0.464819 -0.075007
C291  C     C_R   0.332650 0.623555 0.565090 -0.146642
C292  C     C_R   0.364653 0.654128 0.598815 -0.135462
C293  C     C_R   0.377221 0.624080 0.639000 -0.129762
C294  C     C_R   0.356734 0.563928 0.645791 -0.139687
C295  C     C_R   0.324442 0.533457 0.612186 -0.083180
C296  C     C_R   0.437273 0.313186 0.571346 0.168422
C297  C     C_R   0.376447 0.332653 0.565090 -0.146639
C298  C     C_R   0.345876 0.364654 0.598817 -0.135457
C299  C     C_R   0.375925 0.377218 0.639002 -0.129766
C300  C     C_R   0.436076 0.356727 0.645793 -0.139688
C301  C     C_R   0.528922 0.783493 0.535181 -0.074886
C302  C     C_R   0.466545 0.324435 0.612187 -0.083185
C303  C     C_R   0.686814 0.437275 0.571347 0.168420
C304  C     C_R   0.667348 0.376447 0.565091 -0.146638
C305  C     C_R   0.635346 0.345877 0.598817 -0.135457
C306  C     C_R   0.622780 0.375926 0.639001 -0.129760
C307  C     C_R   0.643270 0.436078 0.645792 -0.139688
C308  C     C_R   0.675562 0.466547 0.612187 -0.083184
C309  C     C_R   0.062783 0.813211 0.928687 0.168383
C310  C     C_R   0.123498 0.832950 0.935067 -0.146475
C311  C     C_R   0.154086 0.865019 0.901383 -0.134991
C312  C     C_R   0.216508 0.528922 0.535181 -0.074884
C313  C     C_R   0.124158 0.877401 0.861121 -0.129650
C314  C     C_R   0.064122 0.856652 0.854211 -0.139761
C315  C     C_R   0.033639 0.824286 0.887773 -0.083384
C316  C     C_R   0.813211 0.937216 0.928686 0.168384
C317  C     C_R   0.832957 0.876505 0.935068 -0.146464
C318  C     C_R   0.865023 0.845916 0.901383 -0.134989
C319  C     C_R   0.877397 0.875841 0.861119 -0.129658
C320  C     C_R   0.856642 0.935875 0.854208 -0.139765
C321  C     C_R   0.824278 0.966358 0.887771 -0.083391
C322  C     C_R   0.937214 0.186787 0.928688 0.168380
C323  C     C_R   0.471077 0.216508 0.535181 -0.074888
C324  C     C_R   0.876500 0.167046 0.935069 -0.146476
C325  C     C_R   0.845911 0.134976 0.901385 -0.134988
C326  C     C_R   0.875837 0.122595 0.861123 -0.129648
C327  C     C_R   0.935873 0.143345 0.854212 -0.139763
C328  C     C_R   0.966356 0.175712 0.887774 -0.083384
C329  C     C_R   0.186788 0.062783 0.928687 0.168384
C330  C     C_R   0.167045 0.123496 0.935067 -0.146473
C331  C     C_R   0.134976 0.154084 0.901382 -0.134987
C332  C     C_R   0.122598 0.124155 0.861120 -0.129654
C333  C     C_R   0.143351 0.064120 0.854210 -0.139763
C334  C     C_R   0.880408 0.500000 0.499994 0.905529
C335  C     C_R   0.783492 0.471077 0.535181 -0.074885
C336  C     C_R   0.175717 0.033639 0.887772 -0.083386
C337  C     C_R   0.062751 0.186804 0.071333 0.168405
C338  C     C_R   0.123529 0.167219 0.065024 -0.146563
C339  C     C_R   0.154108 0.135192 0.098733 -0.135261
C340  C     C_R   0.124113 0.122710 0.138952 -0.129718
C341  C     C_R   0.064011 0.143312 0.145793 -0.139723
C342  C     C_R   0.033535 0.175632 0.112205 -0.083272
C343  C     C_R   0.813198 0.062753 0.071332 0.168402
C344  C     C_R   0.832773 0.123535 0.065024 -0.146577
C345  C     C_R   0.864802 0.154116 0.098733 -0.135269
C346  C     C_R   0.028933 0.716514 0.964818 -0.074968
C347  C     C_R   0.877293 0.124118 0.138950 -0.129716
C348  C     C_R   0.856701 0.064013 0.145789 -0.139719
C349  C     C_R   0.824380 0.033535 0.112202 -0.083261
C350  C     C_R   0.937247 0.813197 0.071332 0.168407
C351  C     C_R   0.876467 0.832775 0.065024 -0.146571
C352  C     C_R   0.845886 0.864800 0.098733 -0.135271
C353  C     C_R   0.875882 0.877287 0.138951 -0.129727
C354  C     C_R   0.935986 0.856692 0.145792 -0.139720
C355  C     C_R   0.966464 0.824373 0.112204 -0.083265
C356  C     C_R   0.186804 0.937250 0.071333 0.168407
C357  C     C_R   0.716514 0.971067 0.964819 -0.074973
C358  C     C_R   0.167220 0.876471 0.065023 -0.146562
C359  C     C_R   0.135193 0.845891 0.098731 -0.135264
C360  C     C_R   0.122709 0.875886 0.138950 -0.129721
C361  C     C_R   0.143310 0.935988 0.145792 -0.139720
C362  C     C_R   0.175629 0.966465 0.112205 -0.083273
C363  C     C_R   0.971065 0.283485 0.964819 -0.074968
C364  C     C_R   0.283486 0.028933 0.964819 -0.074970
C365  C     C_R   0.028927 0.283490 0.035181 -0.074924
C366  C     C_R   0.716511 0.028928 0.035181 -0.074918
C367  C     C_R   0.971073 0.716511 0.035181 -0.074921
C368  C     C_R   0.283490 0.971074 0.035181 -0.074922
C369  C     C_R   0.499999 0.185273 0.499994 -0.128116
C370  C     C_R   0.000000 0.619592 0.999998 0.905530
C371  C     C_R   0.185274 0.500002 0.499994 -0.128116
C372  C     C_R   0.500001 0.814726 0.499995 -0.128117
C373  C     C_R   0.814726 0.499998 0.499995 -0.128116
C374  C     C_R   1.000000 0.685273 0.999998 -0.128115
C375  C     C_R   0.685273 0.000001 0.999998 -0.128116
C376  C     C_R   1.000000 0.314726 0.999998 -0.128116
C377  C     C_R   0.314726 0.999999 0.999998 -0.128115
C378  C     C_R   0.500000 1.000000 0.586657 0.908367
C379  C     C_R   0.000000 0.500000 0.586657 0.908367
C380  C     C_R   0.500000 1.000000 0.413344 0.908351
C381  C     C_R   0.619592 0.000000 0.999998 0.905527
C382  C     C_R   0.000000 0.500000 0.413344 0.908350
C383  C     C_R   0.000000 0.500000 0.086657 0.908357
C384  C     C_R   0.500000 0.000000 0.086657 0.908359
C385  C     C_R   1.000000 0.500000 0.913344 0.908357
C386  C     C_R   0.500000 1.000000 0.913344 0.908355
C387  C     C_R   0.529525 0.280604 0.464921 -0.068752
C388  C     C_R   0.280604 0.470475 0.464921 -0.068751
C389  C     C_R   0.470474 0.719395 0.464921 -0.068752
C390  C     C_R   0.719395 0.529525 0.464922 -0.068753
C391  C     C_R   0.529500 0.719407 0.535090 -0.068821
C392  C     C_R   1.000000 0.380408 0.999998 0.905527
C393  C     C_R   0.280594 0.529499 0.535090 -0.068817
C394  C     C_R   0.470500 0.280594 0.535089 -0.068820
C395  C     C_R   0.719406 0.470501 0.535090 -0.068818
C396  C     C_R   0.029516 0.780601 0.964917 -0.068772
C397  C     C_R   0.780601 0.970483 0.964918 -0.068774
C398  C     C_R   0.970481 0.219398 0.964918 -0.068771
C399  C     C_R   0.219399 0.029517 0.964918 -0.068771
C400  C     C_R   0.029507 0.219403 0.035087 -0.068800
C401  C     C_R   0.780597 0.029508 0.035087 -0.068798
C402  C     C_R   0.970492 0.780597 0.035086 -0.068801
C403  C     C_R   0.380408 1.000000 0.999998 0.905530
C404  C     C_R   0.219403 0.970494 0.035087 -0.068799
C405  C     C_R   0.500007 0.312701 0.500005 -0.150966
C406  C     C_R   0.312701 0.499992 0.500006 -0.150964
C407  C     C_R   0.499992 0.687299 0.500006 -0.150968
C408  C     C_R   0.687299 0.500008 0.500006 -0.150965
C409  C     C_R   0.000002 0.812701 0.000002 -0.150967
C410  C     C_R   0.812701 0.999997 0.000002 -0.150963
C411  C     C_R   0.999997 0.187299 0.000002 -0.150963
C412  C     C_R   0.187299 0.000004 0.000003 -0.150966
C413  C     C_R   0.379510 0.500004 0.500001 0.882233
C414  C     C_R   0.500000 0.000000 0.773234 0.025109
C415  C     C_R   0.500004 0.620490 0.500001 0.882232
C416  C     C_R   0.620490 0.499996 0.500001 0.882230
C417  C     C_R   0.499995 0.379510 0.500001 0.882231
C418  C     C_R   0.879510 0.000002 0.000000 0.882231
C419  C     C_R   0.000002 0.120490 0.000001 0.882230
C420  C     C_R   0.120490 0.999999 0.000001 0.882229
C421  C     C_R   0.999997 0.879510 0.000000 0.882230
C422  C     C_R   0.534972 0.043256 0.842971 -0.247281
C423  C     C_R   0.043256 0.465027 0.842971 -0.247277
C424  C     C_R   0.465029 0.956743 0.842971 -0.247273
H1    H     H_    0.562696 0.074973 0.862209 0.163678
H2    H     H_    0.574980 0.937312 0.362208 0.163685
H3    H     H_    0.695828 0.121187 0.396304 0.112401
H4    H     H_    0.645564 0.171456 0.460625 0.116243
H5    H     H_    0.188824 0.521598 0.384359 0.124328
H6    H     H_    0.142299 0.469345 0.319486 0.136702
H7    H     H_    0.106641 0.361487 0.325663 0.118313
H8    H     H_    0.121195 0.304171 0.396299 0.112402
H9    H     H_    0.171462 0.354435 0.460621 0.116242
H10   H     H_    0.521598 0.811155 0.384357 0.124332
H11   H     H_    0.469353 0.857685 0.319483 0.136698
H12   H     H_    0.361502 0.893362 0.325660 0.118315
H13   H     H_    0.937314 0.425018 0.362207 0.163684
H14   H     H_    0.304185 0.878825 0.396297 0.112402
H15   H     H_    0.354441 0.828555 0.460620 0.116247
H16   H     H_    0.811187 0.478409 0.384360 0.124329
H17   H     H_    0.857713 0.530669 0.319491 0.136706
H18   H     H_    0.893358 0.638530 0.325673 0.118308
H19   H     H_    0.878791 0.695842 0.396309 0.112401
H20   H     H_    0.828524 0.645571 0.460627 0.116236
H21   H     H_    0.478323 0.810899 0.615666 0.124355
H22   H     H_    0.530444 0.857450 0.680583 0.136638
H23   H     H_    0.638213 0.893390 0.674447 0.118358
H24   H     H_    0.425019 0.062687 0.362208 0.163684
H25   H     H_    0.695576 0.879102 0.603803 0.112400
H26   H     H_    0.645449 0.828822 0.539431 0.116309
H27   H     H_    0.189116 0.478322 0.615668 0.124355
H28   H     H_    0.142562 0.530437 0.680585 0.136635
H29   H     H_    0.106607 0.638202 0.674450 0.118360
H30   H     H_    0.120882 0.695566 0.603804 0.112400
H31   H     H_    0.171166 0.645444 0.539432 0.116314
H32   H     H_    0.521675 0.189100 0.615666 0.124355
H33   H     H_    0.469552 0.142547 0.680581 0.136639
H34   H     H_    0.361781 0.106610 0.674442 0.118357
H35   H     H_    0.062708 0.425037 0.637793 0.163660
H36   H     H_    0.304420 0.120901 0.603798 0.112400
H37   H     H_    0.354549 0.171182 0.539428 0.116307
H38   H     H_    0.810891 0.521675 0.615668 0.124354
H39   H     H_    0.857445 0.469557 0.680584 0.136636
H40   H     H_    0.893394 0.361790 0.674446 0.118359
H41   H     H_    0.879112 0.304428 0.603800 0.112400
H42   H     H_    0.828829 0.354553 0.539429 0.116312
H43   H     H_    0.978381 0.688913 0.884349 0.124340
H44   H     H_    0.030595 0.642377 0.819465 0.136682
H45   H     H_    0.138424 0.606628 0.825633 0.118326
H46   H     H_    0.574964 0.062708 0.637794 0.163659
H47   H     H_    0.195751 0.621098 0.896273 0.112401
H48   H     H_    0.145528 0.671371 0.960609 0.116264
H49   H     H_    0.688894 0.021614 0.884352 0.124339
H50   H     H_    0.642362 0.969391 0.819469 0.136687
H51   H     H_    0.606634 0.861556 0.825638 0.118323
H52   H     H_    0.621121 0.804231 0.896277 0.112401
H53   H     H_    0.671391 0.854464 0.960611 0.116256
H54   H     H_    0.021614 0.311089 0.884351 0.124341
H55   H     H_    0.969398 0.357625 0.819467 0.136684
H56   H     H_    0.861568 0.393370 0.825636 0.118326
H57   H     H_    0.937293 0.574964 0.637794 0.163659
H58   H     H_    0.804242 0.378897 0.896276 0.112401
H59   H     H_    0.854468 0.328624 0.960611 0.116262
H60   H     H_    0.311094 0.978381 0.884351 0.124341
H61   H     H_    0.357627 0.030597 0.819467 0.136684
H62   H     H_    0.393368 0.138429 0.825635 0.118326
H63   H     H_    0.378892 0.195757 0.896274 0.112401
H64   H     H_    0.328620 0.145531 0.960609 0.116261
H65   H     H_    0.978352 0.310991 0.115658 0.124343
H66   H     H_    0.030518 0.357535 0.180559 0.136658
H67   H     H_    0.138317 0.393381 0.174409 0.118342
H68   H     H_    0.425036 0.937292 0.637793 0.163659
H69   H     H_    0.195663 0.379003 0.103767 0.112400
H70   H     H_    0.145488 0.328727 0.039412 0.116285
H71   H     H_    0.689031 0.978348 0.115660 0.124344
H72   H     H_    0.642484 0.030504 0.180563 0.136655
H73   H     H_    0.606616 0.138296 0.174415 0.118347
H74   H     H_    0.620974 0.195645 0.103772 0.112401
H75   H     H_    0.671253 0.145481 0.039415 0.116292
H76   H     H_    0.021653 0.689021 0.115659 0.124344
H77   H     H_    0.969494 0.642475 0.180561 0.136656
H78   H     H_    0.861698 0.606618 0.174412 0.118345
H79   H     H_    0.463321 0.812363 0.812027 0.122773
H80   H     H_    0.804349 0.620985 0.103770 0.112401
H81   H     H_    0.854516 0.671263 0.039414 0.116288
H82   H     H_    0.310980 0.021651 0.115660 0.124344
H83   H     H_    0.357527 0.969491 0.180562 0.136655
H84   H     H_    0.393385 0.861696 0.174411 0.118343
H85   H     H_    0.379017 0.804349 0.103768 0.112400
H86   H     H_    0.328738 0.854517 0.039413 0.116289
H87   H     H_    0.646996 0.323257 0.465962 0.100476
H88   H     H_    0.700920 0.380445 0.406653 0.122058
H89   H     H_    0.647604 0.402799 0.335189 0.105424
H90   H     H_    0.401427 0.733121 0.850502 0.120393
H91   H     H_    0.541346 0.365536 0.322857 0.111845
H92   H     H_    0.487571 0.307757 0.381978 0.103517
H93   H     H_    0.323263 0.353007 0.465960 0.100473
H94   H     H_    0.380447 0.299084 0.406648 0.122054
H95   H     H_    0.402792 0.352400 0.335184 0.105427
H96   H     H_    0.365524 0.458657 0.322853 0.111847
H97   H     H_    0.307749 0.512430 0.381977 0.103525
H98   H     H_    0.352998 0.676758 0.465963 0.100483
H99   H     H_    0.299066 0.619574 0.406654 0.122065
H100  H     H_    0.352377 0.597210 0.335191 0.105425
H101  H     H_    0.288359 0.745314 0.857098 0.121928
H102  H     H_    0.458641 0.634455 0.322859 0.111846
H103  H     H_    0.512424 0.692228 0.381980 0.103520
H104  H     H_    0.676728 0.646990 0.465964 0.100469
H105  H     H_    0.619546 0.700913 0.406651 0.122054
H106  H     H_    0.597209 0.647601 0.335184 0.105427
H107  H     H_    0.634484 0.541347 0.322850 0.111848
H108  H     H_    0.692259 0.487574 0.381975 0.103515
H109  H     H_    0.647227 0.677424 0.534371 0.100588
H110  H     H_    0.701087 0.620354 0.593771 0.122122
H111  H     H_    0.647466 0.597538 0.665034 0.105459
H112  H     H_    0.074972 0.437303 0.862209 0.163680
H113  H     H_    0.237372 0.837065 0.825256 0.133212
H114  H     H_    0.540918 0.634162 0.677067 0.111751
H115  H     H_    0.487183 0.691773 0.617834 0.103862
H116  H     H_    0.322573 0.647228 0.534369 0.100594
H117  H     H_    0.379645 0.701091 0.593768 0.122125
H118  H     H_    0.402467 0.647472 0.665031 0.105458
H119  H     H_    0.365849 0.540923 0.677065 0.111750
H120  H     H_    0.308236 0.487184 0.617834 0.103861
H121  H     H_    0.352773 0.322579 0.534368 0.100588
H122  H     H_    0.298914 0.379649 0.593769 0.122123
H123  H     H_    0.352534 0.402463 0.665034 0.105458
H124  H     H_    0.298610 0.917896 0.788089 0.118744
H125  H     H_    0.459081 0.365838 0.677067 0.111750
H126  H     H_    0.512816 0.308227 0.617835 0.103859
H127  H     H_    0.677424 0.352773 0.534370 0.100590
H128  H     H_    0.620352 0.298914 0.593769 0.122123
H129  H     H_    0.597533 0.352536 0.665032 0.105458
H130  H     H_    0.634156 0.459084 0.677065 0.111751
H131  H     H_    0.691769 0.512819 0.617834 0.103860
H132  H     H_    0.147064 0.823055 0.965862 0.100508
H133  H     H_    0.200966 0.880211 0.906525 0.122077
H134  H     H_    0.147556 0.902703 0.835122 0.105433
H135  H     H_    0.812362 0.536673 0.812026 0.122772
H136  H     H_    0.041212 0.865626 0.822879 0.111819
H137  H     H_    0.987453 0.807894 0.882033 0.103612
H138  H     H_    0.823068 0.852941 0.965864 0.100503
H139  H     H_    0.880219 0.799038 0.906525 0.122073
H140  H     H_    0.902697 0.852444 0.835119 0.105436
H141  H     H_    0.865609 0.958783 0.822874 0.111821
H142  H     H_    0.807880 0.012542 0.882030 0.103614
H143  H     H_    0.852935 0.176940 0.965864 0.100510
H144  H     H_    0.799032 0.119783 0.906528 0.122079
H145  H     H_    0.852439 0.097292 0.835124 0.105433
H146  H     H_    0.733118 0.598564 0.850501 0.120393
H147  H     H_    0.958781 0.134372 0.822880 0.111819
H148  H     H_    0.012542 0.192106 0.882033 0.103614
H149  H     H_    0.176937 0.147062 0.965862 0.100505
H150  H     H_    0.119782 0.200962 0.906525 0.122076
H151  H     H_    0.097296 0.147552 0.835120 0.105434
H152  H     H_    0.134380 0.041211 0.822877 0.111819
H153  H     H_    0.192112 0.987454 0.882032 0.103614
H154  H     H_    0.147156 0.177214 0.034271 0.100551
H155  H     H_    0.201035 0.120112 0.093645 0.122097
H156  H     H_    0.147508 0.097444 0.164971 0.105450
H157  H     H_    0.745310 0.711632 0.857101 0.121925
H158  H     H_    0.041047 0.134263 0.177093 0.111779
H159  H     H_    0.987300 0.191920 0.117892 0.103760
H160  H     H_    0.822770 0.147163 0.034273 0.100559
H161  H     H_    0.879875 0.201045 0.093646 0.122104
H162  H     H_    0.902561 0.147515 0.164967 0.105449
H163  H     H_    0.865758 0.041049 0.177087 0.111777
H164  H     H_    0.808100 0.987298 0.117888 0.103764
H165  H     H_    0.852839 0.822774 0.034271 0.100554
H166  H     H_    0.798957 0.879875 0.093646 0.122103
H167  H     H_    0.852485 0.902552 0.164970 0.105450
H168  H     H_    0.837062 0.762623 0.825262 0.133213
H169  H     H_    0.958949 0.865745 0.177091 0.111778
H170  H     H_    0.012700 0.808090 0.117890 0.103758
H171  H     H_    0.177217 0.852845 0.034269 0.100553
H172  H     H_    0.120114 0.798964 0.093642 0.122099
H173  H     H_    0.097443 0.852490 0.164968 0.105449
H174  H     H_    0.134259 0.958951 0.177092 0.111779
H175  H     H_    0.191916 0.012701 0.117893 0.103755
H176  H     H_    0.917894 0.701387 0.788093 0.118743
H177  H     H_    0.536678 0.187636 0.812031 0.122773
H178  H     H_    0.598571 0.266879 0.850506 0.120393
H179  H     H_    0.711639 0.254688 0.857102 0.121927
H180  H     H_    0.437304 0.925027 0.862208 0.163679
H181  H     H_    0.762627 0.162938 0.825259 0.133215
H182  H     H_    0.701389 0.082106 0.788091 0.118744
H183  H     H_    0.187633 0.463320 0.812035 0.122774
H184  H     H_    0.266873 0.401425 0.850511 0.120393
H185  H     H_    0.254681 0.288357 0.857102 0.121928
H186  H     H_    0.162933 0.237369 0.825254 0.133212
H187  H     H_    0.082104 0.298609 0.788085 0.118745
H188  H     H_    0.463362 0.187621 0.187967 0.122761
H189  H     H_    0.401489 0.266901 0.149516 0.120387
H190  H     H_    0.288411 0.254771 0.142954 0.121919
H191  H     H_    0.925026 0.562694 0.862209 0.163680
H192  H     H_    0.237391 0.163042 0.174805 0.133191
H193  H     H_    0.298608 0.082170 0.211941 0.118723
H194  H     H_    0.812382 0.463360 0.187963 0.122763
H195  H     H_    0.733100 0.401488 0.149512 0.120387
H196  H     H_    0.745225 0.288408 0.142955 0.121920
H197  H     H_    0.836951 0.237388 0.174810 0.133194
H198  H     H_    0.917827 0.298605 0.211944 0.118725
H199  H     H_    0.536637 0.812385 0.187958 0.122765
H200  H     H_    0.598508 0.733104 0.149507 0.120387
H201  H     H_    0.711588 0.745226 0.142954 0.121919
H202  H     H_    0.562700 0.925029 0.137794 0.163665
H203  H     H_    0.762611 0.836948 0.174814 0.133192
H204  H     H_    0.701395 0.917822 0.211950 0.118725
H205  H     H_    0.187620 0.536642 0.187967 0.122763
H206  H     H_    0.266899 0.598515 0.149516 0.120388
H207  H     H_    0.254769 0.711594 0.142956 0.121920
H208  H     H_    0.163040 0.762612 0.174808 0.133191
H209  H     H_    0.082168 0.701394 0.211943 0.118725
H210  H     H_    0.963315 0.312332 0.311987 0.122756
H211  H     H_    0.901423 0.233100 0.350476 0.120391
H212  H     H_    0.788366 0.245335 0.357125 0.121922
H213  H     H_    0.074972 0.562699 0.137795 0.163664
H214  H     H_    0.737386 0.337116 0.325322 0.133227
H215  H     H_    0.798624 0.417930 0.288132 0.118729
H216  H     H_    0.312333 0.036681 0.311986 0.122755
H217  H     H_    0.233099 0.098569 0.350474 0.120391
H218  H     H_    0.245331 0.211627 0.357125 0.121920
H219  H     H_    0.337112 0.262610 0.325325 0.133227
H220  H     H_    0.417928 0.201376 0.288134 0.118726
H221  H     H_    0.036674 0.687665 0.311990 0.122758
H222  H     H_    0.098558 0.766903 0.350477 0.120392
H223  H     H_    0.211617 0.754682 0.357125 0.121920
H224  H     H_    0.437302 0.074973 0.137794 0.163665
H225  H     H_    0.262606 0.662906 0.325321 0.133231
H226  H     H_    0.201376 0.582084 0.288132 0.118729
H227  H     H_    0.687664 0.963317 0.311993 0.122757
H228  H     H_    0.766896 0.901428 0.350483 0.120392
H229  H     H_    0.754664 0.788369 0.357129 0.121921
H230  H     H_    0.662887 0.737387 0.325321 0.133228
H231  H     H_    0.582074 0.798623 0.288129 0.118728
H232  H     H_    0.963369 0.687588 0.687925 0.122779
H233  H     H_    0.901496 0.766880 0.649489 0.120389
H234  H     H_    0.788406 0.754796 0.642983 0.121924
H235  H     H_    0.925028 0.437299 0.137793 0.163663
H236  H     H_    0.737377 0.663098 0.674874 0.133177
H237  H     H_    0.798594 0.582207 0.711986 0.118739
H238  H     H_    0.312412 0.963368 0.687922 0.122780
H239  H     H_    0.233120 0.901494 0.649484 0.120389
H240  H     H_    0.245204 0.788404 0.642980 0.121925
H241  H     H_    0.336900 0.737376 0.674873 0.133179
H242  H     H_    0.417791 0.798594 0.711986 0.118740
H243  H     H_    0.036633 0.312415 0.687916 0.122781
H244  H     H_    0.098509 0.233125 0.649478 0.120389
H245  H     H_    0.211600 0.245210 0.642979 0.121925
H246  H     H_    0.062687 0.574982 0.362208 0.163684
H247  H     H_    0.262627 0.336904 0.674879 0.133176
H248  H     H_    0.201407 0.417791 0.711993 0.118740
H249  H     H_    0.687589 0.036636 0.687924 0.122779
H250  H     H_    0.766878 0.098514 0.649487 0.120389
H251  H     H_    0.754790 0.211603 0.642983 0.121926
H252  H     H_    0.663091 0.262628 0.674876 0.133176
H253  H     H_    0.582203 0.201407 0.711988 0.118740
H254  H     H_    0.478406 0.188830 0.384357 0.124329
H255  H     H_    0.530659 0.142302 0.319486 0.136700
H256  H     H_    0.638514 0.106637 0.325666 0.118312
O1    O     O_R   0.448270 0.091530 0.499990 -0.628886
O2    O     O_R   0.591530 0.051730 0.999990 -0.628856
O3    O     O_R   0.051730 0.408470 0.999990 -0.628848
O4    O     O_R   0.408470 0.948270 0.999990 -0.628853
O5    O     O_R   0.948270 0.408470 0.000010 -0.628804
O6    O     O_R   0.591530 0.948270 0.000010 -0.628798
O7    O     O_R   0.051730 0.591530 0.000010 -0.628806
O8    O     O_R   0.408470 0.051730 0.000010 -0.628802
O9    O     O_R   0.448270 0.999890 0.566070 -0.623598
O10   O     O_R   0.999890 0.551730 0.566070 -0.623601
O11   O     O_R   0.551730 0.000110 0.566070 -0.623599
O12   O     O_R   0.091530 0.551730 0.499990 -0.628894
O13   O     O_R   0.000110 0.448270 0.566070 -0.623600
O14   O     O_R   0.448270 0.000110 0.433930 -0.623576
O15   O     O_R   0.999890 0.448270 0.433930 -0.623574
O16   O     O_R   0.551730 0.999890 0.433930 -0.623574
O17   O     O_R   0.000110 0.551730 0.433930 -0.623572
O18   O     O_R   0.948270 0.499890 0.066070 -0.623591
O19   O     O_R   0.499890 0.051730 0.066070 -0.623592
O20   O     O_R   0.051730 0.500110 0.066070 -0.623589
O21   O     O_R   0.500110 0.948270 0.066070 -0.623590
O22   O     O_R   0.948270 0.500110 0.933930 -0.623581
O23   O     O_R   0.551730 0.908470 0.499990 -0.628887
O24   O     O_R   0.499890 0.948270 0.933930 -0.623580
O25   O     O_R   0.051730 0.499890 0.933930 -0.623582
O26   O     O_R   0.500110 0.051730 0.933930 -0.623581
O27   O     O_R   0.408290 0.499920 0.462700 -0.609762
O28   O     O_R   0.499920 0.591710 0.462700 -0.609770
O29   O     O_R   0.591710 0.500080 0.462700 -0.609762
O30   O     O_R   0.500080 0.408290 0.462700 -0.609764
O31   O     O_R   0.408290 0.500080 0.537300 -0.609952
O32   O     O_R   0.499920 0.408290 0.537300 -0.609949
O33   O     O_R   0.591710 0.499920 0.537300 -0.609950
O34   O     O_R   0.908470 0.448270 0.499990 -0.628892
O35   O     O_R   0.500080 0.591710 0.537300 -0.609948
O36   O     O_R   0.908290 0.999920 0.962700 -0.609815
O37   O     O_R   0.999920 0.091710 0.962700 -0.609819
O38   O     O_R   0.091710 0.000080 0.962700 -0.609816
O39   O     O_R   0.000080 0.908290 0.962700 -0.609818
O40   O     O_R   0.908290 0.000080 0.037300 -0.609898
O41   O     O_R   0.999920 0.908290 0.037300 -0.609896
O42   O     O_R   0.091710 0.999920 0.037300 -0.609895
O43   O     O_R   0.000080 0.091710 0.037300 -0.609893
O44   O     O_R   0.448270 0.908470 0.500010 -0.628772
O45   O     O_R   0.091530 0.448270 0.500010 -0.628766
O46   O     O_R   0.551730 0.091530 0.500010 -0.628768
O47   O     O_R   0.908470 0.551730 0.500010 -0.628762
O48   O     O_R   0.948270 0.591530 0.999990 -0.628851
Zn1   Zn    Zn3+2 0.430930 0.000000 0.500000 0.941066
Zn2   Zn    Zn3+2 0.500000 0.500000 0.549800 0.995805
Zn3   Zn    Zn3+2 0.000000 0.000000 0.950200 0.996075
Zn4   Zn    Zn3+2 0.000000 0.000000 0.049800 0.995917
Zn5   Zn    Zn3+2 0.000000 0.569070 0.500000 0.941071
Zn6   Zn    Zn3+2 0.569070 0.000000 0.500000 0.941069
Zn7   Zn    Zn3+2 0.000000 0.430930 0.500000 0.941067
Zn8   Zn    Zn3+2 0.930930 0.500000 0.000000 0.941071
Zn9   Zn    Zn3+2 0.500000 0.069070 0.000000 0.941068
Zn10  Zn    Zn3+2 0.069070 0.500000 0.000000 0.941072
Zn11  Zn    Zn3+2 0.500000 0.930930 0.000000 0.941075
Zn12  Zn    Zn3+2 0.500000 0.500000 0.450200 0.996179

loop_
_geom_bond_atom_site_label_1
_geom_bond_atom_site_label_2
_ccdc_geom_bond_type
C350  C402  S    
C322  C324  A    
C408  C416  S    
C126  C127  A    
C96   C102  A    
O32   Zn2   S    
C118  C119  A    
C158  H5    S    
C415  O35   A    
C291  C292  A    
C274  H102  S    
C342  H159  S    
C194  H36   S    
C258  H87   S    
C207  H47   S    
C242  H75   S    
C220  H58   S    
C79   C224  A    
C231  H65   S    
C280  H106  S    
C248  C249  A    
C176  C182  A    
C421  O39   A    
C12   C23   A    
C237  C242  A    
C2    C29   A    
C100  H214  S    
C206  H45   S    
C284  C285  A    
C56   C101  S    
C146  C201  A    
C256  C262  A    
C160  H7    S    
C60   H179  S    
C134  H241  S    
C106  C107  A    
C271  C272  A    
C261  H91   S    
C244  C245  A    
C27   C90   A    
C274  C275  A    
C217  H54   S    
C259  H88   S    
C220  C221  A    
C230  C365  S    
C6    H224  S    
O46   Zn6   S    
C418  O40   A    
C238  C239  A    
C199  C200  A    
C50   C90   S    
C185  C186  A    
C334  O34   A    
C222  C229  A    
C324  C325  A    
C389  C407  A    
C345  H161  S    
C135  C168  A    
C96   C168  S    
C230  C236  A    
C326  C327  A    
C398  C411  A    
C137  C235  S    
C330  H149  S    
C249  H81   S    
C193  C194  A    
C396  C409  A    
C112  O12   A    
C83   C88   A    
C137  C138  A    
C59   C60   A    
C209  C357  S    
C385  O22   A    
C243  C367  S    
C344  H160  S    
O21   Zn11  S    
C36   C179  A    
C234  C236  A    
C101  C246  A    
C232  H66   S    
C228  C229  A    
O30   Zn12  S    
C154  H3    S    
C337  C338  A    
C7    H235  S    
C45   C47   A    
C10   C21   A    
C330  C331  A    
C279  C389  A    
O11   Zn6   S    
C51   C52   A    
C13   C30   A    
C317  H138  S    
C149  H253  S    
C340  C341  A    
C142  H248  S    
C10   H13   S    
C206  C207  A    
C144  C145  A    
C49   H124  S    
C203  C346  S    
C257  C387  A    
C314  C315  A    
C181  C182  A    
C368  C404  A    
C316  C317  A    
C376  C392  S    
C88   H204  S    
C43   C44   A    
O48   Zn8   S    
C129  H237  S    
C97   H210  S    
C245  H77   S    
C303  C304  A    
O35   Zn2   S    
C223  O23   A    
C139  C140  A    
C352  C353  A    
C306  C307  A    
C309  C310  A    
C148  C149  A    
C363  C398  A    
C15   C39   A    
C154  C155  A    
C370  C374  S    
C210  H49   S    
C16   C40   A    
C375  C381  S    
C296  C297  A    
C6    C30   A    
C158  C159  A    
C178  H22   S    
C56   C62   A    
C167  H14   S    
C405  C417  S    
C298  C299  A    
C16   H68   S    
C239  H72   S    
C310  H132  S    
C341  H158  S    
C14   H46   S    
C333  C336  A    
C16   C25   A    
C29   C113  A    
C77   H194  S    
C283  C288  A    
C128  H236  S    
C120  H229  S    
C26   C79   A    
C420  O42   A    
C72   C73   A    
C159  H6    S    
C293  H118  S    
C351  H165  S    
C275  H103  S    
C192  H33   S    
C111  H222  S    
C89   C157  S    
C295  H120  S    
C306  H129  S    
C151  H254  S    
C25   C378  S    
C189  C323  S    
C352  H166  S    
C223  C372  S    
C400  C411  A    
C156  C158  A    
C130  C131  A    
C21   C382  S    
C208  H48   S    
C147  H251  S    
C183  C188  A    
O45   Zn7   S    
C399  C412  A    
C163  C279  S    
C139  H244  S    
C379  O10   A    
C1    O1    A    
C348  C349  A    
C329  C336  A    
C386  O24   A    
C350  C351  A    
C173  H18   S    
C63   C113  S    
C70   C124  S    
C171  H16   S    
C143  C149  A    
C200  C202  A    
C98   C99   A    
C319  H140  S    
O2    Zn9   S    
C5    H213  S    
C359  C360  A    
C110  H221  S    
C368  C377  A    
C93   H207  S    
C188  H31   S    
C67   C69   A    
C186  C187  A    
O5    Zn8   S    
C314  H136  S    
C193  H34   S    
C143  C144  A    
C252  C253  A    
C138  H243  S    
O40   Zn4   S    
C335  C395  A    
C137  C142  A    
C309  C396  S    
C47   H101  S    
C13   C32   A    
C147  C148  A    
C392  O3    A    
C279  C372  A    
C271  H98   S    
C53   H157  S    
C128  C129  A    
C383  O20   A    
C309  C315  A    
C2    C57   A    
C284  H109  S    
C167  C169  A    
C5    C20   A    
C85   C86   A    
C403  O4    A    
O16   Zn6   S    
C381  O2    A    
C233  H67   S    
C286  H111  S    
C209  C215  A    
C276  C282  A    
O27   Zn12  S    
C340  H156  S    
C86   H201  S    
O26   Zn9   S    
C256  C258  A    
O25   Zn10  S    
C34   C35   A    
C273  H100  S    
C159  C160  A    
C261  C262  A    
C354  H169  S    
C61   H181  S    
C72   H189  S    
C185  H28   S    
C115  C116  A    
C184  C185  A    
C251  H82   S    
C241  C242  A    
C189  C191  A    
C174  C175  A    
C92   C93   A    
C110  C111  A    
C357  C397  A    
C382  O17   A    
C322  C328  A    
C99   C100  A    
C264  C265  A    
C296  C394  S    
C107  C108  A    
C377  C403  S    
C36   C46   A    
C252  H83   S    
C233  C234  A    
C103  C179  S    
C337  C342  A    
C417  O32   A    
C278  H105  S    
C268  C371  A    
C95   H209  S    
C290  C373  A    
C66   C67   A    
C390  C408  A    
C379  O13   A    
C420  O38   A    
C277  C278  A    
C421  O41   A    
C378  O11   A    
C133  H240  S    
C358  C359  A    
C223  O44   A    
C204  H43   S    
C100  C102  A    
C360  C361  A    
C76   C135  S    
C236  H70   S    
C360  H173  S    
C225  C226  A    
C176  C177  A    
C84   H199  S    
C357  C375  A    
C218  H55   S    
C334  C373  S    
C280  C281  A    
C76   C82   A    
C91   C92   A    
C311  H133  S    
C41   C235  A    
C222  C225  A    
C217  C218  A    
C253  H84   S    
C117  C122  A    
C293  C294  A    
C370  O48   A    
C384  O19   A    
C136  H242  S    
C385  O25   A    
C83   C84   A    
C156  C268  S    
O3    Zn10  S    
C109  C190  S    
C151  C152  A    
C216  C217  A    
C123  C212  S    
C196  C335  S    
C356  C358  A    
C209  C210  A    
C213  H51   S    
C324  H143  S    
C263  C388  S    
C2    C27   A    
C304  H127  S    
C417  O30   A    
C73   H190  S    
C15   H57   S    
C177  C178  A    
C254  H85   S    
C150  C155  A    
C311  C313  A    
C153  H256  S    
C219  C220  A    
C347  H162  S    
C118  H227  S    
C226  H61   S    
C363  C376  A    
C103  C104  A    
C383  O18   A    
C52   C53   A    
C11   H24   S    
C3    H191  S    
C191  C192  A    
C106  H218  S    
C216  C363  S    
C54   C55   A    
C169  H15   S    
C268  C388  A    
C403  O8    A    
C270  C275  A    
C81   H197  S    
C260  C261  A    
C17   C424  A    
C355  H170  S    
C346  C396  A    
C380  O16   A    
C303  C308  A    
C182  H26   S    
C320  C321  A    
C297  H121  S    
C255  H86   S    
C404  C412  A    
C71   H188  S    
C104  H216  S    
C143  C246  S    
C28   C422  A    
C300  H125  S    
C283  C284  A    
C62   H182  S    
C258  C259  A    
C264  H93   S    
C71   C72   A    
C117  C118  A    
C424  H180  S    
C282  H108  S    
C197  H38   S    
C348  H163  S    
C1    C369  S    
C350  C355  A    
C202  H42   S    
C68   C414  A    
C215  H53   S    
C9    C38   A    
C247  H78   S    
C56   C58   A    
C39   C212  A    
C132  C133  A    
C197  C198  A    
C58   H177  S    
C38   C46   A    
C177  H21   S    
C127  H234  S    
C173  C174  A    
C63   C64   A    
C263  C269  A    
C276  C277  A    
C277  H104  S    
O14   Zn1   S    
C226  C227  A    
C1    O46   A    
C419  O43   A    
C150  C151  A    
C131  H238  S    
O17   Zn5   S    
C152  C153  A    
C326  H145  S    
C276  C390  S    
C419  O37   A    
C327  H147  S    
C234  H69   S    
O1    Zn1   S    
C87   C88   A    
C260  H89   S    
C243  C249  A    
C406  C413  S    
C388  C406  A    
C73   C74   A    
C239  C240  A    
C195  H37   S    
C203  C204  A    
C85   H200  S    
C225  H60   S    
C28   C414  A    
C353  C354  A    
C263  C264  A    
C354  C355  A    
C77   C78   A    
C120  C121  A    
O43   Zn4   S    
C93   C94   A    
C367  C374  A    
C119  H228  S    
C82   H198  S    
C164  C165  A    
O33   Zn2   S    
C150  C257  S    
C294  C295  A    
O19   Zn9   S    
C397  C410  A    
C123  C125  A    
C32   C146  A    
O44   Zn1   S    
C243  C244  A    
C395  C408  A    
C216  C221  A    
C285  C286  A    
C262  H92   S    
C329  C330  A    
C323  C394  A    
C92   H206  S    
C157  C190  A    
C104  C105  A    
C124  C179  A    
C109  C116  A    
C94   H208  S    
C28   C101  A    
C141  H247  S    
O24   Zn11  S    
C42   C246  A    
C170  C171  A    
C115  H225  S    
C289  C393  S    
C299  H123  S    
C334  O47   A    
C48   H113  S    
O10   Zn5   S    
C22   C380  S    
C70   C71   A    
C331  H150  S    
C26   C414  A    
C345  C347  A    
C366  C401  A    
C248  H80   S    
C172  H17   S    
C200  H41   S    
C194  C195  A    
C9    H2    S    
C214  H52   S    
C362  H175  S    
C222  C364  S    
O31   Zn2   S    
C257  C369  A    
C122  H231  S    
C34   C168  A    
O47   Zn5   S    
C145  C147  A    
C126  H233  S    
C300  C302  A    
C97   C98   A    
C116  H226  S    
C170  C175  A    
C338  C339  A    
C98   H211  S    
O36   Zn3   S    
C307  C308  A    
C148  H252  S    
C227  H62   S    
C84   C85   A    
C251  C252  A    
C102  H215  S    
C114  C115  A    
C347  C348  A    
C332  H151  S    
C349  H164  S    
C86   C87   A    
C328  H148  S    
C105  H217  S    
C285  H110  S    
C205  C206  A    
C333  H152  S    
C7    C20   A    
C112  C371  S    
C207  C208  A    
C60   C61   A    
C59   H178  S    
C407  C415  S    
C89   C95   A    
C296  C302  A    
O6    Zn11  S    
C12   C41   A    
C6    C19   A    
O22   Zn8   S    
C140  H245  S    
C83   C146  S    
C189  C195  A    
C339  C340  A    
C213  C214  A    
C53   C54   A    
C265  H94   S    
C50   C51   A    
C45   H90   S    
C289  C295  A    
C267  H96   S    
C140  C141  A    
C121  C122  A    
C401  C410  A    
C107  H219  S    
C48   C49   A    
C316  C321  A    
C17   C422  A    
C245  C247  A    
C339  H155  S    
C125  C126  A    
C393  C406  A    
C387  C405  A    
C8    C37   A    
C127  C128  A    
C315  H137  S    
C44   C45   A    
C308  H131  S    
C144  H249  S    
C74   H192  S    
C241  H74   S    
C203  C208  A    
C12   H35   S    
C318  H139  S    
C113  C235  A    
C310  C311  A    
C292  C293  A    
C162  H9    S    
C44   H79   S    
C409  C421  S    
C175  H20   S    
O34   Zn7   S    
C410  C418  S    
C64   H183  S    
O9    Zn1   S    
C18   C385  S    
C131  C132  A    
C269  H97   S    
C178  C180  A    
C119  C120  A    
C170  C290  S    
C270  C389  S    
O38   Zn3   S    
C105  C106  A    
C356  C362  A    
C24   C33   A    
C64   C65   A    
C58   C59   A    
C24   C31   A    
C41   C57   A    
C187  C188  A    
C109  C110  A    
C353  H167  S    
C90   C212  A    
C312  C393  A    
C267  C269  A    
C343  C344  A    
C313  C314  A    
C253  C254  A    
C161  C162  A    
C343  C349  A    
C3    C27   A    
C232  C233  A    
C111  C114  A    
C78   C80   A    
C130  C224  S    
C14   C25   A    
C323  C369  A    
C230  C231  A    
C163  C169  A    
C358  H171  S    
C108  H220  S    
C272  H99   S    
C138  C139  A    
C319  C320  A    
C191  H32   S    
C305  C306  A    
C40   C68   A    
C416  O33   A    
C270  C271  A    
C361  H174  S    
C423  H112  S    
C180  C181  A    
C365  C376  A    
C418  O36   A    
C99   H212  S    
C171  C172  A    
C298  H122  S    
C380  O14   A    
C165  C166  A    
C174  H19   S    
O13   Zn7   S    
C297  C298  A    
C163  C164  A    
C301  C372  A    
C364  C377  A    
C331  C332  A    
C8    H246  S    
O28   Zn12  S    
C81   C82   A    
C382  O15   A    
O42   Zn4   S    
C237  C366  S    
C266  H95   S    
O8    Zn9   S    
O37   Zn3   S    
C254  C255  A    
O7    Zn10  S    
C40   C224  A    
C346  C374  A    
C66   H185  S    
C4    H202  S    
C11   C36   A    
C35   C37   A    
C356  C404  S    
O20   Zn10  S    
C321  H142  S    
C3    C18   A    
C286  C287  A    
C165  H11   S    
O4    Zn11  S    
C9    C22   A    
C166  H12   S    
C290  C390  A    
C125  H232  S    
C43   C79   S    
C39   C57   A    
C316  C397  S    
C196  C197  A    
C164  H10   S    
C291  H116  S    
C305  H128  S    
C176  C301  S    
C55   H176  S    
C211  H50   S    
C392  O5    A    
C240  C241  A    
C344  C345  A    
C17   C386  S    
C238  H71   S    
C4    C19   A    
C337  C400  S    
C227  C228  A    
C145  H250  S    
C386  O26   A    
C180  H23   S    
C18   C423  A    
C416  O29   A    
C67   H186  S    
C288  H115  S    
C265  C266  A    
C221  H59   S    
C87   H203  S    
C14   C42   A    
C15   C23   A    
C198  H39   S    
C156  C162  A    
C413  O27   A    
C123  C129  A    
C42   C68   A    
C336  H153  S    
C365  C400  A    
C61   C62   A    
C292  H117  S    
C117  C201  S    
C320  H141  S    
C332  C333  A    
C240  H73   S    
C294  H119  S    
C54   H168  S    
C65   H184  S    
C394  C405  A    
C250  C368  S    
C301  C391  A    
C24   C35   A    
C7    C31   A    
C74   C75   A    
C256  C387  S    
C63   C69   A    
C325  C326  A    
O12   Zn5   S    
C287  H114  S    
C76   C77   A    
C367  C402  A    
C299  C300  A    
C214  C215  A    
C43   C49   A    
C134  C136  A    
C411  C419  S    
C281  C282  A    
C112  O45   A    
C38   C201  A    
C228  H63   S    
C5    C33   A    
C78   H195  S    
C33   C157  A    
C359  H172  S    
C378  O9    A    
C183  C184  A    
C318  C319  A    
C47   C48   A    
C51   H135  S    
C183  C312  S    
C26   C424  A    
C96   C97   A    
C91   H205  S    
C273  C274  A    
C94   C95   A    
C10   C34   A    
C4    C32   A    
C204  C205  A    
O23   Zn6   S    
C412  C420  S    
C198  C199  A    
C52   H146  S    
C422  H1    S    
C69   H187  S    
C304  C305  A    
C211  C213  A    
C30   C124  A    
C75   H193  S    
C229  H64   S    
C287  C288  A    
C166  C167  A    
C278  C280  A    
C89   C91   A    
C80   H196  S    
C272  C273  A    
C325  H144  S    
C196  C202  A    
C259  C260  A    
C184  H27   S    
C19   C384  S    
C70   C75   A    
C152  H255  S    
C172  C173  A    
C384  O21   A    
C329  C399  S    
C114  H223  S    
C250  C255  A    
C161  H8    S    
O18   Zn8   S    
C343  C401  S    
C219  H56   S    
O41   Zn4   S    
C155  H4    S    
C370  O7    A    
C130  C136  A    
C80   C81   A    
C8    C21   A    
C366  C375  A    
C247  C248  A    
C244  H76   S    
C186  H29   S    
C322  C398  S    
C181  H25   S    
C361  C362  A    
C11   C22   A    
O39   Zn3   S    
C50   C55   A    
C307  H130  S    
C283  C391  S    
C192  C193  A    
C281  H107  S    
C141  C142  A    
C327  C328  A    
C351  C352  A    
C29   C423  A    
C218  C219  A    
C133  C134  A    
C402  C409  A    
C415  O28   A    
C391  C407  A    
C381  O6    A    
C335  C373  A    
C289  C291  A    
C312  C371  A    
C37   C190  A    
C199  H40   S    
C210  C211  A    
C317  C318  A    
C160  C161  A    
C250  C251  A    
C31   C135  A    
C338  H154  S    
C266  C267  A    
C187  H30   S    
O29   Zn12  S    
C121  H230  S    
C20   C383  S    
O15   Zn7   S    
C65   C66   A    
C303  C395  S    
C231  C232  A    
C132  H239  S    
C341  C342  A    
C13   C46   A    
C103  C108  A    
C23   C379  S    
C302  H126  S    
C205  H44   S    
C153  C154  A    
C237  C238  A    
C364  C399  A    
C313  H134  S    
C413  O31   A    
