data_mof_unit_34976.cif
_audit_creation_date              2012-12-10T17:26:25-0500
_audit_creation_method            fapswitch 2.2
_symmetry_space_group_name_H-M    P1
_symmetry_Int_Tables_number       1
_space_group_crystal_system       triclinic
_cell_length_a                    10.189763
_cell_length_b                    10.68169
_cell_length_c                    27.544752
_cell_angle_alpha                 90.249118
_cell_angle_beta                  80.377603
_cell_angle_gamma                 95.003356
_cell_volume                      2944.47438498

loop_
_atom_site_label
_atom_site_type_symbol
_atom_type_description
_atom_site_fract_x
_atom_site_fract_y
_atom_site_fract_z
_atom_type_partial_charge
C1    C     C_R   0.556440 0.734444 0.495759 0.906633
C2    C     C_R   0.394110 0.503490 0.134337 -0.007671
C3    C     C_R   0.493856 0.486791 0.646554 -0.069826
C4    C     C_R   0.500611 0.486409 0.353710 -0.082453
C5    C     C_R   0.369320 0.480582 0.033891 0.077278
C6    C     C_R   0.563975 0.359304 0.968546 0.073391
C7    C     C_R   0.578810 0.376126 0.018499 0.011521
C8    C     C_R   0.358452 0.469817 0.983257 0.012964
C9    C     C_R   0.480536 0.434827 0.051109 0.070141
C10   C     C_R   0.457411 0.411618 0.950731 0.068041
C11   C     C_R   0.274527 0.539117 0.067931 -0.234627
C12   C     C_R   0.443562 0.265990 0.502891 0.903472
C13   C     C_R   0.652497 0.291467 0.935483 -0.225913
C14   C     C_R   0.285867 0.548478 0.117160 -0.149363
C15   C     C_R   0.645008 0.286524 0.885787 -0.152983
C16   C     C_R   0.499577 0.500728 0.593850 0.886352
C17   C     C_R   0.500341 0.498216 0.406201 0.877293
C18   C     C_R   0.250875 0.514405 0.963943 -0.288027
C19   C     C_R   0.692100 0.340385 0.036472 -0.289479
C20   C     C_2   0.588505 0.870209 0.487228 0.001409
C21   C     C_2   0.410237 0.130730 0.499962 0.014627
C22   C     C_2   0.493496 0.931342 0.471147 -0.246234
C23   C     C_R   0.451315 0.407323 0.899667 -0.092126
C24   C     C_2   0.499430 0.067413 0.470176 -0.255612
C25   C     C_2   0.919615 0.487791 0.511188 -0.104113
C26   C     C_2   0.070079 0.472130 0.504104 -0.115185
C27   C     C_R   0.359902 0.474439 0.829236 0.541550
C28   C     C_R   0.612662 0.420652 0.169557 0.532565
C29   C     C_R   0.548332 0.353409 0.816641 0.501205
C30   C     C_R   0.404329 0.511807 0.184148 0.525448
C31   C     C_R   0.409983 0.359180 0.718897 -0.151618
C32   C     C_R   0.569557 0.578132 0.272690 -0.151625
C33   C     C_R   0.418141 0.380886 0.669030 -0.255615
C34   C     C_R   0.493834 0.448746 0.101417 -0.096230
C35   C     C_R   0.563309 0.585808 0.323219 -0.265627
C36   C     C_R   0.562385 0.574507 0.674231 0.080539
C37   C     C_R   0.445807 0.375221 0.333657 0.073974
C38   C     C_R   0.552059 0.552439 0.725500 0.218901
C39   C     C_R   0.451973 0.368655 0.282120 0.221564
C40   C     C_R   0.475841 0.444056 0.747073 0.268989
C41   C     C_R   0.513544 0.470852 0.252237 0.268746
C42   C     C_3   0.643772 0.689769 0.649274 -0.451396
C43   C     C_3   0.554098 0.790307 0.638894 -0.865492
C44   C     C_3   0.388595 0.262716 0.366425 -0.404575
C45   C     C_R   0.349987 0.464172 0.880738 -0.072255
C46   C     C_3   0.239890 0.268577 0.385482 -0.861087
C47   C     C_3   0.288138 0.061979 0.531556 -0.436428
C48   C     C_3   0.191799 0.143630 0.563081 -0.834202
C49   C     C_3   0.717127 0.942447 0.497755 -0.385337
C50   C     C_3   0.819925 0.864321 0.514824 -0.884337
C51   C     C_3   0.101045 0.642670 0.555881 -0.215662
C52   C     C_3   0.201442 0.743630 0.569650 -0.799246
C53   C     C_3   0.903144 0.368510 0.440408 -0.229214
C54   C     C_3   0.819351 0.334713 0.400790 -0.762932
C55   C     C_3   0.742952 0.622890 0.763824 -0.762991
C56   C     C_R   0.606371 0.408391 0.118928 -0.075974
C57   C     C_3   0.482956 0.167779 0.241195 -0.759324
C58   C     C_3   0.027640 0.457871 0.892609 -0.705851
C59   C     C_3   0.935091 0.415473 0.094429 -0.706200
C60   C     C_R   0.245376 0.511817 0.913713 0.248308
C61   C     C_R   0.707187 0.356285 0.085530 0.243342
C62   C     C_R   0.548293 0.347747 0.867263 -0.005048
H1    H     H_    0.109125 0.394096 0.482964 0.135902
H2    H     H_    0.728694 0.239904 0.946747 0.141415
H3    H     H_    0.167349 0.551536 0.986786 0.135407
H4    H     H_    0.774849 0.303816 0.012841 0.139635
H5    H     H_    0.587487 0.115881 0.448377 0.157433
H6    H     H_    0.401981 0.881593 0.463183 0.174620
H7    H     H_    0.491702 0.757094 0.611309 0.248658
H8    H     H_    0.488349 0.814883 0.673334 0.269482
H9    H     H_    0.616699 0.876292 0.623973 0.255472
H10   H     H_    0.716028 0.732461 0.671744 0.220074
H11   H     H_    0.705827 0.662589 0.614486 0.206325
H12   H     H_    0.873295 0.538540 0.542663 0.139023
H13   H     H_    0.203984 0.191829 0.412808 0.246101
H14   H     H_    0.222035 0.359726 0.403456 0.270610
H15   H     H_    0.181420 0.258009 0.354949 0.251228
H16   H     H_    0.404055 0.173226 0.346558 0.218163
H17   H     H_    0.442340 0.257888 0.398106 0.187377
H18   H     H_    0.245030 0.205121 0.587433 0.257781
H19   H     H_    0.141337 0.200819 0.539419 0.267919
H20   H     H_    0.113354 0.082024 0.586705 0.240414
H21   H     H_    0.230061 0.005447 0.507129 0.213063
H22   H     H_    0.324661 0.997921 0.556984 0.225846
H23   H     H_    0.606806 0.669838 0.338720 0.154528
H24   H     H_    0.774663 0.807945 0.548018 0.263109
H25   H     H_    0.862147 0.802149 0.484878 0.277684
H26   H     H_    0.903607 0.928098 0.524442 0.243113
H27   H     H_    0.767157 0.994211 0.463809 0.213802
H28   H     H_    0.689917 0.013007 0.526667 0.223794
H29   H     H_    0.278359 0.703996 0.587199 0.285176
H30   H     H_    0.245064 0.800094 0.536553 0.252032
H31   H     H_    0.148831 0.807582 0.596675 0.209321
H32   H     H_    0.027865 0.695473 0.540379 0.162222
H33   H     H_    0.050403 0.592753 0.590239 0.172231
H34   H     H_    0.366190 0.313926 0.647647 0.150057
H35   H     H_    0.719934 0.289958 0.416615 0.264899
H36   H     H_    0.813185 0.418649 0.377966 0.270752
H37   H     H_    0.869866 0.265316 0.375735 0.204193
H38   H     H_    0.997192 0.417551 0.420309 0.172944
H39   H     H_    0.925418 0.279050 0.456642 0.161518
H40   H     H_    0.596047 0.733990 0.748983 0.242678
H41   H     H_    0.776350 0.695411 0.789187 0.242556
H42   H     H_    0.813393 0.630301 0.728355 0.232068
H43   H     H_    0.746375 0.529519 0.780593 0.275792
H44   H     H_    0.300771 0.225834 0.276981 0.239884
H45   H     H_    0.616080 0.656425 0.249295 0.152067
H46   H     H_    0.480014 0.153174 0.201470 0.255418
H47   H     H_    0.450377 0.077290 0.261152 0.223760
H48   H     H_    0.587804 0.195796 0.245810 0.271036
H49   H     H_    0.095355 0.631741 0.916515 0.217388
H50   H     H_    0.946856 0.498250 0.876909 0.243440
H51   H     H_    0.984676 0.416112 0.929353 0.206422
H52   H     H_    0.067388 0.383054 0.867615 0.251957
H53   H     H_    0.853757 0.234554 0.085571 0.216437
H54   H     H_    0.019863 0.381551 0.109717 0.248756
H55   H     H_    0.905037 0.501722 0.114425 0.255091
H56   H     H_    0.350973 0.276852 0.735977 0.154423
H57   H     H_    0.968624 0.438431 0.054730 0.201359
H58   H     H_    0.209150 0.592429 0.141754 0.191667
H59   H     H_    0.717725 0.236611 0.861723 0.188209
H60   H     H_    0.189594 0.579737 0.058150 0.143493
N1    N     N_R   0.460185 0.422368 0.798862 -0.339186
N2    N     N_R   0.511135 0.468924 0.200612 -0.339137
N3    N     N_2   0.842700 0.448890 0.480020 -0.038770
N4    N     N_2   0.157300 0.551110 0.519980 -0.036835
N5    N     N_2   0.608616 0.641746 0.756493 -0.313264
N6    N     N_2   0.393704 0.262039 0.259659 -0.313208
N7    N     N_2   0.132219 0.555820 0.897168 -0.249885
N8    N     N_2   0.825058 0.318655 0.100531 -0.248369
O1    O     O_R   0.431060 0.692470 0.504020 -0.628351
O2    O     O_2   0.717451 0.383310 0.188109 -0.542734
O3    O     O_2   0.307738 0.561358 0.216186 -0.563495
O4    O     O_2   0.638447 0.294257 0.785189 -0.575251
O5    O     O_R   0.568940 0.307530 0.495980 -0.625891
O6    O     O_R   0.651120 0.659650 0.491200 -0.594044
O7    O     O_R   0.348880 0.340350 0.508800 -0.602333
O8    O     O_R   0.389980 0.516390 0.577660 -0.609339
O9    O     O_R   0.610020 0.483610 0.422340 -0.617197
O10   O     O_R   0.610040 0.483570 0.564830 -0.621028
O11   O     O_R   0.389960 0.516430 0.435170 -0.603888
O12   O     O_2   0.273183 0.538537 0.809353 -0.531092
Zn1   Zn    Zn3+2 0.353060 0.521910 0.508560 0.939937
Zn2   Zn    Zn3+2 0.646940 0.478090 0.491440 0.939759

loop_
_geom_bond_atom_site_label_1
_geom_bond_atom_site_label_2
_ccdc_geom_bond_type
C59   N8    S    
C34   C56   A    
C23   C45   A    
C55   H41   S    
C36   C42   S    
C49   H28   S    
C57   N6    S    
C46   H14   S    
C38   N5    S    
C28   C56   A    
C45   C60   A    
C53   C54   S    
C48   H19   S    
C18   H3    S    
C55   H43   S    
C58   H50   S    
C41   N2    S    
C5    C11   A    
O8    Zn1   S    
O11   Zn1   S    
C11   C14   A    
C3    C33   A    
C58   N7    S    
H44   N6    S    
N4    Zn1   S    
C27   O12   S    
C31   C40   A    
C19   H4    S    
C17   O11   A    
C25   H12   S    
C26   N4    D    
C25   N3    D    
C24   H5    S    
H49   N7    S    
C23   C62   A    
C57   H47   S    
C57   H48   S    
C53   H39   S    
C59   H54   S    
C1    C20   S    
C12   O5    A    
C58   H51   S    
C43   H9    S    
C32   C41   A    
C31   C33   A    
C54   H35   S    
C47   H21   S    
C1    O6    A    
C50   H26   S    
C2    C34   A    
C29   O4    S    
O7    Zn1   S    
C4    C35   A    
C43   H7    S    
C16   O10   A    
C46   H13   S    
C44   C46   S    
C53   H38   S    
C37   C39   A    
C51   C52   S    
C32   C35   A    
C39   C41   A    
H40   N5    S    
C49   H27   S    
C27   N1    A    
C25   C26   S    
C12   C21   S    
C32   H45   S    
C8    C18   A    
C28   O2    S    
C26   H1    S    
C31   H56   S    
C5    C9    A    
C20   C49   S    
C5    C8    A    
O9    Zn2   S    
C47   C48   S    
C30   O3    S    
C42   H10   S    
C52   H31   S    
C17   O9    A    
C47   H22   S    
C22   H6    S    
C53   N3    S    
C50   H25   S    
C4    C17   S    
C61   N8    S    
C18   C60   A    
O5    Zn2   S    
C55   N5    S    
C43   H8    S    
C7    C19   A    
C13   C15   A    
C9    C34   A    
C22   C24   S    
C54   H37   S    
C52   H30   S    
C11   H60   S    
C42   C43   S    
C20   C22   D    
C33   H34   S    
O1    Zn1   S    
C7    C9    A    
C40   N1    S    
C29   C62   A    
C42   H11   S    
C59   H57   S    
C39   N6    S    
C15   H59   S    
C56   C61   A    
C51   N4    S    
C44   H17   S    
C16   O8    A    
O10   Zn2   S    
C30   N2    A    
C1    O1    A    
C60   N7    S    
C6    C10   A    
C46   H15   S    
C28   N2    A    
C6    C7    A    
C10   C23   A    
C14   H58   S    
C2    C30   A    
C48   H18   S    
C37   C44   S    
C44   H16   S    
O6    Zn2   S    
C6    C13   A    
C38   C40   A    
C35   H23   S    
C27   C45   A    
C29   N1    A    
C13   H2    S    
C3    C36   A    
C19   C61   A    
C55   H42   S    
C36   C38   A    
C15   C62   A    
C48   H20   S    
C2    C14   A    
C50   H24   S    
C51   H32   S    
C59   H55   S    
C57   H46   S    
C4    C37   A    
C8    C10   A    
C49   C50   S    
C21   C24   D    
C58   H52   S    
C12   O7    A    
C54   H36   S    
C52   H29   S    
N3    Zn2   S    
C3    C16   S    
C51   H33   S    
C21   C47   S    
H53   N8    S    
