data_mof_unit_49840.cif
_audit_creation_date              2012-12-11T14:50:39-0500
_audit_creation_method            fapswitch 2.2
_symmetry_space_group_name_H-M    P1
_symmetry_Int_Tables_number       1
_space_group_crystal_system       triclinic
_cell_length_a                    10.98305
_cell_length_b                    10.984332
_cell_length_c                    18.816423
_cell_angle_alpha                 90.255373
_cell_angle_beta                  89.733488
_cell_angle_gamma                 60.353768
_cell_volume                      1972.80265696

loop_
_atom_site_label
_atom_site_type_symbol
_atom_type_description
_atom_site_fract_x
_atom_site_fract_y
_atom_site_fract_z
_atom_type_partial_charge
C1    C     C_R   0.242084 0.643996 0.610894 0.543092
C2    C     C_3   0.689047 0.533987 0.800727 -0.131502
C3    C     C_3   0.698227 0.668888 0.813028 0.026463
C4    C     C_3   0.666119 0.642213 0.677587 0.030829
C5    C     C_3   0.804966 0.641280 0.688312 -0.248503
C6    C     C_3   0.666324 0.520994 0.720719 -0.219454
C7    C     C_R   0.780027 0.169475 0.710209 -0.138226
C8    C     C_R   0.785814 0.159345 0.784390 -0.128434
C9    C     C_R   0.678720 0.152227 0.821946 0.047093
C10   C     C_R   0.563517 0.158693 0.782843 -0.013581
C11   C     C_R   0.565796 0.158481 0.710507 -0.143349
C12   C     C_R   0.650808 0.618475 0.602342 0.547073
C13   C     C_R   0.667013 0.172983 0.673655 0.015358
C14   C     C_R   0.207167 0.545352 0.722798 -0.149527
C15   C     C_R   0.192386 0.550893 0.796573 -0.025306
C16   C     C_R   0.183471 0.666757 0.834837 0.058935
C17   C     C_R   0.199835 0.768717 0.798301 -0.115081
C18   C     C_R   0.205342 0.766793 0.725152 -0.134813
C19   C     C_R   0.209110 0.655535 0.686619 0.017392
C20   C     C_R   0.731473 0.527114 0.270826 -0.148874
C21   C     C_R   0.721586 0.536946 0.197681 -0.158973
C22   C     C_R   0.644427 0.667352 0.165780 0.022783
C23   C     C_R   0.628959 0.227374 0.602162 0.539508
C24   C     C_R   0.550605 0.781721 0.207768 -0.137967
C25   C     C_R   0.550180 0.769723 0.281786 -0.137338
C26   C     C_R   0.645949 0.643228 0.314043 0.022685
C27   C     C_R   0.674646 0.055678 0.298943 -0.151539
C28   C     C_R   0.685311 0.029178 0.226429 -0.139278
C29   C     C_R   0.663526 0.135838 0.178581 0.030617
C30   C     C_R   0.639898 0.265561 0.202226 -0.168532
C31   C     C_R   0.626764 0.292538 0.274498 -0.135016
C32   C     C_R   0.645447 0.187706 0.322498 0.039927
C33   C     C_R   0.090054 0.805072 0.305446 -0.140155
C34   C     C_R   0.217282 0.651073 0.403646 0.549628
C35   C     C_R   0.071523 0.814171 0.233156 -0.140546
C36   C     C_R   0.105124 0.693772 0.192030 0.023187
C37   C     C_R   0.143674 0.565441 0.226514 -0.039597
C38   C     C_R   0.159018 0.559178 0.299597 -0.134341
C39   C     C_R   0.143446 0.675202 0.337758 0.014416
C40   C     C_R   0.700206 0.102340 0.895892 0.566652
C41   C     C_R   0.722845 0.686661 0.888882 0.554419
C42   C     C_R   0.119382 0.705448 0.905988 0.574725
C43   C     C_R   0.676384 0.104006 0.104448 0.541553
C44   C     C_R   0.692783 0.688907 0.096392 0.533483
C45   C     C_R   0.639522 0.619131 0.390248 0.541397
C46   C     C_R   0.081626 0.715217 0.115923 0.549042
C47   C     C_R   0.618618 0.227476 0.395822 0.537540
C48   C     C_3   0.563172 0.797410 0.785150 -0.229090
C49   C     C_3   0.544370 0.782543 0.705637 -0.244768
C50   C     C_3   0.825936 0.653687 0.768032 -0.121949
Cr1   Cr    Cr6+3 0.392930 0.397900 0.502230 1.011694
Cr2   Cr    Cr6+3 0.398240 0.708600 0.501260 1.012722
Cr3   Cr    Cr6+3 0.708800 0.393470 0.496460 1.010876
Cr4   Cr    Cr6+3 0.937620 0.938540 0.007640 1.029732
Cr5   Cr    Cr6+3 0.625150 0.937450 0.994520 1.049471
Cr6   Cr    Cr6+3 0.937990 0.625080 0.001190 1.056409
H1    H     H_    0.575057 0.890140 0.792477 0.163604
H2    H     H_    0.753628 0.419920 0.701281 0.130951
H3    H     H_    0.919315 0.555527 0.783570 0.133785
H4    H     H_    0.894536 0.542066 0.667453 0.127069
H5    H     H_    0.861233 0.178246 0.681767 0.123747
H6    H     H_    0.875793 0.151547 0.811874 0.132103
H7    H     H_    0.481034 0.154985 0.682672 0.131951
H8    H     H_    0.212875 0.457328 0.693566 0.125804
H9    H     H_    0.194697 0.858301 0.825499 0.143654
H10   H     H_    0.469091 0.813363 0.815459 0.146469
H11   H     H_    0.207654 0.853121 0.698897 0.131059
H12   H     H_    0.801868 0.425638 0.293280 0.145854
H13   H     H_    0.785780 0.444498 0.166042 0.117775
H14   H     H_    0.482644 0.880746 0.183545 0.115365
H15   H     H_    0.477597 0.859120 0.313542 0.129125
H16   H     H_    0.687265 0.975261 0.336082 0.113578
H17   H     H_    0.709096 0.926492 0.207317 0.122056
H18   H     H_    0.622735 0.347280 0.164968 0.117739
H19   H     H_    0.593253 0.397479 0.293325 0.133583
H20   H     H_    0.073269 0.897119 0.334979 0.138221
H21   H     H_    0.442902 0.786050 0.697448 0.144365
H22   H     H_    0.033233 0.916417 0.209554 0.150534
H23   H     H_    0.195101 0.459328 0.325689 0.144291
H24   H     H_    0.540955 0.871936 0.676227 0.122865
H25   H     H_    0.803575 0.728117 0.657127 0.125443
H26   H     H_    0.790141 0.441564 0.816340 0.122156
H27   H     H_    0.567093 0.519157 0.711137 0.133943
O1    O     O_R   0.507430 0.255570 0.581420 -0.529621
O2    O     O_R   0.524460 0.695920 0.424060 -0.500340
O3    O     O_R   0.736530 0.504260 0.414810 -0.523077
O4    O     O_R   0.691460 0.277160 0.422180 -0.506704
O5    O     O_3   0.499990 0.499990 0.499980 -0.256216
O6    O     O_R   0.089490 0.825610 0.930610 -0.515128
O7    O     O_R   0.818370 0.054540 0.929880 -0.494901
O8    O     O_R   0.605870 0.077310 0.915530 -0.500838
O9    O     O_R   0.646440 0.806700 0.917570 -0.499768
O10   O     O_R   0.837200 0.593290 0.915250 -0.509346
O11   O     O_R   0.065330 0.635370 0.931590 -0.485504
O12   O     O_R   0.280190 0.527390 0.578910 -0.507922
O13   O     O_R   0.068300 0.828790 0.091860 -0.530796
O14   O     O_R   0.798730 0.057480 0.079370 -0.510612
O15   O     O_R   0.584680 0.080480 0.076790 -0.521170
O16   O     O_R   0.626790 0.809640 0.067050 -0.508429
O17   O     O_R   0.816010 0.596460 0.076500 -0.540080
O18   O     O_R   0.045680 0.638310 0.081070 -0.499043
O19   O     O_3   0.833590 0.833690 0.001120 -0.267255
O20   O     O_R   0.260310 0.739740 0.584580 -0.530594
O21   O     O_R   0.532250 0.695150 0.573830 -0.510394
O22   O     O_R   0.744930 0.503430 0.576380 -0.527728
O23   O     O_R   0.699250 0.276390 0.571950 -0.509902
O24   O     O_R   0.499020 0.256400 0.419850 -0.517582
O25   O     O_R   0.272400 0.528160 0.429140 -0.509962
O26   O     O_R   0.251910 0.740570 0.423020 -0.518625
C51   C     C_1   0.448231 0.145326 0.811875 0.213174
N1    N     N_1   0.360761 0.126714 0.834514 -0.286666
C52   C     C_1   0.164393 0.449366 0.830002 0.209971
N2    N     N_1   0.134963 0.373785 0.857962 -0.259460
C53   C     C_R   0.172296 0.434229 0.190604 0.025418
C54   C     C_R   0.061570 0.418533 0.166497 -0.050991
C55   C     C_R   0.083678 0.290335 0.139194 -0.107389
C56   C     C_R   0.217571 0.173653 0.140888 -0.105564
C57   C     C_R   0.327033 0.186392 0.170387 -0.088026
C58   C     C_R   0.304577 0.315907 0.194835 -0.097667
H28   H     H_    0.959187 0.506446 0.172521 0.154564
H29   H     H_    0.997426 0.279886 0.118782 0.111197
H30   H     H_    0.235490 0.073045 0.121639 0.116889
H31   H     H_    0.428568 0.096148 0.175891 0.135709
H32   H     H_    0.387048 0.323783 0.220799 0.131233
C59   C     C_1   0.856526 0.767997 0.780002 0.182274
N3    N     N_1   0.881918 0.857026 0.788503 -0.306296
C60   C     C_1   0.579711 0.529586 0.844710 0.174181
N4    N     N_1   0.495284 0.524975 0.879733 -0.311064

loop_
_geom_bond_atom_site_label_1
_geom_bond_atom_site_label_2
_ccdc_geom_bond_type
Cr2   O20   S    
C44   O17   A    
C6    H2    S    
C10   C51   S    
C35   C36   A    
C43   O15   A    
C53   C54   A    
C24   H14   S    
C7    C8    A    
C58   H32   S    
Cr6   O11   S    
Cr5   O19   S    
C28   C29   A    
C29   C30   A    
C50   H3    S    
C36   C37   A    
Cr6   O18   S    
Cr4   O7    S    
C11   H7    S    
C30   C31   A    
C30   H18   S    
C44   O16   A    
C38   H23   S    
C54   C55   A    
C3    C48   S    
C55   C56   A    
C13   C23   S    
C18   C19   A    
C51   N1    T    
C7    H5    S    
Cr5   O8    S    
C26   C45   S    
C57   C58   A    
Cr3   O23   S    
C41   O10   A    
C8    C9    A    
Cr1   O12   S    
Cr4   O14   S    
C36   C46   S    
Cr3   O3    S    
C25   H15   S    
C4    C12   S    
C9    C10   A    
C1    O20   A    
Cr4   O13   S    
C53   C58   A    
C2    C60   S    
C21   C22   A    
C29   C43   S    
C2    C6    S    
C40   O7    A    
C28   H17   S    
C14   C19   A    
C52   N2    T    
C3    C50   S    
Cr4   O19   S    
Cr6   O10   S    
C46   O18   A    
C22   C44   S    
C1    C19   S    
C23   O1    A    
C34   C39   S    
Cr2   O5    S    
C38   C39   A    
C24   C25   A    
Cr4   O6    S    
C4    C6    S    
C55   H29   S    
C16   C17   A    
C37   C53   S    
C18   H11   S    
C23   O23   A    
C9    C40   S    
C21   H13   S    
C47   O4    A    
C45   O2    A    
C56   H30   S    
C37   C38   A    
C5    H25   S    
C33   H20   S    
C31   H19   S    
C31   C32   A    
C1    O12   A    
C14   H8    S    
C17   C18   A    
Cr3   O4    S    
C50   C59   S    
C33   C39   A    
C48   C49   S    
Cr5   O9    S    
Cr1   O25   S    
C47   O24   A    
Cr2   O21   S    
C59   N3    T    
C32   C47   S    
C22   C24   A    
C5    C50   S    
C2    H26   S    
C48   H1    S    
Cr6   O17   S    
C60   N4    T    
C16   C42   S    
Cr2   O2    S    
C6    H27   S    
C5    H4    S    
C27   C32   A    
C42   O11   A    
C15   C52   S    
C20   H12   S    
C43   O14   A    
C4    C5    S    
Cr1   O5    S    
C12   O21   A    
C35   H22   S    
C17   H9    S    
C49   H24   S    
C4    C49   S    
C42   O6    A    
C34   O25   A    
C45   O3    A    
C25   C26   A    
Cr6   O19   S    
C56   C57   A    
C11   C13   A    
C12   O22   A    
C20   C26   A    
Cr2   O26   S    
Cr5   O15   S    
C33   C35   A    
C49   H21   S    
C2    C3    S    
Cr3   O5    S    
C57   H31   S    
C40   O8    A    
C3    C41   S    
C10   C11   A    
Cr3   O22   S    
C7    C13   A    
C41   O9    A    
C46   O13   A    
C20   C21   A    
Cr1   O24   S    
C54   H28   S    
Cr5   O16   S    
C27   C28   A    
C34   O26   A    
C14   C15   A    
C48   H10   S    
Cr1   O1    S    
C27   H16   S    
C15   C16   A    
C8    H6    S    
