data_mof_unit_55249.cif
_audit_creation_date              2012-10-26T19:05:02-0400
_audit_creation_method            fapswitch 2.2
_symmetry_space_group_name_H-M    P1
_symmetry_Int_Tables_number       1
_space_group_crystal_system       triclinic
_cell_length_a                    15.851701
_cell_length_b                    10.782781
_cell_length_c                    9.638974
_cell_angle_alpha                 90.345051
_cell_angle_beta                  88.736629
_cell_angle_gamma                 89.741074
_cell_volume                      1647.09747897

loop_
_atom_site_label
_atom_site_type_symbol
_atom_type_description
_atom_site_fract_x
_atom_site_fract_y
_atom_site_fract_z
_atom_type_partial_charge
C1    C     C_R   0.500665 0.263047 0.499694 0.497128
C2    C     C_R   0.275136 0.076489 0.619411 -0.121480
C3    C     C_R   0.272766 0.947925 0.622285 -0.050393
C4    C     C_R   0.340457 0.497924 0.501257 0.601295
C5    C     C_R   0.344143 0.878398 0.584643 0.381727
C6    C     C_R   0.420508 0.937575 0.543222 -0.030337
C7    C     C_R   0.422777 0.068600 0.541213 -0.044931
C8    C     C_R   0.498172 0.128997 0.499567 -0.070250
C9    C     C_R   0.571049 0.061520 0.458252 -0.006910
C10   C     C_R   0.567678 0.932223 0.458370 0.367011
C11   C     C_R   0.494154 0.871077 0.501330 -0.005970
C12   C     C_3   0.947799 0.484990 0.649056 -0.150618
C13   C     C_R   0.655849 0.500007 0.110030 0.077409
C14   C     C_R   0.721827 0.568704 0.048497 -0.077745
C15   C     C_R   0.706431 0.638463 0.930084 -0.151803
C16   C     C_R   0.497338 0.737080 0.500472 0.665706
C17   C     C_R   0.629426 0.624977 0.863834 -0.068992
C18   C     C_R   0.565634 0.551868 0.925110 0.083379
C19   C     C_R   0.572678 0.523882 0.067736 0.090673
C20   C     C_R   0.431214 0.465108 0.076346 0.033546
C21   C     C_R   0.433288 0.457051 0.928623 0.494838
C22   C     C_R   0.659517 0.500416 0.498736 0.550918
C23   C     C_3   0.916990 0.494919 0.497603 -0.032947
C24   C     C_3   0.045500 0.482691 0.651419 0.303207
C25   C     C_3   0.051594 0.383661 0.411679 0.300860
C26   C     C_3   0.953031 0.384393 0.408085 -0.094720
C27   C     C_1   0.749135 0.499440 0.496376 0.052425
C28   C     C_3   0.082937 0.493580 0.501731 0.009873
C29   C     C_2   0.651256 0.125953 0.419362 0.298783
C30   C     C_2   0.676333 0.376299 0.167568 0.262223
C31   C     C_2   0.914265 0.260231 0.444921 0.342401
C32   C     C_3   0.952598 0.617001 0.434902 0.229002
C33   C     C_3   0.050372 0.616238 0.438287 -0.294222
C34   C     C_1   0.824690 0.497787 0.496168 0.011713
C35   C     C_1   0.175162 0.494737 0.503753 0.038889
C36   C     C_1   0.250756 0.496092 0.503714 0.069568
C37   C     C_R   0.349065 0.136629 0.579250 -0.074129
Cu1   Cu    Cu3+1 0.499990 0.499990 0.640660 1.079190
Cu2   Cu    Cu3+1 0.500010 0.500010 0.359340 0.996440
F1    F     F_    0.336690 0.753682 0.588438 -0.648653
F2    F     F_    0.637042 0.864015 0.420746 -0.568033
F3    F     F_    0.073035 0.374646 0.713694 -0.545270
F4    F     F_    0.366369 0.406908 0.864233 -0.604305
F5    F     F_    0.083395 0.272184 0.460116 -0.542239
F6    F     F_    0.921182 0.719235 0.507680 -0.585738
H1    H     H_    0.921543 0.401344 0.700574 0.204960
H2    H     H_    0.756640 0.691809 0.881811 0.158651
H3    H     H_    0.620997 0.671928 0.766920 0.184338
H4    H     H_    0.076847 0.394594 0.303731 0.108561
H5    H     H_    0.935355 0.401666 0.298572 0.057271
H6    H     H_    0.072732 0.696722 0.500114 0.193057
H7    H     H_    0.076519 0.627113 0.330925 0.102271
H8    H     H_    0.658101 0.224659 0.437437 0.086304
H9    H     H_    0.626278 0.309951 0.187136 0.131945
H10   H     H_    0.872351 0.215753 0.372524 0.165371
H11   H     H_    0.067502 0.562085 0.715308 0.129671
H12   H     H_    0.923984 0.565675 0.711227 0.136625
H13   H     H_    0.932484 0.625912 0.325452 0.152632
H14   H     H_    0.347423 0.236791 0.577608 0.163313
H15   H     H_    0.219358 0.129936 0.647988 0.216046
H16   H     H_    0.214967 0.901552 0.653258 0.160700
H17   H     H_    0.375236 0.435065 0.132328 0.156013
H18   H     H_    0.785948 0.559698 0.083843 0.159855
N1    N     N_R   0.500800 0.501210 0.147910 -0.300746
N2    N     N_R   0.500820 0.501290 0.852040 -0.239665
O1    O     O_R   0.499990 0.319640 0.618810 -0.477308
O2    O     O_2   0.748924 0.346941 0.192576 -0.536931
O3    O     O_2   0.928123 0.209741 0.555192 -0.380560
O4    O     O_R   0.500000 0.319660 0.381240 -0.534762
O5    O     O_R   0.379430 0.499990 0.618840 -0.383016
O6    O     O_R   0.379440 0.500020 0.381260 -0.525937
O7    O     O_R   0.500000 0.680340 0.618760 -0.486806
O8    O     O_R   0.500010 0.680360 0.381190 -0.452315
O9    O     O_R   0.620560 0.499980 0.618740 -0.533896
O10   O     O_R   0.620570 0.500010 0.381160 -0.502216
O11   O     O_2   0.710997 0.069967 0.366497 -0.381948

loop_
_geom_bond_atom_site_label_1
_geom_bond_atom_site_label_2
_ccdc_geom_bond_type
C4    C36   S    
C1    C8    S    
C24   F3    S    
C32   F6    S    
C35   C36   T    
C16   O7    A    
C17   H3    S    
C15   H2    S    
C4    O5    A    
C7    C8    A    
C29   O11   D    
C33   H7    S    
Cu2   N1    S    
C30   H9    S    
C12   C23   S    
C26   H5    S    
C5    C6    A    
C2    H15   S    
C18   C19   A    
C23   C26   S    
C21   F4    S    
Cu1   O1    S    
C28   C35   S    
C8    C9    A    
C32   H13   S    
C9    C10   A    
C30   O2    D    
C9    C29   S    
C26   C31   S    
C13   C14   A    
C10   F2    S    
C22   O10   A    
C25   F5    S    
C17   C18   A    
C3    H16   S    
C27   C34   T    
Cu2   O4    S    
C31   O3    D    
Cu1   O7    S    
C13   C19   A    
C16   O8    A    
C13   C30   S    
C12   H1    S    
C6    C11   A    
C25   C26   S    
C1    O4    A    
C25   C28   S    
C20   N1    A    
C11   C16   S    
Cu1   N2    S    
C19   N1    A    
C23   C34   S    
C1    O1    A    
C7    C37   A    
C37   H14   S    
C12   H12   S    
Cu1   O5    S    
C28   C33   S    
Cu2   O10   S    
C22   C27   S    
C33   H6    S    
C22   O9    A    
Cu1   O9    S    
C15   C17   A    
C21   N2    A    
C24   C28   S    
C3    C5    A    
C6    C7    A    
C24   H11   S    
C12   C24   S    
C23   C32   S    
C2    C3    A    
C32   C33   S    
C2    C37   A    
Cu1   Cu2   S    
C29   H8    S    
C14   H18   S    
Cu2   O8    S    
C20   H17   S    
C25   H4    S    
C10   C11   A    
C20   C21   A    
C5    F1    S    
Cu2   O6    S    
C14   C15   A    
C31   H10   S    
C18   N2    A    
C4    O6    A    
