data_mof_unit_55612.cif
_audit_creation_date              2012-12-10T18:21:18-0500
_audit_creation_method            fapswitch 2.2
_symmetry_space_group_name_H-M    P1
_symmetry_Int_Tables_number       1
_space_group_crystal_system       triclinic
_cell_length_a                    14.997734
_cell_length_b                    14.068069
_cell_length_c                    10.7271
_cell_angle_alpha                 90.572074
_cell_angle_beta                  88.841159
_cell_angle_gamma                 89.60106
_cell_volume                      2262.66797116

loop_
_atom_site_label
_atom_site_type_symbol
_atom_type_description
_atom_site_fract_x
_atom_site_fract_y
_atom_site_fract_z
_atom_type_partial_charge
C1    C     C_R   0.326732 0.500373 0.500824 0.960703
C2    C     C_3   0.588741 0.551556 0.932948 -0.065627
C3    C     C_R   0.816206 0.421031 0.453096 -0.258542
C4    C     C_R   0.769184 0.500294 0.496818 -0.041727
C5    C     C_R   0.812848 0.581180 0.538143 -0.092158
C6    C     C_R   0.905446 0.583454 0.541565 0.033994
C7    C     C_R   0.953693 0.503580 0.493831 0.056873
C8    C     C_R   0.908914 0.422168 0.446550 0.044617
C9    C     C_R   0.950375 0.664497 0.588022 -0.085413
C10   C     C_R   0.044337 0.666948 0.582054 -0.074847
C11   C     C_R   0.092031 0.586291 0.536260 0.039078
C12   C     C_R   0.497028 0.499297 0.258281 0.913693
C13   C     C_R   0.046544 0.504792 0.493255 0.064403
C14   C     C_R   0.094471 0.423696 0.450089 0.069634
C15   C     C_R   0.050657 0.344827 0.402224 -0.165065
C16   C     C_R   0.958028 0.343695 0.396490 -0.049419
C17   C     C_R   0.184965 0.583325 0.536514 -0.205557
C18   C     C_R   0.231105 0.501709 0.497825 -0.029383
C19   C     C_R   0.186461 0.422429 0.453977 -0.181471
C20   C     C_R   0.561394 0.797329 0.427513 0.130281
C21   C     C_R   0.560580 0.200232 0.426133 0.063403
C22   C     C_R   0.441060 0.799521 0.574944 -0.020147
C23   C     C_R   0.440851 0.202382 0.574670 0.021816
C24   C     C_R   0.440785 0.899958 0.577850 0.024051
C25   C     C_R   0.440542 0.101878 0.577418 0.021436
C26   C     C_R   0.673343 0.499826 0.498142 0.973759
C27   C     C_R   0.506831 0.949326 0.509746 0.071255
C28   C     C_R   0.506617 0.050370 0.509410 0.074396
C29   C     C_R   0.572047 0.897612 0.440594 -0.086198
C30   C     C_R   0.571733 0.099924 0.440215 -0.070471
C31   C     C_R   0.376555 0.951948 0.647836 -0.156423
C32   C     C_R   0.376482 0.051877 0.647693 -0.168419
C33   C     C_R   0.646862 0.048357 0.390977 -0.044558
C34   C     C_R   0.646569 0.947393 0.390172 -0.079945
C35   C     C_R   0.501180 0.500262 0.742441 0.920657
C36   C     C_3   0.420461 0.566482 0.073508 -0.242073
C37   C     C_3   0.484156 0.393148 0.070624 -0.264378
C38   C     C_3   0.413021 0.549390 0.931664 -0.327069
C39   C     C_3   0.497581 0.393095 0.927512 -0.307138
C40   C     C_3   0.587241 0.534025 0.076116 -0.610071
C41   C     C_3   0.494298 0.497547 0.122590 -0.015572
C42   C     C_3   0.502490 0.500215 0.879358 -0.086241
H1    H     H_    0.444480 0.640056 0.090298 0.145054
H2    H     H_    0.538941 0.351084 0.111412 0.203329
H3    H     H_    0.222667 0.643227 0.569578 0.149715
H4    H     H_    0.223476 0.360177 0.421153 0.168247
H5    H     H_    0.089325 0.284802 0.366043 0.190650
H6    H     H_    0.392369 0.760659 0.629335 0.145321
H7    H     H_    0.392652 0.242830 0.630287 0.140368
H8    H     H_    0.325825 0.915292 0.701846 0.165431
H9    H     H_    0.325747 0.090066 0.701707 0.160307
H10   H     H_    0.358962 0.496813 0.917574 0.189121
H11   H     H_    0.437473 0.361092 0.884879 0.163381
H12   H     H_    0.606682 0.599376 0.127595 0.194409
H13   H     H_    0.638738 0.480506 0.101766 0.200559
H14   H     H_    0.779366 0.359187 0.424391 0.117908
H15   H     H_    0.773265 0.641957 0.568085 0.228644
N1    N     N_R   0.500070 0.750030 0.500050 -0.135780
N2    N     N_R   0.500070 0.249970 0.500050 -0.126939
O1    O     O_R   0.367860 0.580280 0.500020 -0.639391
O2    O     O_R   0.367860 0.419720 0.500020 -0.631189
O3    O     O_R   0.500000 0.580270 0.314790 -0.642838
O4    O     O_R   0.500000 0.419730 0.314790 -0.631532
O5    O     O_R   0.632160 0.580270 0.499960 -0.556867
O6    O     O_R   0.632160 0.419730 0.499960 -0.655878
O7    O     O_R   0.500030 0.580270 0.685200 -0.577666
O8    O     O_R   0.500030 0.419730 0.685200 -0.605082
Zn1   Zn    Zn3+2 0.500020 0.607200 0.499990 1.031689
Zn2   Zn    Zn3+2 0.500020 0.392800 0.499990 0.992249
C43   C     C_2   0.092867 0.752897 0.625749 0.366299
H16   H     H_    0.147835 0.781041 0.570499 0.059538
O9    O     O_2   0.073078 0.791637 0.724955 -0.525897
C44   C     C_2   0.915515 0.261683 0.333057 0.450442
H17   H     H_    0.850334 0.268572 0.292367 0.077176
O10   O     O_2   0.954278 0.185284 0.322552 -0.511890
C45   C     C_2   0.600861 0.748155 0.317339 0.451101
H18   H     H_    0.572080 0.759883 0.226771 0.001705
O11   O     O_2   0.667200 0.698191 0.324961 -0.554296
C46   C     C_2   0.603888 0.248539 0.319167 0.421412
H19   H     H_    0.631348 0.318569 0.327613 0.084369
O12   O     O_2   0.608573 0.209161 0.217211 -0.532324
C47   C     C_2   0.731012 0.099865 0.361357 0.483405
H20   H     H_    0.749716 0.160206 0.418720 0.016674
O13   O     O_2   0.777845 0.078142 0.271003 -0.522784
C48   C     C_2   0.730219 0.895444 0.356538 0.493850
H21   H     H_    0.760650 0.902831 0.264635 0.126950
O14   O     O_2   0.766392 0.845244 0.433037 -0.551541
C49   C     C_2   0.329065 0.564560 0.138091 0.945855
O15   O     O_2   0.312357 0.509058 0.221997 -0.640922
O16   O     O_R   0.263801 0.629654 0.102240 -0.761013
H22   H     H_    0.205897 0.622870 0.151693 0.355844
C50   C     C_2   0.399402 0.341510 0.110434 0.989008
O17   O     O_2   0.328217 0.358763 0.061517 -0.617692
O18   O     O_R   0.404002 0.270668 0.200646 -0.759505
H23   H     H_    0.343893 0.241056 0.219758 0.343176
C51   C     C_2   0.377683 0.637432 0.866889 0.994901
O19   O     O_2   0.413704 0.714555 0.878290 -0.628471
O20   O     O_R   0.299348 0.630417 0.799107 -0.795055
H24   H     H_    0.278260 0.694232 0.767531 0.335687
C52   C     C_2   0.573270 0.325304 0.887638 1.040398
O21   O     O_2   0.645412 0.327521 0.938731 -0.602595
O22   O     O_R   0.557579 0.255123 0.797711 -0.789076
H25   H     H_    0.611770 0.213342 0.779742 0.351792
C53   C     C_2   0.589086 0.658397 0.910297 0.464888
H26   H     H_    0.566318 0.707849 0.982608 0.090338
O23   O     O_2   0.614741 0.691100 0.810779 -0.489096
C54   C     C_2   0.677932 0.515612 0.879547 0.533041
H27   H     H_    0.737959 0.525156 0.933135 0.086343
O24   O     O_2   0.685143 0.480425 0.775453 -0.579293
C55   C     C_2   0.900525 0.748152 0.640412 0.574284
H28   H     H_    0.917400 0.819205 0.609791 0.105787
O25   O     O_2   0.843875 0.738657 0.722637 -0.522171

loop_
_geom_bond_atom_site_label_1
_geom_bond_atom_site_label_2
_ccdc_geom_bond_type
O7    Zn1   S    
C27   C29   A    
C44   O10   D    
C44   H17   S    
C22   H6    S    
C24   C27   A    
C15   H5    S    
C6    C9    A    
C53   O23   D    
C39   C52   S    
C19   H4    S    
C7    C8    A    
C48   H21   S    
C36   C49   S    
C25   C28   A    
C23   N2    A    
C1    C18   S    
O5    Zn1   S    
C17   H3    S    
C38   C42   S    
C5    C6    A    
C23   H7    S    
C38   H10   S    
C15   C16   A    
C2    C54   S    
C20   C45   S    
C18   C19   A    
C35   C42   S    
C26   O5    A    
C55   H28   S    
C50   O17   D    
O4    Zn2   S    
C51   O20   S    
C54   H27   S    
C43   H16   S    
C35   O8    A    
C9    C10   A    
C37   C50   S    
C25   C32   A    
C8    C16   A    
C13   C14   A    
C54   O24   D    
C36   C41   S    
O22   H25   S    
C52   O22   S    
C53   H26   S    
C17   C18   A    
C39   C42   S    
C20   C29   A    
C48   O14   D    
C16   C44   S    
C45   H18   S    
C3    C8    A    
C1    O1    A    
C46   O12   D    
C12   O4    A    
C35   O7    A    
C29   C34   A    
O8    Zn2   S    
C34   C48   S    
C32   H9    S    
C12   C41   S    
C12   O3    A    
C3    H14   S    
C31   C32   A    
C2    C53   S    
C40   H13   S    
C51   O19   D    
C21   C46   S    
C50   O18   S    
C33   C34   A    
N2    Zn2   S    
C10   C43   S    
N1    Zn1   S    
C40   C41   S    
C49   O16   S    
C47   H20   S    
C47   O13   D    
C22   C24   A    
C31   H8    S    
C20   N1    A    
C3    C4    A    
C33   C47   S    
O2    Zn2   S    
C9    C55   S    
C11   C17   A    
C30   C33   A    
C26   O6    A    
C14   C19   A    
C45   O11   D    
C4    C5    A    
C1    O2    A    
C22   N1    A    
C4    C26   S    
C21   N2    A    
C6    C7    A    
C5    H15   S    
C21   C30   A    
C40   H12   S    
O3    Zn1   S    
C37   H2    S    
C36   C38   S    
C24   C31   A    
C37   C39   S    
C11   C13   A    
O16   H22   S    
C39   H11   S    
C2    C42   S    
O6    Zn2   S    
C28   C30   A    
C52   O21   D    
C23   C25   A    
C37   C41   S    
O18   H23   S    
C55   O25   D    
C10   C11   A    
C46   H19   S    
C2    C40   S    
C7    C13   A    
C49   O15   D    
O1    Zn1   S    
O20   H24   S    
C38   C51   S    
C27   C28   A    
C14   C15   A    
C36   H1    S    
C43   O9    D    
