data_mof_unit_8437.cif
_audit_creation_date              2012-12-11T15:45:02-0500
_audit_creation_method            fapswitch 2.2
_symmetry_space_group_name_H-M    P1
_symmetry_Int_Tables_number       1
_space_group_crystal_system       triclinic
_cell_length_a                    6.926483
_cell_length_b                    16.829474
_cell_length_c                    17.075822
_cell_angle_alpha                 100.401348
_cell_angle_beta                  91.189259
_cell_angle_gamma                 88.976624
_cell_volume                      1957.17963587

loop_
_atom_site_label
_atom_site_type_symbol
_atom_type_description
_atom_site_fract_x
_atom_site_fract_y
_atom_site_fract_z
_atom_type_partial_charge
O1    O     O_R   0.494370 0.415690 0.413450 -0.541264
O2    O     O_R   0.819420 0.429360 0.578420 -0.545333
O3    O     O_R   0.994280 0.584310 0.586550 -0.541337
C1    C     C_R   0.654632 0.413603 0.605411 0.699268
O4    O     O_R   0.823790 0.406230 0.413570 -0.541073
O5    O     O_R   0.998670 0.561000 0.420530 -0.541094
C2    C     C_R   0.654858 0.383256 0.384848 0.712901
O6    O     O_R   0.489970 0.439000 0.579470 -0.536512
O7    O     O_3   0.662300 0.550810 0.502470 -0.370238
V1    V     V_3+5 0.935380 0.490570 0.499540 1.408414
O8    O     O_R   0.328650 0.570640 0.421580 -0.539761
C3    C     C_R   0.155967 0.586410 0.394945 0.707751
O9    O     O_R   0.324290 0.593770 0.586430 -0.544206
C4    C     C_R   0.155271 0.616905 0.615092 0.683814
V2    V     V_3+5 0.435930 0.509430 0.500460 1.405250
O10   O     O_3   0.159140 0.449190 0.497530 -0.368259
C5    C     C_R   0.311930 0.724095 0.717920 -0.155687
H1    H     H_    0.452653 0.705170 0.694361 0.116103
C6    C     C_R   0.300545 0.787879 0.783002 -0.150933
H2    H     H_    0.433149 0.816205 0.807384 0.116457
C7    C     C_R   0.120951 0.814748 0.815988 -0.042740
C8    C     C_R   0.953070 0.776006 0.781945 -0.155736
H3    H     H_    0.812344 0.794925 0.805504 0.115326
C9    C     C_R   0.964454 0.712224 0.716865 -0.150108
H4    H     H_    0.831847 0.683898 0.692488 0.118696
C10   C     C_R   0.144047 0.685348 0.683882 -0.046437
C11   C     C_R   0.127394 0.639243 0.334156 -0.070340
C12   C     C_R   0.137481 0.860550 0.165674 -0.070950
C13   C     C_R   0.357805 0.808440 0.259169 -0.199656
C14   C     C_R   0.315718 0.862419 0.207714 -0.159144
C15   C     C_R   0.999657 0.803998 0.177970 -0.240191
C16   C     C_R   0.041987 0.748919 0.229560 0.158836
C17   C     C_R   0.222909 0.750845 0.270238 0.161133
C18   C     C_R   0.265230 0.695777 0.321836 -0.240149
C19   C     C_R   0.949169 0.637363 0.292111 -0.148673
C20   C     C_R   0.907093 0.691326 0.240636 -0.195874
H5    H     H_    0.402333 0.698553 0.353952 0.123630
H6    H     H_    0.839618 0.594390 0.299718 0.134560
H7    H     H_    0.496875 0.811384 0.289777 0.119984
H8    H     H_    0.768027 0.688381 0.210030 0.124595
H9    H     H_    0.425266 0.905405 0.200128 0.127292
H10   H     H_    0.862547 0.801228 0.145857 0.124423
C21   C     C_R   0.665055 0.360900 0.667000 -0.069174
C22   C     C_R   0.599717 0.139413 0.833264 -0.067596
C23   C     C_R   0.399696 0.196768 0.736587 -0.196692
C24   C     C_R   0.426880 0.141790 0.788283 -0.154045
C25   C     C_R   0.747701 0.192738 0.823721 -0.226992
C26   C     C_R   0.720276 0.249004 0.772004 0.156100
C27   C     C_R   0.544433 0.251378 0.728339 0.160491
C28   C     C_R   0.517032 0.307615 0.676596 -0.238734
C29   C     C_R   0.837860 0.358559 0.712009 -0.160006
C30   C     C_R   0.865008 0.303618 0.763750 -0.190815
H11   H     H_    0.384045 0.307975 0.642037 0.121968
H12   H     H_    0.954863 0.398911 0.706384 0.130020
H13   H     H_    0.264298 0.197030 0.703656 0.120100
H14   H     H_    0.000398 0.303365 0.796690 0.130379
H15   H     H_    0.309891 0.101421 0.793878 0.125234
H16   H     H_    0.880695 0.192363 0.858273 0.134478
C31   C     C_R   0.801150 0.263063 0.294975 -0.127999
H17   H     H_    0.933958 0.270137 0.329984 0.137496
C32   C     C_R   0.788173 0.199551 0.229712 -0.151504
H18   H     H_    0.911304 0.159072 0.216844 0.167474
C33   C     C_R   0.618581 0.187625 0.182304 -0.135686
C34   C     C_R   0.461224 0.242355 0.202009 0.382659
C35   C     C_R   0.474459 0.304647 0.268385 -0.185305
H19   H     H_    0.352442 0.345650 0.282101 0.156139
C36   C     C_R   0.643597 0.315822 0.315548 -0.120444
O11   O     O_R   0.774880 0.061150 0.920630 -0.538612
O12   O     O_R   0.440980 0.093710 0.086500 -0.506311
O13   O     O_R   0.266190 0.938890 0.079390 -0.544333
C37   C     C_R   0.609513 0.118061 0.114251 0.747306
O14   O     O_R   0.445420 0.070740 0.921670 -0.539562
O15   O     O_R   0.270660 0.915760 0.913380 -0.546676
C38   C     C_R   0.610203 0.086595 0.894746 0.705839
O16   O     O_R   0.770400 0.084270 0.086640 -0.536256
O17   O     O_3   0.602590 0.949210 0.997500 -0.382003
V3    V     V_3+5 0.329470 0.009420 0.000470 1.485639
O18   O     O_R   0.940650 0.906250 0.913470 -0.548153
C39   C     C_R   0.109693 0.883161 0.884806 0.668782
O19   O     O_R   0.936210 0.929220 0.078300 -0.544431
C40   C     C_R   0.108892 0.913436 0.104931 0.696380
V4    V     V_3+5 0.828930 0.990510 0.999490 1.432387
O20   O     O_3   0.105680 0.050790 0.002500 -0.341132
Cl1   Cl    Cl    0.246722 0.239377 0.144119 -0.669147

loop_
_geom_bond_atom_site_label_1
_geom_bond_atom_site_label_2
_ccdc_geom_bond_type
C15   H10   S    
C18   H5    S    
O12   V3    S    
C19   C20   A    
C1    O6    A    
C23   C24   A    
O14   V3    S    
C5    C10   A    
C16   C20   A    
C6    C7    A    
C9    C10   A    
O5    C3    A    
V3    O20   S    
O11   C38   A    
V2    O10   S    
C13   C17   A    
C32   C33   A    
O12   C37   A    
O13   C40   A    
C34   Cl1   S    
C31   C36   A    
O8    V2    S    
C15   C16   A    
C35   C36   A    
C14   H9    S    
O1    V2    S    
O7    V1    S    
C22   C25   A    
C31   H17   S    
O9    C4    A    
O13   V3    S    
C13   H7    S    
C22   C24   A    
C17   C18   A    
C11   C18   A    
C31   C32   A    
C28   H11   S    
C3    C11   S    
C29   C30   A    
C20   H8    S    
C19   H6    S    
C9    H4    S    
O19   V4    S    
O17   V4    S    
O4    C2    A    
O18   C39   A    
C11   C19   A    
V4    O20   S    
C4    C10   S    
O2    C1    A    
C13   C14   A    
O18   V4    S    
C25   C26   A    
C23   C27   A    
C7    C39   S    
C5    H1    S    
O15   C39   A    
C21   C28   A    
O17   V3    S    
C22   C38   S    
O3    C4    A    
O14   C38   A    
C26   C27   A    
C33   C37   S    
C35   H19   S    
O6    V2    S    
O9    V2    S    
C24   H15   S    
C8    C9    A    
O2    V1    S    
C12   C40   S    
O1    C2    A    
C12   C15   A    
O19   C40   A    
O5    V1    S    
O8    C3    A    
O16   V4    S    
C1    C21   S    
C29   H12   S    
O11   V4    S    
C16   C17   A    
C6    H2    S    
C12   C14   A    
O7    V2    S    
O4    V1    S    
O3    V1    S    
V1    O10   S    
C34   C35   A    
C25   H16   S    
C37   O16   A    
C21   C29   A    
C5    C6    A    
C32   H18   S    
C2    C36   S    
C33   C34   A    
C26   C30   A    
C23   H13   S    
C27   C28   A    
O15   V3    S    
C8    H3    S    
C7    C8    A    
C30   H14   S    
