data_mof_unit_30817.cif
_audit_creation_date              2012-12-11T15:50:34-0500
_audit_creation_method            fapswitch 2.2
_symmetry_space_group_name_H-M    P1
_symmetry_Int_Tables_number       1
_space_group_crystal_system       triclinic
_cell_length_a                    6.913688
_cell_length_b                    14.651857
_cell_length_c                    16.118552
_cell_angle_alpha                 90.000464
_cell_angle_beta                  90.047228
_cell_angle_gamma                 90.007262
_cell_volume                      1632.78244295

loop_
_atom_site_label
_atom_site_type_symbol
_atom_type_description
_atom_site_fract_x
_atom_site_fract_y
_atom_site_fract_z
_atom_type_partial_charge
O1    O     O_R   0.638140 0.833910 0.163320 -0.533054
O2    O     O_R   0.361860 0.166090 0.836680 -0.552792
O3    O     O_R   0.361860 0.166090 0.663320 -0.530574
O4    O     O_R   0.638140 0.833910 0.336680 -0.553177
O5    O     O_R   0.138140 0.666090 0.336680 -0.538234
O6    O     O_R   0.861860 0.333910 0.663320 -0.543994
O7    O     O_R   0.861860 0.333910 0.836680 -0.532121
O8    O     O_R   0.138140 0.666090 0.163320 -0.554873
O9    O     O_R   0.308390 0.844930 0.336080 -0.487541
O10   O     O_R   0.691610 0.155070 0.663920 -0.539950
O11   O     O_R   0.691610 0.155070 0.836080 -0.487387
O12   O     O_R   0.308390 0.844930 0.163920 -0.540740
O13   O     O_R   0.808390 0.655070 0.163920 -0.487382
O14   O     O_R   0.191610 0.344930 0.836080 -0.544474
O15   O     O_R   0.191610 0.344930 0.663920 -0.507478
O16   O     O_R   0.808390 0.655070 0.336080 -0.539738
C1    C     C_R   0.478169 0.866134 0.365805 0.758876
C2    C     C_R   0.521943 0.133294 0.634758 0.739907
C3    C     C_R   0.521974 0.133891 0.865815 0.761574
C4    C     C_R   0.477967 0.866735 0.134765 0.737842
C5    C     C_R   0.978007 0.633710 0.134364 0.759385
C6    C     C_R   0.022147 0.366597 0.865389 0.730039
C7    C     C_R   0.021707 0.366703 0.634635 0.705830
C8    C     C_R   0.978108 0.632895 0.364845 0.736279
O17   O     O_3   0.471620 0.691320 0.250000 -0.360783
O18   O     O_3   0.528380 0.308680 0.750000 -0.361300
O19   O     O_3   0.971620 0.808680 0.250000 -0.357065
O20   O     O_3   0.028380 0.191320 0.750000 -0.353750
V1    V     V_3+5 0.196770 0.760880 0.250000 1.630062
V2    V     V_3+5 0.803230 0.239120 0.750000 1.638046
V3    V     V_3+5 0.696770 0.739120 0.250000 1.632818
V4    V     V_3+5 0.303230 0.260880 0.750000 1.613509
C9    C     C_R   0.859496 0.490111 0.436360 0.373694
C10   C     C_R   0.143007 0.508287 0.561431 0.373982
C11   C     C_R   0.141133 0.509157 0.937250 0.375572
C12   C     C_R   0.856825 0.492844 0.062378 0.363671
C13   C     C_R   0.361189 0.010291 0.064080 0.373885
C14   C     C_R   0.642400 0.992889 0.937690 0.363984
C15   C     C_R   0.639277 0.990030 0.564028 0.375707
C16   C     C_R   0.357414 0.006998 0.437686 0.363869
C17   C     C_R   0.863263 0.428600 0.503478 -0.053234
C18   C     C_R   0.137436 0.570359 0.494825 -0.093675
C19   C     C_R   0.136115 0.571634 0.003393 -0.093643
C20   C     C_R   0.864324 0.428338 0.996499 -0.135127
C21   C     C_R   0.365378 0.072577 0.997669 -0.091926
C22   C     C_R   0.635250 0.928465 0.003612 -0.136505
C23   C     C_R   0.635632 0.927858 0.497525 -0.092476
C24   C     C_R   0.364320 0.071402 0.503632 -0.138557
C25   C     C_R   0.007369 0.435832 0.566359 -0.259125
C26   C     C_R   0.991718 0.563857 0.432892 -0.304235
C27   C     C_R   0.991244 0.565245 0.065646 -0.199102
C28   C     C_R   0.009259 0.435224 0.934087 -0.267288
C29   C     C_R   0.508772 0.065598 0.934752 -0.198379
C30   C     C_R   0.491297 0.935668 0.066410 -0.268923
C31   C     C_R   0.491647 0.934521 0.434682 -0.198407
C32   C     C_R   0.508535 0.064372 0.566419 -0.270232
O21   O     O_3   0.725495 0.474920 0.374123 -0.601824
H1    H     H_    0.785154 0.491219 0.320279 0.306224
O22   O     O_3   0.279609 0.522885 0.622606 -0.596968
H2    H     H_    0.220202 0.508163 0.676761 0.281438
O23   O     O_3   0.276190 0.523616 0.875500 -0.597016
H3    H     H_    0.215465 0.508467 0.821666 0.283013
O24   O     O_3   0.723530 0.485892 0.126268 -0.616915
H4    H     H_    0.666919 0.424002 0.128172 0.310811
O25   O     O_3   0.228867 0.025587 0.126853 -0.598091
H5    H     H_    0.289652 0.008929 0.180414 0.305818
O26   O     O_3   0.774646 0.985557 0.873435 -0.616738
H6    H     H_    0.830121 0.923439 0.871306 0.311916
O27   O     O_3   0.771994 0.975023 0.626798 -0.596641
H7    H     H_    0.710813 0.991081 0.680390 0.306536
O28   O     O_3   0.224867 0.014172 0.373437 -0.616661
H8    H     H_    0.169145 0.076234 0.371278 0.310795
C33   C     C_2   0.720045 0.353508 0.501959 0.866013
O29   O     O_2   0.585796 0.353034 0.551256 -0.511600
O30   O     O_R   0.731535 0.287150 0.439887 -0.648900
H9    H     H_    0.624914 0.239930 0.444134 0.306396
C34   C     C_2   0.286776 0.642759 0.492881 0.877937
O31   O     O_2   0.240102 0.723209 0.494845 -0.562362
O32   O     O_R   0.481660 0.618023 0.489131 -0.618204
H10   H     H_    0.570026 0.672669 0.483254 0.290548
C35   C     C_2   0.278705 0.646979 0.001466 0.862085
O33   O     O_2   0.413232 0.647974 0.050708 -0.512661
O34   O     O_R   0.266313 0.712959 0.939087 -0.645910
H11   H     H_    0.372624 0.760376 0.943064 0.308071
C36   C     C_2   0.714804 0.356174 0.991987 0.785775
O35   O     O_2   0.760311 0.275811 0.997744 -0.553339
O36   O     O_R   0.521476 0.380978 0.981015 -0.631291
H12   H     H_    0.433559 0.326212 0.974677 0.293486
C37   C     C_2   0.223226 0.148086 0.999763 0.859527
O37   O     O_2   0.089295 0.149618 0.950235 -0.513313
O38   O     O_R   0.235151 0.213583 0.062587 -0.645897
H13   H     H_    0.129018 0.261093 0.058685 0.307266
C38   C     C_2   0.784877 0.856348 0.007984 0.785945
O39   O     O_2   0.739491 0.775962 0.002298 -0.553267
O40   O     O_R   0.978230 0.881262 0.018751 -0.631944
H14   H     H_    0.066296 0.826545 0.024982 0.293676
C39   C     C_2   0.779403 0.852981 0.499475 0.858611
O41   O     O_2   0.911148 0.851228 0.448982 -0.514255
O42   O     O_R   0.772217 0.788710 0.563462 -0.640235
H15   H     H_    0.879214 0.741659 0.559438 0.310241
C40   C     C_2   0.214266 0.143329 0.508006 0.788958
O43   O     O_2   0.259236 0.223797 0.502663 -0.552076
O44   O     O_R   0.020976 0.118145 0.518336 -0.631950
H16   H     H_    0.932567 0.172736 0.524541 0.295685

loop_
_geom_bond_atom_site_label_1
_geom_bond_atom_site_label_2
_ccdc_geom_bond_type
O17   V3    S    
O36   H12   S    
O18   V4    S    
C38   O39   D    
C16   O28   S    
O12   V1    S    
O19   V1    S    
C33   O29   D    
O40   H14   S    
C10   C18   A    
C19   C27   A    
C39   O41   D    
O15   V4    S    
C36   O35   D    
O16   V3    S    
C14   C29   A    
O11   C3    A    
C40   O43   D    
O34   H11   S    
O8    V1    S    
C15   C23   A    
C7    C25   S    
C24   C40   S    
O1    V3    S    
O3    C2    A    
O2    V4    S    
C16   C24   A    
O44   H16   S    
C39   O42   S    
C15   C32   A    
O11   V2    S    
C10   C25   A    
C13   O25   S    
C37   O38   S    
C12   O24   S    
C11   C19   A    
C1    C31   S    
C2    C32   S    
C3    C29   S    
O15   C7    A    
C23   C31   A    
C21   C29   A    
O22   H2    S    
O16   C8    A    
O7    V2    S    
C8    C26   S    
C33   O30   S    
C22   C30   A    
O23   H3    S    
C17   C25   A    
C35   O34   S    
C35   O33   D    
O5    V1    S    
C34   O32   S    
O17   V1    S    
C36   O36   S    
O19   V3    S    
O26   H6    S    
O20   V4    S    
C4    C30   S    
O38   H13   S    
C9    C26   A    
C34   O31   D    
O24   H4    S    
O30   H9    S    
O10   V2    S    
O42   H15   S    
C16   C31   A    
O12   C4    A    
O8    C5    A    
C15   O27   S    
O13   C5    A    
O3    V4    S    
C11   O23   S    
C12   C27   A    
C18   C26   A    
C13   C30   A    
O9    C1    A    
O6    V2    S    
O18   V2    S    
C10   O22   S    
C19   C35   S    
C12   C20   A    
O4    C1    A    
C13   C21   A    
C20   C36   S    
C5    C27   S    
C21   C37   S    
C6    C28   S    
C24   C32   A    
O1    C4    A    
C9    O21   S    
O2    C3    A    
O13   V3    S    
O14   V4    S    
O9    V1    S    
O7    C6    A    
C23   C39   S    
C9    C17   A    
O14   C6    A    
O20   V2    S    
O28   H8    S    
C20   C28   A    
O21   H1    S    
C38   O40   S    
O5    C8    A    
O10   C2    A    
O6    C7    A    
C22   C38   S    
O27   H7    S    
C14   C22   A    
O4    V3    S    
C17   C33   S    
O32   H10   S    
C14   O26   S    
C18   C34   S    
C40   O44   S    
O25   H5    S    
C11   C28   A    
C37   O37   D    
