data_mof_unit_56282.cif
_audit_creation_date              2012-12-10T19:45:01-0500
_audit_creation_method            fapswitch 2.2
_symmetry_space_group_name_H-M    P1
_symmetry_Int_Tables_number       1
_space_group_crystal_system       triclinic
_cell_length_a                    15.032618
_cell_length_b                    11.101243
_cell_length_c                    13.901389
_cell_angle_alpha                 88.85136
_cell_angle_beta                  91.028266
_cell_angle_gamma                 89.485605
_cell_volume                      2318.93330785

loop_
_atom_site_label
_atom_site_type_symbol
_atom_type_description
_atom_site_fract_x
_atom_site_fract_y
_atom_site_fract_z
_atom_type_partial_charge
Br1   Br    Br    0.743421 0.751445 0.460985 -0.609237
Br2   Br    Br    0.256576 0.248556 0.539014 -0.609240
Br3   Br    Br    0.624482 0.130087 0.267086 -0.552335
Br4   Br    Br    0.375521 0.869901 0.732915 -0.552335
C1    C     C_R   0.499827 0.262331 0.500758 0.854306
C2    C     C_R   0.559027 0.867422 0.671851 0.022969
C3    C     C_R   0.497874 0.153402 0.249861 0.303650
C4    C     C_R   0.502130 0.846594 0.750139 0.303650
C5    C     C_R   0.461145 0.183972 0.158332 0.107003
C6    C     C_R   0.538860 0.816027 0.841667 0.107002
C7    C     C_R   0.368532 0.197699 0.146969 -0.165925
C8    C     C_R   0.631473 0.802304 0.853029 -0.165930
C9    C     C_R   0.475156 0.939980 0.414403 0.148302
C10   C     C_R   0.524843 0.060020 0.585597 0.148300
C11   C     C_R   0.500861 0.871927 0.498503 -0.102068
C12   C     C_R   0.500173 0.737669 0.499242 0.854308
C13   C     C_R   0.499139 0.128073 0.501497 -0.102070
C14   C     C_R   0.525980 0.933076 0.583573 0.043233
C15   C     C_R   0.474020 0.066923 0.416427 0.043232
C16   C     C_R   0.329447 0.500947 0.499567 0.894079
C17   C     C_R   0.670553 0.499053 0.500433 0.894081
C18   C     C_R   0.578731 0.485659 0.796756 0.299815
C19   C     C_R   0.421269 0.514341 0.203244 0.299814
C20   C     C_R   0.422278 0.483756 0.793845 0.283194
C21   C     C_R   0.577722 0.516242 0.206155 0.283189
C22   C     C_R   0.420012 0.502494 0.895077 -0.040044
C23   C     C_R   0.052038 0.283697 0.492319 -0.158325
C24   C     C_R   0.579988 0.497505 0.104923 -0.040039
C25   C     C_R   0.500372 0.501196 0.948593 -0.064025
C26   C     C_R   0.499628 0.498803 0.051407 -0.064020
C27   C     C_R   0.581327 0.499734 0.899163 -0.012023
C28   C     C_R   0.418673 0.500266 0.100837 -0.012025
C29   C     C_R   0.338787 0.513449 0.944595 0.152280
C30   C     C_R   0.661213 0.486550 0.055405 0.152278
C31   C     C_R   0.337522 0.498366 0.045748 0.171802
C32   C     C_R   0.662479 0.501634 0.954251 0.171805
C33   C     C_R   0.811238 0.605233 0.489657 0.129624
C34   C     C_R   0.947962 0.716306 0.507673 -0.158327
C35   C     C_R   0.188761 0.394769 0.510341 0.129621
C36   C     C_R   0.766983 0.496007 0.500505 -0.123213
C37   C     C_R   0.233017 0.503995 0.499494 -0.123212
C38   C     C_R   0.813671 0.385008 0.506270 0.078621
C39   C     C_R   0.186329 0.614994 0.493729 0.078627
C40   C     C_R   0.907884 0.384827 0.495920 0.100225
C41   C     C_R   0.092116 0.615177 0.504074 0.100225
C42   C     C_R   0.952918 0.497784 0.498739 -0.040850
C43   C     C_R   0.047082 0.502219 0.501256 -0.040853
C44   C     C_R   0.903962 0.606935 0.497478 0.033902
C45   C     C_R   0.312255 0.179008 0.225091 0.170980
C46   C     C_R   0.096037 0.393068 0.502517 0.033904
C47   C     C_R   0.959743 0.277941 0.483854 0.152755
C48   C     C_R   0.040257 0.722063 0.516137 0.152762
C49   C     C_3   0.443485 0.878000 0.323247 -0.796968
C50   C     C_3   0.556512 0.121999 0.676754 -0.796969
C51   C     C_3   0.650070 0.405389 0.757369 -0.795340
C52   C     C_3   0.349929 0.594610 0.242631 -0.795338
C53   C     C_3   0.353818 0.396874 0.755309 -0.704242
C54   C     C_3   0.646182 0.603125 0.244691 -0.704240
C55   C     C_3   0.254217 0.554242 0.891819 -0.836851
C56   C     C_R   0.687750 0.820997 0.774906 0.170981
C57   C     C_3   0.745783 0.445760 0.108180 -0.836858
C58   C     C_3   0.249294 0.468651 0.091137 -0.885416
C59   C     C_3   0.750706 0.531349 0.908862 -0.885420
C60   C     C_3   0.762922 0.271141 0.530981 -0.835305
C61   C     C_3   0.237081 0.728861 0.469021 -0.835307
C62   C     C_3   0.922705 0.159373 0.449839 -0.820074
C63   C     C_3   0.077294 0.840634 0.550145 -0.820086
C64   C     C_3   0.212905 0.184387 0.212351 -0.867476
C65   C     C_3   0.787100 0.815620 0.787645 -0.867469
C66   C     C_3   0.519009 0.191779 0.071265 -0.800609
C67   C     C_R   0.348849 0.146844 0.315073 -0.176165
C68   C     C_3   0.480997 0.808218 0.928735 -0.800602
C69   C     C_R   0.651154 0.853161 0.684925 -0.176165
C70   C     C_R   0.440975 0.132577 0.328148 0.022969
Cu1   Cu    Cu3+1 0.500010 0.499980 0.597420 0.962176
Cu2   Cu    Cu3+1 0.499990 0.500020 0.402580 0.962175
H1    H     H_    0.089872 0.201077 0.485553 0.193696
H2    H     H_    0.576453 0.063810 0.738745 0.220810
H3    H     H_    0.617555 0.170910 0.659208 0.208021
H4    H     H_    0.503178 0.179133 0.706272 0.260719
H5    H     H_    0.621312 0.351572 0.700223 0.256886
H6    H     H_    0.707219 0.456724 0.729401 0.243009
H7    H     H_    0.674307 0.337941 0.812095 0.205114
H8    H     H_    0.292780 0.543275 0.270599 0.243008
H9    H     H_    0.378687 0.648427 0.299777 0.256888
H10   H     H_    0.325692 0.662058 0.187905 0.205114
H11   H     H_    0.331035 0.334429 0.813126 0.197329
H12   H     H_    0.910127 0.798925 0.514437 0.193696
H13   H     H_    0.294492 0.444553 0.724543 0.244700
H14   H     H_    0.383113 0.337232 0.701480 0.276198
H15   H     H_    0.668969 0.665565 0.186873 0.197330
H16   H     H_    0.616887 0.662770 0.298517 0.276197
H17   H     H_    0.705507 0.555444 0.275459 0.244701
H18   H     H_    0.269127 0.604279 0.824170 0.254923
H19   H     H_    0.211395 0.475876 0.876087 0.232573
H20   H     H_    0.216445 0.618747 0.935851 0.244815
H21   H     H_    0.788604 0.524127 0.123913 0.232573
H22   H     H_    0.730874 0.395722 0.175830 0.254920
H23   H     H_    0.339985 0.219020 0.076489 0.160629
H24   H     H_    0.783557 0.381255 0.064148 0.244816
H25   H     H_    0.258982 0.415551 0.158511 0.250827
H26   H     H_    0.210733 0.552116 0.104692 0.241460
H27   H     H_    0.209169 0.410325 0.043453 0.238673
H28   H     H_    0.789266 0.447884 0.895306 0.241460
H29   H     H_    0.741019 0.584450 0.841489 0.250827
H30   H     H_    0.790833 0.589672 0.956546 0.238674
H31   H     H_    0.695856 0.289456 0.558001 0.205771
H32   H     H_    0.752354 0.215442 0.466716 0.268356
H33   H     H_    0.797499 0.220537 0.590449 0.232829
H34   H     H_    0.660022 0.780984 0.923509 0.160629
H35   H     H_    0.304150 0.710546 0.442010 0.205770
H36   H     H_    0.202510 0.779461 0.409548 0.232827
H37   H     H_    0.247643 0.784561 0.533285 0.268358
H38   H     H_    0.875796 0.175344 0.388306 0.258101
H39   H     H_    0.975612 0.099477 0.422077 0.221653
H40   H     H_    0.891708 0.108109 0.509376 0.239256
H41   H     H_    0.124198 0.824670 0.611681 0.258101
H42   H     H_    0.108295 0.891890 0.490607 0.239257
H43   H     H_    0.024386 0.900535 0.577896 0.221653
H44   H     H_    0.192923 0.206464 0.136714 0.232227
H45   H     H_    0.305029 0.122820 0.373065 0.199354
H46   H     H_    0.184199 0.095690 0.232242 0.239268
H47   H     H_    0.184951 0.254078 0.259752 0.245869
H48   H     H_    0.807083 0.793537 0.863281 0.232226
H49   H     H_    0.815055 0.745931 0.740241 0.245870
H50   H     H_    0.815806 0.904318 0.767758 0.239267
H51   H     H_    0.547092 0.101281 0.056610 0.249774
H52   H     H_    0.480992 0.223920 0.006293 0.219892
H53   H     H_    0.574591 0.254543 0.083952 0.261701
H54   H     H_    0.519016 0.776083 0.993707 0.219891
H55   H     H_    0.452909 0.898714 0.943388 0.249774
H56   H     H_    0.694973 0.877187 0.626933 0.199355
H57   H     H_    0.425417 0.745448 0.916050 0.261699
H58   H     H_    0.423543 0.936189 0.261255 0.220809
H59   H     H_    0.496820 0.820866 0.293727 0.260719
H60   H     H_    0.382443 0.829089 0.340795 0.208020
N1    N     N_R   0.499960 0.499900 0.743810 -0.196328
N2    N     N_R   0.500040 0.500100 0.256190 -0.196329
O1    O     O_R   0.500000 0.319630 0.582270 -0.611832
O2    O     O_R   0.500000 0.680370 0.417730 -0.611831
O3    O     O_R   0.499990 0.319660 0.417730 -0.554995
O4    O     O_R   0.500010 0.680340 0.582270 -0.554993
O5    O     O_R   0.370260 0.499960 0.582280 -0.568987
O6    O     O_R   0.629740 0.500040 0.417720 -0.568988
O7    O     O_R   0.370250 0.499990 0.417740 -0.594712
O8    O     O_R   0.629750 0.500010 0.582260 -0.594712

loop_
_geom_bond_atom_site_label_1
_geom_bond_atom_site_label_2
_ccdc_geom_bond_type
C66   H51   S    
C11   C14   A    
C45   C64   S    
C63   H43   S    
C10   C14   A    
C19   N2    A    
C57   H22   S    
C16   O5    A    
Br4   C4    S    
C8    H34   S    
C16   C37   S    
C60   H33   S    
C19   C52   S    
C35   C37   A    
C21   C24   A    
C18   N1    A    
C53   H13   S    
C2    C69   A    
C54   H17   S    
C20   C22   A    
C58   H27   S    
C33   C36   A    
Br3   C3    S    
C1    C13   S    
C11   C12   S    
C56   C69   A    
C59   H30   S    
C7    H23   S    
C61   H35   S    
C13   C15   A    
C52   H10   S    
Br2   C35   S    
C40   C42   A    
C20   C53   S    
C49   H59   S    
C60   H31   S    
C52   H8    S    
C55   H18   S    
C61   H37   S    
C3    C70   A    
C32   C59   S    
C54   H15   S    
C50   H4    S    
C23   C46   A    
Br1   C33   S    
C58   H25   S    
Cu2   O3    S    
Cu2   O2    S    
C69   H56   S    
C24   C30   A    
C29   C55   S    
C53   H14   S    
C37   C39   A    
C10   C13   A    
C12   O2    A    
C49   H60   S    
C38   C40   A    
C63   H41   S    
C6    C8    A    
C64   H47   S    
C23   C47   A    
C1    O1    A    
C43   C46   A    
C9    C49   S    
C41   C43   A    
Cu1   O8    S    
C2    C14   S    
C42   C44   A    
C17   O8    A    
C18   C27   A    
C9    C15   A    
C28   C31   A    
C5    C66   S    
C62   H39   S    
C64   H46   S    
C2    C4    A    
C65   H48   S    
C30   C57   S    
C53   H11   S    
C34   H12   S    
C51   H6    S    
C47   C62   S    
C12   O4    A    
Cu1   Cu2   S    
C61   H36   S    
C25   C26   A    
C7    C45   A    
Cu1   O4    S    
C39   C41   A    
C22   C29   A    
C1    O3    A    
C39   C61   S    
C33   C44   A    
C5    C7    A    
C48   C63   S    
Cu1   O5    S    
C55   H19   S    
Cu2   O6    S    
C40   C47   A    
C10   C50   S    
C65   H50   S    
C9    C11   A    
Cu1   N1    S    
C57   H24   S    
C51   H5    S    
C21   C54   S    
C51   H7    S    
C38   C60   S    
C68   H55   S    
C50   H3    S    
C66   H52   S    
C3    C5    A    
C42   C43   A    
C62   H38   S    
C27   C32   A    
C34   C44   A    
C67   H45   S    
C15   C70   S    
C57   H21   S    
C49   H58   S    
C17   O6    A    
C59   H28   S    
C23   H1    S    
Cu2   O7    S    
C67   C70   A    
C68   H54   S    
C18   C51   S    
Cu2   N2    S    
C20   N1    A    
C52   H9    S    
C41   C48   A    
C19   C28   A    
C24   C26   A    
C21   N2    A    
C62   H40   S    
C25   C27   A    
Cu1   O1    S    
C64   H44   S    
C26   C28   A    
C68   H57   S    
C17   C36   S    
C45   C67   A    
C56   C65   S    
C36   C38   A    
C29   C31   A    
C31   C58   S    
C30   C32   A    
C66   H53   S    
C63   H42   S    
C59   H29   S    
C65   H49   S    
C8    C56   A    
C35   C46   A    
C34   C48   A    
C22   C25   A    
C4    C6    A    
C55   H20   S    
C16   O7    A    
C50   H2    S    
C54   H16   S    
C60   H32   S    
C58   H26   S    
C6    C68   S    
