data_mof_unit_21013.cif
_audit_creation_date              2012-12-10T16:53:58-0500
_audit_creation_method            fapswitch 2.2
_symmetry_space_group_name_H-M    P1
_symmetry_Int_Tables_number       1
_space_group_crystal_system       triclinic
_cell_length_a                    7.811533
_cell_length_b                    8.55596
_cell_length_c                    10.640676
_cell_angle_alpha                 91.900797
_cell_angle_beta                  84.85698
_cell_angle_gamma                 93.839378
_cell_volume                      706.454374101

loop_
_atom_site_label
_atom_site_type_symbol
_atom_type_description
_atom_site_fract_x
_atom_site_fract_y
_atom_site_fract_z
_atom_type_partial_charge
C1    C     C_R   0.545731 0.794599 0.497193 0.978744
C2    C     C_3   0.457877 0.671580 0.938563 0.505700
C3    C     C_3   0.458036 0.663487 0.083875 -0.373795
C4    C     C_3   0.368259 0.373715 0.929674 -0.476338
C5    C     C_3   0.680143 0.462382 0.915606 -0.415262
C6    C     C_3   0.501014 0.505157 0.878545 0.039110
C7    C     C_3   0.283512 0.728836 0.906371 -0.808587
C8    C     C_3   0.994028 0.690601 0.583856 -0.450270
C9    C     C_3   0.497065 0.497225 0.121370 -0.022953
C10   C     C_3   0.360217 0.372245 0.074187 0.238219
C11   C     C_3   0.678167 0.459905 0.058310 -0.415727
C12   C     C_2   0.569702 0.958283 0.496036 -0.338895
C13   C     C_2   0.430297 0.041727 0.506151 -0.368935
C14   C     C_R   0.501250 0.503537 0.741992 0.906323
C15   C     C_R   0.454264 0.205400 0.503594 0.962136
C16   C     C_R   0.498455 0.495439 0.257863 0.866185
Cl1   Cl    Cl    0.619363 0.819396 0.881673 -0.707041
Cl2   Cl    Cl    0.142104 0.399086 0.137596 -0.680220
H1    H     H_    0.712463 0.342482 0.086482 0.218239
H2    H     H_    0.711632 0.344838 0.875205 0.207467
H3    H     H_    0.785004 0.547124 0.877927 0.233217
H4    H     H_    0.778768 0.547995 0.088941 0.249511
H5    H     H_    0.175037 0.641533 0.929939 0.246944
H6    H     H_    0.255711 0.838865 0.960671 0.246808
H7    H     H_    0.287334 0.757866 0.805433 0.253350
H8    H     H_    0.093165 0.744822 0.642586 0.173759
H9    H     H_    0.983559 0.771132 0.505673 0.190826
H10   H     H_    0.874865 0.676815 0.647111 0.235569
H11   H     H_    0.406990 0.257612 0.890527 0.172397
H12   H     H_    0.391412 0.254301 0.103187 0.122177
H13   H     H_    0.701322 0.009516 0.486465 0.178762
H14   H     H_    0.298689 0.990471 0.515906 0.174338
H15   H     H_    0.007466 0.363763 0.421245 0.214436
H16   H     H_    0.556121 0.750292 0.119597 0.185805
H17   H     H_    0.332642 0.695361 0.132846 0.206956
H18   H     H_    0.238855 0.387344 0.897309 0.230991
N1    N     N_2   0.950330 0.457950 0.465890 -0.110023
N2    N     N_2   0.049670 0.542050 0.534110 -0.052592
O1    O     O_R   0.389250 0.738570 0.508370 -0.623994
O2    O     O_R   0.678390 0.711620 0.486510 -0.636607
O3    O     O_R   0.355430 0.513500 0.696140 -0.632915
O4    O     O_R   0.644580 0.486550 0.674270 -0.634184
O5    O     O_R   0.321610 0.288380 0.513490 -0.629554
O6    O     O_R   0.610750 0.261430 0.491630 -0.615895
O7    O     O_R   0.355420 0.513450 0.325730 -0.570188
O8    O     O_R   0.644570 0.486500 0.303860 -0.613040
Zn1   Zn    Zn3+2 0.306940 0.517990 0.514600 0.968431
Zn2   Zn    Zn3+2 0.693060 0.482010 0.485400 0.970618

loop_
_geom_bond_atom_site_label_1
_geom_bond_atom_site_label_2
_ccdc_geom_bond_type
C16   O7    A    
C4    H18   S    
N1    N2    D    
C3    C9    S    
C6    C14   S    
C8    H8    S    
C9    C10   S    
C10   H12   S    
C11   H4    S    
C4    H11   S    
C7    H7    S    
C3    H17   S    
C14   O4    A    
O7    Zn1   S    
C2    C3    S    
O3    Zn1   S    
C15   O5    A    
C5    H2    S    
O4    Zn2   S    
N1    Zn2   S    
C9    C11   S    
C11   H1    S    
N2    Zn1   S    
C2    C6    S    
C1    C12   S    
C8    N2    S    
C10   Cl2   S    
C14   O3    A    
C7    H5    S    
C4    C6    S    
C9    C16   S    
C15   O6    A    
C5    C11   S    
C13   C15   S    
C12   H13   S    
C2    C7    S    
C5    C6    S    
C8    H10   S    
O8    Zn2   S    
C1    O1    A    
C4    C10   S    
C7    H6    S    
C5    H3    S    
C12   C13   D    
O1    Zn1   S    
C16   O8    A    
O2    Zn2   S    
C8    H9    S    
C13   H14   S    
C1    O2    A    
C3    H16   S    
O5    Zn1   S    
H15   N1    S    
O6    Zn2   S    
C2    Cl1   S    
