data_mof_unit_6860.cif
_audit_creation_date              2012-12-11T14:08:06-0500
_audit_creation_method            fapswitch 2.2
_symmetry_space_group_name_H-M    P1
_symmetry_Int_Tables_number       1
_space_group_crystal_system       triclinic
_cell_length_a                    27.73312
_cell_length_b                    27.705324
_cell_length_c                    27.716243
_cell_angle_alpha                 90.185643
_cell_angle_beta                  90.019488
_cell_angle_gamma                 90.016493
_cell_volume                      21295.8020682

loop_
_atom_site_label
_atom_site_type_symbol
_atom_type_description
_atom_site_fract_x
_atom_site_fract_y
_atom_site_fract_z
_atom_type_partial_charge
C1    C     C_R   0.017883 0.083443 0.023505 0.093409
C2    C     C_R   0.019614 0.023890 0.084286 0.095026
C3    C     C_R   0.072635 0.018905 0.018248 0.085790
C4    C     C_R   0.906588 0.696281 0.207038 0.032296
C5    C     C_R   0.207297 0.907327 0.697020 0.036210
C6    C     C_R   0.714121 0.183518 0.889813 0.026003
C7    C     C_R   0.906401 0.205311 0.697735 0.033266
C8    C     C_R   0.203099 0.698794 0.904890 0.031189
C9    C     C_R   0.715957 0.888069 0.182042 0.026910
C10   C     C_R   0.696672 0.695357 0.207911 0.034711
C11   C     C_R   0.206740 0.697086 0.696228 0.030958
C12   C     C_R   0.696786 0.207578 0.695561 0.034247
C13   C     C_R   0.912365 0.911812 0.218669 0.048582
C14   C     C_R   0.200682 0.903674 0.903358 0.004146
C15   C     C_R   0.911908 0.218824 0.912202 0.050120
C16   C     C_R   0.915716 0.859573 0.382491 -0.132859
C17   C     C_R   0.394718 0.906420 0.850359 -0.126814
C18   C     C_R   0.860503 0.380527 0.916739 -0.131615
C19   C     C_R   0.916896 0.379938 0.861358 -0.125545
C20   C     C_R   0.394596 0.850815 0.906578 -0.114893
C21   C     C_R   0.860294 0.916112 0.381903 -0.124528
C22   C     C_R   0.697168 0.753198 0.394789 -0.118085
C23   C     C_R   0.393735 0.696035 0.752234 -0.127774
C24   C     C_R   0.751190 0.393235 0.695526 -0.116068
C25   C     C_R   0.695571 0.393277 0.752031 -0.129984
C26   C     C_R   0.393974 0.751873 0.696234 -0.117025
C27   C     C_R   0.753437 0.697378 0.394875 -0.127681
C28   C     C_R   0.862930 0.685778 0.377263 -0.143537
C29   C     C_R   0.378128 0.861583 0.685891 -0.137469
C30   C     C_R   0.685754 0.377252 0.863060 -0.141920
C31   C     C_R   0.862051 0.379198 0.686561 -0.130372
C32   C     C_R   0.378185 0.685910 0.861620 -0.148581
C33   C     C_R   0.685620 0.863311 0.376815 -0.133420
C34   C     C_R   0.742669 0.917593 0.378929 -0.121152
C35   C     C_R   0.377734 0.740927 0.917796 -0.128683
C36   C     C_R   0.916347 0.381488 0.743826 -0.124200
C37   C     C_R   0.742758 0.379211 0.917449 -0.122739
C38   C     C_R   0.377633 0.917833 0.740828 -0.141216
C39   C     C_R   0.917287 0.742752 0.379325 -0.126327
C40   C     C_R   0.904985 0.904641 0.400793 0.031948
C41   C     C_R   0.421514 0.888080 0.887801 0.025156
C42   C     C_R   0.906262 0.397422 0.906908 0.032087
C43   C     C_R   0.716052 0.715987 0.421721 0.024413
C44   C     C_R   0.420316 0.713838 0.714405 0.025120
C45   C     C_R   0.712607 0.419208 0.713324 0.024570
C46   C     C_R   0.908331 0.696414 0.394793 0.034438
C47   C     C_R   0.394817 0.907290 0.695349 0.036589
C48   C     C_R   0.696292 0.394383 0.908741 0.032508
C49   C     C_R   0.906656 0.398187 0.698078 0.034052
C50   C     C_R   0.394947 0.695452 0.907271 0.036750
C51   C     C_R   0.696111 0.909038 0.393862 0.034193
C52   C     C_R   0.955092 0.148277 0.020400 -0.144353
C53   C     C_R   0.017707 0.958288 0.145808 -0.143567
C54   C     C_R   0.096877 0.983547 0.940483 -0.133294
C55   C     C_R   0.957364 0.020573 0.149643 -0.145338
C56   C     C_R   0.016503 0.145939 0.959074 -0.143621
C57   C     C_R   0.147646 0.970840 0.010248 -0.136681
C58   C     C_R   0.683411 0.917712 0.980605 0.093955
C59   C     C_R   0.084836 0.579576 0.026877 0.094158
C60   C     C_R   0.030163 0.090803 0.576455 0.097240
C61   C     C_R   0.677966 0.982765 0.922315 0.093412
C62   C     C_R   0.094996 0.031466 0.575053 0.098035
C63   C     C_R   0.029268 0.572148 0.094720 0.096133
C64   C     C_R   0.623559 0.914327 0.917142 0.094818
C65   C     C_R   0.027900 0.512507 0.029926 0.095412
C66   C     C_R   0.027539 0.024031 0.518953 0.093474
C67   C     C_R   0.699467 0.962166 0.963031 -0.213148
C68   C     C_R   0.067240 0.596121 0.071491 -0.212599
C69   C     C_R   0.075867 0.075362 0.591560 -0.227984
C70   C     C_R   0.640794 0.958024 0.898702 -0.213746
C71   C     C_R   0.013088 0.528032 0.075780 -0.226515
C72   C     C_R   0.072029 0.007586 0.536708 -0.212142
C73   C     C_R   0.648083 0.892216 0.955184 -0.226505
C74   C     C_R   0.006806 0.065598 0.539233 -0.215480
C75   C     C_R   0.064699 0.537840 0.006256 -0.217078
C76   C     C_R   0.739230 0.912821 0.050959 -0.176999
C77   C     C_R   0.113303 0.660532 0.998679 -0.166123
C78   C     C_R   0.006562 0.123534 0.657033 -0.158629
C79   C     C_R   0.734372 0.052272 0.915033 -0.174298
C80   C     C_R   0.127161 0.008254 0.655824 -0.156883
C81   C     C_R   0.019061 0.633026 0.161996 -0.173664
C82   C     C_R   0.746258 0.908562 0.100445 -0.146681
C83   C     C_R   0.141902 0.689150 0.969086 -0.162225
C84   C     C_R   0.976035 0.150534 0.686282 -0.155363
C85   C     C_R   0.742637 0.101415 0.909699 -0.146531
C86   C     C_R   0.153405 0.977392 0.685213 -0.156733
C87   C     C_R   0.989214 0.664674 0.187700 -0.155209
C88   C     C_R   0.707558 0.896245 0.130708 0.141616
C89   C     C_R   0.174970 0.667896 0.937326 0.136460
C90   C     C_R   0.940228 0.179639 0.665837 0.131503
C91   C     C_R   0.704206 0.132764 0.899691 0.141700
C92   C     C_R   0.183082 0.941882 0.664937 0.129219
C93   C     C_R   0.938899 0.661743 0.182846 0.136039
C94   C     C_R   0.662006 0.887616 0.110953 -0.170838
C95   C     C_R   0.180128 0.617548 0.936507 -0.167051
C96   C     C_R   0.936720 0.182895 0.615402 -0.164810
C97   C     C_R   0.657430 0.114521 0.895050 -0.171936
C98   C     C_R   0.188163 0.939385 0.614595 -0.165625
C99   C     C_R   0.918888 0.625790 0.153454 -0.168776
C100  C     C_R   0.654821 0.892492 0.061644 -0.162248
C101  C     C_R   0.152228 0.588824 0.967006 -0.174359
C102  C     C_R   0.967899 0.156304 0.585924 -0.175574
C103  C     C_R   0.648957 0.065457 0.901425 -0.165914
C104  C     C_R   0.162441 0.971051 0.584953 -0.176718
C105  C     C_R   0.948469 0.594939 0.127223 -0.165342
C106  C     C_R   0.693329 0.905300 0.031194 0.131896
C107  C     C_R   0.118038 0.609976 0.998031 0.130232
C108  C     C_R   0.002566 0.125553 0.606471 0.128450
C109  C     C_R   0.687437 0.033856 0.911292 0.130588
C110  C     C_R   0.130525 0.005019 0.605219 0.126119
C111  C     C_R   0.999025 0.598623 0.130321 0.130471
C112  C     C_R   0.931891 0.186040 0.996000 -0.021036
C113  C     C_R   0.994519 0.932811 0.182752 -0.016561
C114  C     C_R   0.126751 0.954354 0.912185 -0.023742
C115  C     C_R   0.933685 0.995755 0.186844 -0.020088
C116  C     C_R   0.993769 0.183388 0.934026 -0.014055
C117  C     C_R   0.180094 0.943821 0.982311 -0.025622
C118  C     C_R   0.542576 0.890956 0.947088 -0.162811
C119  C     C_R   0.018315 0.446721 0.967684 -0.175174
C120  C     C_R   0.967932 0.014639 0.451288 -0.173674
C121  C     C_R   0.553023 0.906506 0.861627 -0.185548
C122  C     C_R   0.999063 0.943045 0.490490 -0.170365
C123  C     C_R   0.947411 0.479124 0.007198 -0.166696
C124  C     C_R   0.493104 0.887445 0.940690 -0.174842
C125  C     C_R   0.988722 0.419877 0.936774 -0.169577
C126  C     C_R   0.937213 0.985875 0.423474 -0.171199
C127  C     C_R   0.503319 0.903726 0.855392 -0.159542
C128  C     C_R   0.969221 0.914380 0.462006 -0.168453
C129  C     C_R   0.918064 0.451881 0.976942 -0.167341
C130  C     C_R   0.473152 0.894753 0.895073 0.144159
C131  C     C_R   0.938326 0.422881 0.940801 0.138889
C132  C     C_R   0.937600 0.935569 0.428875 0.139576
C133  C     C_R   0.573046 0.900994 0.907721 0.134512
C134  C     C_R   0.997915 0.477458 0.002612 0.135016
C135  C     C_R   0.998761 0.993563 0.485593 0.133468
C136  C     C_R   0.029748 0.575667 0.512069 0.096541
C137  C     C_R   0.516833 0.025044 0.575105 0.094984
C138  C     C_R   0.573628 0.508077 0.032032 0.095925
C139  C     C_R   0.026933 0.518468 0.578864 0.094895
C140  C     C_R   0.516938 0.575242 0.025069 0.095113
C141  C     C_R   0.573553 0.032088 0.507979 0.096414
C142  C     C_R   0.094414 0.574556 0.571663 0.095538
C143  C     C_R   0.575081 0.091174 0.573316 0.095786
C144  C     C_R   0.575062 0.573265 0.091279 0.095408
C145  C     C_R   0.075446 0.590779 0.527721 -0.227734
C146  C     C_R   0.537624 0.066192 0.596407 -0.218995
C147  C     C_R   0.590067 0.527440 0.075834 -0.226660
C148  C     C_R   0.071418 0.536315 0.595376 -0.213992
C149  C     C_R   0.537644 0.596439 0.066303 -0.219102
C150  C     C_R   0.590051 0.075835 0.527463 -0.226794
C151  C     C_R   0.006208 0.538635 0.537286 -0.219505
C152  C     C_R   0.534905 0.008508 0.530582 -0.213967
C153  C     C_R   0.535015 0.530739 0.008470 -0.215350
C154  C     C_R   0.007691 0.655838 0.477445 -0.168118
C155  C     C_R   0.448321 0.016987 0.634294 -0.174542
C156  C     C_R   0.654405 0.474998 0.009524 -0.166269
C157  C     C_R   0.999528 0.489015 0.659734 -0.171951
C158  C     C_R   0.448389 0.634389 0.016952 -0.174300
C159  C     C_R   0.654270 0.009774 0.474578 -0.165341
C160  C     C_R   0.978150 0.684920 0.449341 -0.169726
C161  C     C_R   0.419159 0.988636 0.664094 -0.169820
C162  C     C_R   0.683965 0.448132 0.979174 -0.169393
C163  C     C_R   0.970684 0.459656 0.688355 -0.167545
C164  C     C_R   0.419216 0.664167 0.988587 -0.168856
C165  C     C_R   0.683801 0.979528 0.447560 -0.166323
C166  C     C_R   0.947121 0.198734 0.948566 -0.101452
C167  C     C_R   0.948100 0.947830 0.198597 -0.100556
C168  C     C_R   0.169042 0.934412 0.933051 -0.077902
C169  C     C_R   0.942263 0.664413 0.420216 0.138846
C170  C     C_R   0.422405 0.938148 0.662204 0.138488
C171  C     C_R   0.663959 0.418355 0.943531 0.139931
C172  C     C_R   0.939315 0.426148 0.667131 0.139979
C173  C     C_R   0.422604 0.662375 0.938124 0.140444
C174  C     C_R   0.663777 0.943869 0.417809 0.139205
C175  C     C_R   0.937846 0.613927 0.418033 -0.167182
C176  C     C_R   0.454713 0.916471 0.629882 -0.170434
C177  C     C_R   0.613600 0.413778 0.940523 -0.167506
C178  C     C_R   0.938254 0.421333 0.616725 -0.168037
C179  C     C_R   0.455101 0.630225 0.916476 -0.170628
C180  C     C_R   0.613408 0.940775 0.413392 -0.166204
C181  C     C_R   0.968084 0.584570 0.445742 -0.176841
C182  C     C_R   0.484570 0.944626 0.601085 -0.173037
C183  C     C_R   0.583763 0.440114 0.971703 -0.178071
C184  C     C_R   0.968003 0.450056 0.587968 -0.175316
C185  C     C_R   0.484959 0.601448 0.944649 -0.172970
C186  C     C_R   0.583591 0.971867 0.439873 -0.177157
C187  C     C_R   0.002734 0.605283 0.476564 0.134961
C188  C     C_R   0.481999 0.995306 0.602975 0.133793
C189  C     C_R   0.603822 0.472177 0.005736 0.134239
C190  C     C_R   0.998568 0.484684 0.609142 0.133384
C191  C     C_R   0.482200 0.603191 0.995307 0.133662
C192  C     C_R   0.603683 0.005888 0.471938 0.133498
C193  C     C_R   0.126705 0.655439 0.595010 -0.167126
C194  C     C_R   0.584672 0.157109 0.635544 -0.177176
C195  C     C_R   0.655534 0.595853 0.125102 -0.168573
C196  C     C_R   0.161721 0.584701 0.632297 -0.179003
C197  C     C_R   0.584586 0.635364 0.157348 -0.177051
C198  C     C_R   0.655595 0.124831 0.596020 -0.167990
C199  C     C_R   0.152910 0.684977 0.625994 -0.169579
C200  C     C_R   0.614255 0.184567 0.665960 -0.166785
C201  C     C_R   0.684841 0.625539 0.153048 -0.168375
C202  C     C_R   0.187392 0.614490 0.664074 -0.167267
C203  C     C_R   0.614148 0.665732 0.184887 -0.167297
C204  C     C_R   0.684926 0.152697 0.625761 -0.167856
C205  C     C_R   0.182427 0.664854 0.661611 0.139970
C206  C     C_R   0.664682 0.182019 0.661656 0.138997
C207  C     C_R   0.664577 0.661413 0.182388 0.139951
C208  C     C_R   0.129946 0.604828 0.598232 0.134174
C209  C     C_R   0.605078 0.126182 0.600797 0.134908
C210  C     C_R   0.605017 0.600658 0.126388 0.135368
C211  C     C_R   0.685537 0.688467 0.623418 0.095429
C212  C     C_R   0.621907 0.685019 0.683005 0.093951
C213  C     C_R   0.680285 0.619935 0.677476 0.093967
C214  C     C_R   0.703924 0.644650 0.640441 -0.216034
C215  C     C_R   0.647384 0.710572 0.647923 -0.226975
C216  C     C_R   0.639530 0.640570 0.698953 -0.218707
C217  C     C_R   0.995874 0.126224 0.000714 0.050184
C218  C     C_R   0.997849 0.000727 0.127085 0.049567
C219  C     C_R   0.106665 0.991005 0.989311 0.048281
C220  C     C_R   0.741439 0.696480 0.553272 -0.185838
C221  C     C_R   0.540913 0.709743 0.653868 -0.166912
C222  C     C_R   0.687416 0.550495 0.733732 -0.183007
C223  C     C_R   0.701012 0.537130 0.648245 -0.169043
C224  C     C_R   0.551257 0.689563 0.738358 -0.184906
C225  C     C_R   0.656141 0.712633 0.542452 -0.164808
C226  C     C_R   0.747975 0.699660 0.503617 -0.160669
C227  C     C_R   0.491531 0.714199 0.660702 -0.180244
C228  C     C_R   0.692523 0.501337 0.741894 -0.161236
C229  C     C_R   0.707175 0.488029 0.656619 -0.176188
C230  C     C_R   0.501725 0.693373 0.745027 -0.160598
C231  C     C_R   0.662844 0.716557 0.493047 -0.177700
C232  C     C_R   0.708529 0.709150 0.473295 0.146046
C233  C     C_R   0.471599 0.705422 0.706113 0.147510
C234  C     C_R   0.702438 0.469879 0.703384 0.145527
C235  C     C_R   0.695270 0.702088 0.573072 0.136130
C236  C     C_R   0.571221 0.697228 0.692600 0.138409
C237  C     C_R   0.691261 0.568827 0.686817 0.136093
C238  C     C_R   0.916993 0.742160 0.223940 -0.116211
C239  C     C_R   0.223761 0.916924 0.742986 -0.132252
C240  C     C_R   0.752692 0.209627 0.907125 -0.122039
C241  C     C_R   0.916340 0.222466 0.743482 -0.123182
C242  C     C_R   0.221459 0.743799 0.915807 -0.129025
C243  C     C_R   0.753664 0.906201 0.208797 -0.120484
C244  C     C_R   0.696997 0.850772 0.208943 -0.117911
C245  C     C_R   0.221814 0.687408 0.860078 -0.117598
C246  C     C_R   0.861095 0.223120 0.686808 -0.120674
C247  C     C_R   0.695954 0.209849 0.851731 -0.117827
C248  C     C_R   0.224241 0.861563 0.686389 -0.119213
C249  C     C_R   0.860730 0.686562 0.223622 -0.128085
C250  C     C_R   0.742962 0.686410 0.223631 -0.124736
C251  C     C_R   0.223291 0.743023 0.686742 -0.125645
C252  C     C_R   0.686054 0.225435 0.740869 -0.129664
C253  C     C_R   0.743011 0.223477 0.686501 -0.123397
C254  C     C_R   0.223932 0.686502 0.741874 -0.119610
C255  C     C_R   0.685952 0.740673 0.225752 -0.132489
C256  C     C_R   0.864263 0.919176 0.230762 -0.138865
C257  C     C_R   0.219635 0.859091 0.914969 -0.121650
C258  C     C_R   0.918870 0.229300 0.863523 -0.112453
C259  C     C_R   0.863854 0.230757 0.919234 -0.134893
C260  C     C_R   0.220705 0.915522 0.859414 -0.141712
C261  C     C_R   0.918925 0.863121 0.229145 -0.108766
H1    H     H_    0.760430 0.952291 0.378371 0.090749
H2    H     H_    0.376060 0.757022 0.953313 0.087409
H3    H     H_    0.950877 0.382568 0.761825 0.091501
H4    H     H_    0.760483 0.378746 0.952153 0.090703
H5    H     H_    0.375898 0.953388 0.756855 0.088672
H6    H     H_    0.952016 0.760382 0.378956 0.088088
H7    H     H_    0.724449 0.983428 0.984368 0.122070
H8    H     H_    0.080379 0.629923 0.086000 0.112302
H9    H     H_    0.094221 0.094881 0.620070 0.114485
H10   H     H_    0.621712 0.975537 0.869519 0.112040
H11   H     H_    0.984967 0.508396 0.094411 0.112548
H12   H     H_    0.086584 0.973875 0.523414 0.108193
H13   H     H_    0.634756 0.858357 0.969449 0.116074
H14   H     H_    0.970363 0.075475 0.529328 0.114116
H15   H     H_    0.074407 0.527857 0.969735 0.113947
H16   H     H_    0.782150 0.914068 0.114830 0.125047
H17   H     H_    0.136962 0.727934 0.969830 0.122216
H18   H     H_    0.979177 0.146970 0.725057 0.129826
H19   H     H_    0.779304 0.114670 0.912145 0.125928
H20   H     H_    0.148555 0.979810 0.723928 0.133587
H21   H     H_    0.005494 0.691601 0.210935 0.117913
H22   H     H_    0.631813 0.877918 0.133730 0.112188
H23   H     H_    0.205897 0.600445 0.912617 0.110754
H24   H     H_    0.909829 0.205708 0.598725 0.108783
H25   H     H_    0.627468 0.138287 0.887126 0.113642
H26   H     H_    0.211595 0.912785 0.598143 0.110523
H27   H     H_    0.880207 0.622992 0.148799 0.112404
H28   H     H_    0.769382 0.922753 0.028225 0.123211
H29   H     H_    0.086332 0.678163 0.020744 0.123211
H30   H     H_    0.031629 0.099186 0.674361 0.119502
H31   H     H_    0.764615 0.028659 0.922320 0.123593
H32   H     H_    0.102017 0.032637 0.673106 0.120223
H33   H     H_    0.057751 0.636503 0.165795 0.119084
H34   H     H_    0.618633 0.888024 0.047743 0.109124
H35   H     H_    0.157064 0.550054 0.965986 0.115135
H36   H     H_    0.964152 0.158909 0.547134 0.114330
H37   H     H_    0.612132 0.052594 0.899844 0.118598
H38   H     H_    0.166418 0.967925 0.546221 0.115769
H39   H     H_    0.931328 0.570198 0.102279 0.109187
H40   H     H_    0.470334 0.880048 0.971547 0.115160
H41   H     H_    0.005281 0.397153 0.909615 0.110113
H42   H     H_    0.913477 0.002909 0.397602 0.112224
H43   H     H_    0.488588 0.907916 0.819456 0.122418
H44   H     H_    0.969665 0.875627 0.467088 0.114756
H45   H     H_    0.879323 0.455275 0.980484 0.111872
H46   H     H_    0.556551 0.888075 0.983405 0.110021
H47   H     H_    0.057057 0.444353 0.963491 0.114599
H48   H     H_    0.967193 0.053386 0.446356 0.116361
H49   H     H_    0.575675 0.914173 0.830765 0.121076
H50   H     H_    0.021006 0.925511 0.517544 0.117790
H51   H     H_    0.930148 0.503426 0.032482 0.108989
H52   H     H_    0.094083 0.618977 0.508215 0.111910
H53   H     H_    0.527622 0.076135 0.632852 0.112813
H54   H     H_    0.618351 0.509015 0.095420 0.112617
H55   H     H_    0.086070 0.523066 0.628965 0.108395
H56   H     H_    0.527615 0.632871 0.076319 0.113125
H57   H     H_    0.618335 0.095472 0.509096 0.112395
H58   H     H_    0.941828 0.136665 0.055257 0.168269
H59   H     H_    0.051911 0.945250 0.132097 0.168874
H60   H     H_    0.064316 0.998748 0.925090 0.169711
H61   H     H_    0.944613 0.055879 0.138796 0.168092
H62   H     H_    0.051020 0.132678 0.946408 0.168237
H63   H     H_    0.155023 0.977796 0.048050 0.166509
H64   H     H_    0.969833 0.528587 0.527235 0.112911
H65   H     H_    0.521300 0.975194 0.515433 0.106855
H66   H     H_    0.521467 0.515671 0.975102 0.107056
H67   H     H_    0.981927 0.723721 0.452320 0.111322
H68   H     H_    0.394234 0.006156 0.688566 0.112313
H69   H     H_    0.722648 0.452740 0.981991 0.111516
H70   H     H_    0.971533 0.464526 0.727143 0.116998
H71   H     H_    0.394156 0.688529 0.006073 0.113085
H72   H     H_    0.722490 0.982408 0.452068 0.114255
H73   H     H_    0.910786 0.597106 0.395420 0.110206
H74   H     H_    0.458488 0.877574 0.628406 0.113820
H75   H     H_    0.597244 0.390384 0.913794 0.110148
H76   H     H_    0.914603 0.395361 0.599557 0.109602
H77   H     H_    0.458997 0.628864 0.877599 0.109584
H78   H     H_    0.597030 0.914021 0.390038 0.109752
H79   H     H_    0.032701 0.673436 0.501775 0.109157
H80   H     H_    0.444994 0.055877 0.636271 0.114660
H81   H     H_    0.671639 0.500197 0.033938 0.108683
H82   H     H_    0.021213 0.516292 0.677439 0.118149
H83   H     H_    0.444944 0.636265 0.055821 0.115128
H84   H     H_    0.671554 0.034165 0.499761 0.109621
H85   H     H_    0.963593 0.545788 0.443915 0.113805
H86   H     H_    0.511003 0.926381 0.578880 0.115727
H87   H     H_    0.545072 0.436429 0.968148 0.114538
H88   H     H_    0.966747 0.445514 0.549172 0.114558
H89   H     H_    0.511518 0.579352 0.926449 0.114762
H90   H     H_    0.544898 0.968239 0.436300 0.114591
H91   H     H_    0.148178 0.723697 0.623547 0.114624
H92   H     H_    0.597630 0.207369 0.693002 0.108930
H93   H     H_    0.723583 0.621839 0.149862 0.111424
H94   H     H_    0.210721 0.598120 0.690716 0.109638
H95   H     H_    0.597508 0.692767 0.207688 0.108980
H96   H     H_    0.723666 0.149489 0.622063 0.114266
H97   H     H_    0.101695 0.672622 0.570516 0.109802
H98   H     H_    0.545940 0.159289 0.639901 0.113293
H99   H     H_    0.672883 0.570780 0.100644 0.108929
H100  H     H_    0.165648 0.545968 0.635403 0.114729
H101  H     H_    0.545853 0.639741 0.159478 0.113574
H102  H     H_    0.672916 0.100394 0.570906 0.110154
H103  H     H_    0.733117 0.627071 0.621330 0.112120
H104  H     H_    0.633086 0.744473 0.634742 0.115242
H105  H     H_    0.618164 0.619293 0.723759 0.115818
H106  H     H_    0.783954 0.695344 0.489051 0.121832
H107  H     H_    0.468857 0.723810 0.630392 0.110423
H108  H     H_    0.690060 0.488158 0.778559 0.121036
H109  H     H_    0.715104 0.464177 0.626612 0.112941
H110  H     H_    0.487193 0.687836 0.780845 0.116703
H111  H     H_    0.632155 0.724303 0.470155 0.111168
H112  H     H_    0.772128 0.688436 0.576040 0.120764
H113  H     H_    0.555015 0.714322 0.617783 0.108013
H114  H     H_    0.680212 0.574193 0.764043 0.118916
H115  H     H_    0.702688 0.549964 0.611438 0.117617
H116  H     H_    0.573886 0.679849 0.768671 0.118086
H117  H     H_    0.619767 0.715596 0.556217 0.108236
H118  H     H_    0.951890 0.759480 0.223936 0.098230
H119  H     H_    0.224509 0.951915 0.760268 0.093241
H120  H     H_    0.775044 0.200089 0.937392 0.110394
H121  H     H_    0.951089 0.222300 0.761098 0.100885
H122  H     H_    0.221039 0.760824 0.950896 0.096944
H123  H     H_    0.776376 0.936112 0.199013 0.109116
H124  H     H_    0.666800 0.828480 0.198971 0.096372
H125  H     H_    0.220670 0.652620 0.842411 0.087422
H126  H     H_    0.843919 0.222852 0.651837 0.084671
H127  H     H_    0.665304 0.200275 0.829861 0.096358
H128  H     H_    0.224432 0.844392 0.651345 0.084967
H129  H     H_    0.843525 0.651583 0.224210 0.088481
H130  H     H_    0.760824 0.651774 0.223573 0.087406
H131  H     H_    0.223584 0.760544 0.651973 0.089671
H132  H     H_    0.650567 0.227474 0.756784 0.084198
H133  H     H_    0.760864 0.223400 0.651871 0.087757
H134  H     H_    0.224107 0.651478 0.758877 0.086187
H135  H     H_    0.650430 0.756512 0.227981 0.084498
H136  H     H_    0.845617 0.953009 0.233116 0.091479
H137  H     H_    0.216804 0.841185 0.949364 0.093460
H138  H     H_    0.952078 0.228871 0.843680 0.087195
H139  H     H_    0.844973 0.233240 0.952889 0.090047
H140  H     H_    0.219185 0.950333 0.842064 0.099839
H141  H     H_    0.951891 0.842887 0.228638 0.087070
H142  H     H_    0.950521 0.842133 0.383399 0.091328
H143  H     H_    0.404567 0.936647 0.828200 0.097733
H144  H     H_    0.843143 0.380361 0.951617 0.090461
H145  H     H_    0.951846 0.379881 0.844211 0.086080
H146  H     H_    0.404686 0.828477 0.936588 0.098151
H147  H     H_    0.842960 0.950995 0.382979 0.088624
H148  H     H_    0.667391 0.775949 0.404974 0.097365
H149  H     H_    0.402855 0.665073 0.773665 0.092316
H150  H     H_    0.772772 0.402644 0.664696 0.095623
H151  H     H_    0.664820 0.402356 0.773960 0.096670
H152  H     H_    0.403855 0.773744 0.665825 0.091618
H153  H     H_    0.775763 0.667242 0.404770 0.097240
H154  H     H_    0.847135 0.650203 0.374852 0.087598
H155  H     H_    0.375989 0.845281 0.650483 0.088459
H156  H     H_    0.650207 0.374866 0.847281 0.087260
H157  H     H_    0.846335 0.377693 0.650928 0.084520
H158  H     H_    0.376011 0.650436 0.845454 0.091340
H159  H     H_    0.650062 0.847545 0.374261 0.084931
N1    N     N_R   0.000538 0.065067 0.065533 -0.114125
N2    N     N_R   0.055753 0.001057 0.060343 -0.107017
N3    N     N_R   0.053393 0.059661 0.999877 -0.109935
N4    N     N_R   0.877910 0.758550 0.247710 -0.041674
N5    N     N_R   0.247710 0.877910 0.758550 -0.039247
N6    N     N_R   0.758550 0.247710 0.877910 -0.042379
N7    N     N_R   0.877910 0.247710 0.758550 -0.041203
N8    N     N_R   0.247710 0.758550 0.877910 -0.039861
N9    N     N_R   0.758550 0.877910 0.247710 -0.042704
N10   N     N_R   0.725540 0.845080 0.247770 -0.042659
N11   N     N_R   0.247770 0.725540 0.845080 -0.040179
N12   N     N_R   0.845080 0.247770 0.725540 -0.040231
N13   N     N_R   0.725540 0.247770 0.845080 -0.042109
N14   N     N_R   0.247770 0.845080 0.725540 -0.039716
N15   N     N_R   0.845080 0.725540 0.247770 -0.039117
N16   N     N_R   0.758420 0.725600 0.247730 -0.038613
N17   N     N_R   0.247730 0.758420 0.725600 -0.040351
N18   N     N_R   0.725600 0.247730 0.758420 -0.039184
N19   N     N_R   0.758420 0.247730 0.725600 -0.039226
N20   N     N_R   0.247730 0.725600 0.758420 -0.040670
N21   N     N_R   0.725600 0.758420 0.247730 -0.039090
N22   N     N_R   0.845030 0.878030 0.247760 -0.041821
N23   N     N_R   0.247760 0.845030 0.878030 -0.040213
N24   N     N_R   0.878030 0.247760 0.845030 -0.041887
N25   N     N_R   0.845030 0.247760 0.878030 -0.041748
N26   N     N_R   0.247760 0.878030 0.845030 -0.038620
N27   N     N_R   0.878030 0.845030 0.247760 -0.042036
N28   N     N_R   0.877970 0.845080 0.355840 -0.039653
N29   N     N_R   0.355840 0.877970 0.845080 -0.041853
N30   N     N_R   0.845080 0.355840 0.877970 -0.039102
N31   N     N_R   0.877970 0.355840 0.845080 -0.039676
N32   N     N_R   0.355840 0.845080 0.877970 -0.043760
N33   N     N_R   0.845080 0.877970 0.355840 -0.039712
N34   N     N_R   0.725530 0.758500 0.355850 -0.042603
N35   N     N_R   0.355850 0.725530 0.758500 -0.041136
N36   N     N_R   0.758500 0.355850 0.725530 -0.042266
N37   N     N_R   0.725530 0.355850 0.758500 -0.040923
N38   N     N_R   0.355850 0.758500 0.725530 -0.042212
N39   N     N_R   0.758500 0.725530 0.355850 -0.041204
N40   N     N_R   0.845000 0.725590 0.355820 -0.037559
N41   N     N_R   0.355820 0.845000 0.725590 -0.036864
N42   N     N_R   0.725590 0.355820 0.845000 -0.038218
N43   N     N_R   0.845000 0.355820 0.725590 -0.039241
N44   N     N_R   0.355820 0.725590 0.845000 -0.036329
N45   N     N_R   0.725590 0.845000 0.355820 -0.039098
N46   N     N_R   0.758510 0.877990 0.355880 -0.038864
N47   N     N_R   0.355880 0.758510 0.877990 -0.037839
N48   N     N_R   0.877990 0.355880 0.758510 -0.039166
N49   N     N_R   0.758510 0.355880 0.877990 -0.038531
N50   N     N_R   0.355880 0.877990 0.758510 -0.036812
N51   N     N_R   0.877990 0.758510 0.355880 -0.038005
Ni1   Ni    Ni4+2 0.877260 0.801820 0.301780 0.211357
Ni2   Ni    Ni4+2 0.301780 0.877260 0.801820 0.214310
Ni3   Ni    Ni4+2 0.801820 0.301780 0.877260 0.215829
Ni4   Ni    Ni4+2 0.877260 0.301780 0.801820 0.211710
Ni5   Ni    Ni4+2 0.301780 0.801820 0.877260 0.214876
Ni6   Ni    Ni4+2 0.801820 0.877260 0.301780 0.214899
Ni7   Ni    Ni4+2 0.726220 0.801790 0.301810 0.211722
Ni8   Ni    Ni4+2 0.301810 0.726220 0.801790 0.211216
Ni9   Ni    Ni4+2 0.801790 0.301810 0.726220 0.210806
Ni10  Ni    Ni4+2 0.726220 0.301810 0.801790 0.212329
Ni11  Ni    Ni4+2 0.301810 0.801790 0.726220 0.211895
Ni12  Ni    Ni4+2 0.801790 0.726220 0.301810 0.213045
C262  C     C_2   0.896436 0.215191 0.023321 0.488727
H160  H     H_    0.891583 0.253084 0.014800 -0.000362
O1    O     O_2   0.873310 0.197743 0.056461 -0.568486
C263  C     C_2   0.022146 0.894567 0.207600 0.489021
H161  H     H_    0.015832 0.887586 0.245574 -0.004313
O2    O     O_2   0.053207 0.871484 0.186485 -0.576970
C264  C     C_2   0.111585 0.943220 0.861797 0.484824
H162  H     H_    0.127493 0.913450 0.841993 0.033193
O3    O     O_2   0.080401 0.967001 0.841786 -0.581605
C265  C     C_2   0.898502 0.022997 0.216400 0.488847
H163  H     H_    0.893391 0.013795 0.254082 -0.004549
O4    O     O_2   0.875902 0.056812 0.199543 -0.569196
C266  C     C_2   0.021887 0.209189 0.896770 0.485083
H164  H     H_    0.014941 0.247096 0.889933 -0.006065
O5    O     O_2   0.053968 0.188938 0.874324 -0.579416
C267  C     C_2   0.226232 0.928088 0.004627 0.493223
H165  H     H_    0.256234 0.916432 0.982436 0.016835
O6    O     O_2   0.231643 0.928705 0.048361 -0.577248

loop_
_geom_bond_atom_site_label_1
_geom_bond_atom_site_label_2
_ccdc_geom_bond_type
C101  C107  A    
N26   Ni2   S    
C258  H138  S    
C96   C102  A    
C256  H136  S    
N9    Ni6   S    
C102  H36   S    
C231  H111  S    
C181  C187  A    
C143  C209  S    
C170  C176  A    
C176  C182  A    
C7    C246  A    
C227  H107  S    
C203  H95   S    
C196  H100  S    
C9    C88   S    
C39   H6    S    
C213  C216  A    
C173  C179  A    
C57   H63   S    
C84   H18   S    
C199  C205  A    
C78   C108  A    
C120  H48   S    
C229  C234  A    
C198  C209  A    
C80   C86   A    
C66   C72   A    
C162  C171  A    
C121  H49   S    
C239  N5    A    
C15   C166  S    
C123  H51   S    
C261  H141  S    
C142  C208  S    
N12   Ni9   S    
N46   Ni6   S    
C116  C166  A    
C224  H116  S    
C100  H34   S    
C247  N13   A    
C183  C189  A    
N31   Ni4   S    
N32   Ni5   S    
C53   C113  A    
C55   C218  A    
C227  C233  A    
C79   C109  A    
C123  C134  A    
C72   H12   S    
C77   H29   S    
C137  C146  A    
C78   H30   S    
C45   C234  S    
N30   Ni3   S    
C255  H135  S    
C43   C232  S    
C193  C199  A    
C146  H53   S    
C22   H148  S    
C19   N31   A    
C142  C148  A    
C17   N29   A    
C7    C241  A    
N42   Ni10  S    
C96   H24   S    
C56   C116  A    
C124  C130  A    
C164  C173  A    
C243  N9    A    
C118  C124  A    
C163  C172  A    
C97   C103  A    
C16   C40   A    
N42   N49   A    
C26   N38   A    
C63   C71   A    
C8    C245  A    
C200  H92   S    
C265  O4    D    
C221  C236  A    
C198  C204  A    
C184  H88   S    
C238  H118  S    
N35   Ni8   S    
C264  H162  S    
C14   C168  S    
N5    N14   A    
C79   C85   A    
N25   Ni3   S    
C26   H152  S    
N7    N12   A    
N17   N20   A    
C35   N47   A    
C241  H121  S    
C16   N28   A    
C147  H54   S    
C33   N45   A    
C159  C192  A    
C259  H139  S    
C14   C257  A    
C195  C201  A    
N17   Ni11  S    
C253  N19   A    
C18   H144  S    
C221  C227  A    
C174  C180  A    
C254  N20   A    
C24   H150  S    
C120  C135  A    
C31   H157  S    
C104  C110  A    
C203  C207  A    
N44   N47   A    
C226  C232  A    
C54   C114  A    
C161  H68   S    
C122  H50   S    
C211  C235  S    
C113  C263  S    
C63   C111  S    
C258  N24   A    
N14   Ni11  S    
C28   N40   A    
C58   C67   A    
C33   H159  S    
N34   N39   A    
C2    C218  S    
C238  N4    A    
C194  H98   S    
N28   Ni1   S    
C28   H154  S    
N6    Ni3   S    
C103  H37   S    
C177  H75   S    
C1    N1    A    
C139  C190  S    
C97   H25   S    
N39   Ni12  S    
C26   C44   A    
C99   H27   S    
N37   Ni10  S    
N47   Ni5   S    
N40   N51   A    
C28   C46   A    
C34   C51   A    
C29   C47   A    
C30   C48   A    
N34   Ni7   S    
C38   N50   A    
C18   C42   A    
C157  H82   S    
C52   C112  A    
C117  C168  A    
C66   C74   A    
C11   C254  A    
C37   N49   A    
C61   C67   A    
C124  H40   S    
C69   H9    S    
C157  C190  A    
C22   N34   A    
C194  C200  A    
C178  H76   S    
N36   N37   A    
C64   C73   A    
C42   C131  S    
C94   C100  A    
C19   C42   A    
C79   H31   S    
C175  C181  A    
C137  C188  S    
C156  C189  A    
C247  H127  S    
C152  H65   S    
N43   Ni9   S    
N15   Ni12  S    
C245  H125  S    
C141  C192  S    
C84   C90   A    
C144  C147  A    
C262  H160  S    
C212  C236  S    
C141  C150  A    
C83   C89   A    
C88   C94   A    
C139  C148  A    
C119  C134  A    
C126  H42   S    
N36   Ni9   S    
C223  C237  A    
C23   H149  S    
C76   C82   A    
C127  H43   S    
C155  H80   S    
N19   Ni9   S    
C230  H110  S    
C30   H156  S    
C267  O6    D    
C165  C174  A    
C7    C90   S    
C52   H58   S    
C59   C107  S    
C159  C165  A    
C3    N2    A    
N24   N25   A    
C10   C250  A    
C196  C208  A    
C51   C174  S    
C81   H33   S    
C153  H66   S    
C148  H55   S    
C48   C171  S    
C125  C131  A    
C149  H56   S    
C22   C43   A    
C212  C215  A    
C244  N10   A    
C73   H13   S    
C216  H105  S    
C118  H46   S    
C266  O5    D    
C76   H28   S    
C220  C226  A    
C182  C188  A    
C27   H153  S    
C180  C186  A    
N22   Ni6   S    
C39   C46   A    
N43   N48   A    
C53   H59   S    
C184  C190  A    
C138  C189  S    
C161  C170  A    
C5    C248  A    
C30   N42   A    
C23   N35   A    
C19   H145  S    
C98   H26   S    
C169  C175  A    
C172  C178  A    
C116  C266  S    
C63   C68   A    
C76   C106  A    
C199  H91   S    
C165  H72   S    
C243  H123  S    
N50   Ni2   S    
C180  H78   S    
C186  H90   S    
C90   C96   A    
C100  C106  A    
C222  C237  A    
C87   H21   S    
C68   H8    S    
C14   C260  A    
C44   C233  S    
C67   H7    S    
C70   H10   S    
C201  H93   S    
C21   C40   A    
C60   C69   A    
C82   C88   A    
C87   C93   A    
C139  C151  A    
C185  H89   S    
C156  H81   S    
C240  N6    A    
C126  C132  A    
C158  H83   S    
C4    C93   S    
C55   H61   S    
C80   H32   S    
C211  C214  A    
C248  H128  S    
C263  H161  S    
C193  C208  A    
C140  C191  S    
N11   Ni8   S    
C171  C177  A    
C154  H79   S    
C8    C89   S    
C11   C205  S    
C115  C167  A    
C140  C149  A    
C244  H124  S    
C95   C101  A    
C141  C152  A    
C94   H22   S    
C9    C243  A    
C61   C70   A    
C143  C146  A    
C197  H101  S    
C215  H104  S    
C25   C45   A    
C223  H115  S    
C220  C235  A    
C211  C215  A    
N10   Ni7   S    
C144  C210  S    
C15   C259  A    
C182  H86   S    
C213  C214  A    
C155  C161  A    
N44   Ni8   S    
N29   Ni2   S    
C242  H122  S    
C2    N1    A    
C36   N48   A    
C50   C173  S    
C117  C267  S    
C4    C249  A    
C121  C127  A    
C259  N25   A    
C41   C130  S    
C249  H129  S    
C120  C126  A    
C74   H14   S    
C35   H2    S    
C181  H85   S    
N18   N19   A    
C197  C210  A    
C175  H73   S    
C178  C184  A    
C71   H11   S    
C202  C205  A    
C160  C169  A    
C137  C152  A    
C12   C253  A    
C105  H39   S    
C56   H62   S    
C93   C99   A    
C65   C134  S    
C60   C108  S    
N8    N11   A    
C140  C153  A    
C105  C111  A    
C160  H67   S    
C265  H163  S    
N45   Ni7   S    
C142  C145  A    
C163  H70   S    
C264  O3    D    
C31   C49   A    
C176  H74   S    
C262  O1    D    
C56   C217  A    
C185  C191  A    
N23   Ni5   S    
C92   C98   A    
C260  N26   A    
C6    C247  A    
C24   N36   A    
C195  C210  A    
C164  H71   S    
N9    N10   A    
C13   C256  A    
C20   N32   A    
C23   C44   A    
C10   C255  A    
C62   C69   A    
C159  H84   S    
C12   C206  S    
C89   C95   A    
N51   Ni1   S    
C112  C262  S    
C224  C230  A    
C253  H133  S    
C49   C172  S    
C129  H45   S    
C222  C228  A    
C251  H131  S    
N49   Ni3   S    
N29   N32   A    
C112  C166  A    
C52   C217  A    
C3    N3    A    
N41   Ni11  S    
C114  C264  S    
C54   H60   S    
C37   H4    S    
C91   C97   A    
N40   Ni12  S    
C229  H109  S    
C261  N27   A    
C81   C87   A    
C15   C258  A    
C27   N39   A    
C119  C125  A    
C138  C153  A    
C255  N21   A    
N41   N50   A    
C25   N37   A    
C150  H57   S    
C32   H158  S    
C136  C151  A    
C57   C117  A    
N24   Ni4   S    
C64   C133  S    
C128  H44   S    
C34   N46   A    
C113  C167  A    
N18   Ni10  S    
C114  C168  A    
C225  H117  S    
C179  C185  A    
C33   C51   A    
C222  H114  S    
N16   Ni12  S    
N33   Ni6   S    
C12   C252  A    
C103  C109  A    
N4    Ni1   S    
C224  C236  A    
C249  N15   A    
C177  C183  A    
C158  C191  A    
C25   H151  S    
C250  N16   A    
C55   C115  A    
C162  H69   S    
C260  H140  S    
C122  C128  A    
C122  C135  A    
N13   Ni10  S    
C66   C135  S    
C27   C43   A    
C17   H143  S    
C3    C219  S    
C95   H23   S    
C1    C217  S    
N7    Ni4   S    
C36   C49   A    
C223  C229  A    
N20   Ni8   S    
N5    Ni2   S    
C31   N43   A    
C202  H94   S    
C75   H15   S    
C83   H17   S    
C61   C109  S    
C245  N11   A    
C54   C219  A    
C20   C41   A    
C85   C91   A    
C246  N12   A    
N38   Ni11  S    
C225  C231  A    
C24   C45   A    
C36   H3    S    
C213  C237  S    
C155  C188  A    
N27   Ni1   S    
C98   C104  A    
C254  H134  S    
C13   C167  S    
C18   N30   A    
C77   C83   A    
C267  H165  S    
C252  H132  S    
C230  C233  A    
N22   N27   A    
N23   N26   A    
C257  H137  S    
C4    C238  A    
C143  C150  A    
C81   C111  A    
C145  H52   S    
N35   N38   A    
C252  N18   A    
C64   C70   A    
C157  C163  A    
C228  C234  A    
C136  C145  A    
N8    Ni5   S    
C20   H146  S    
C39   N51   A    
N30   N31   A    
C40   C132  S    
C156  C162  A    
C123  C129  A    
C128  C132  A    
C5    C239  A    
C198  H102  S    
C257  N23   A    
C201  C207  A    
C99   C105  A    
C119  H47   S    
C34   H1    S    
N6    N13   A    
C225  C235  A    
C212  C216  A    
C77   C107  A    
C263  O2    D    
N16   N21   A    
C21   N33   A    
C57   C219  A    
C65   C71   A    
C6    C240  A    
C11   C251  A    
C58   C106  S    
C10   C207  S    
C154  C160  A    
C144  C149  A    
C59   C68   A    
C62   C110  S    
C8    C242  A    
C138  C147  A    
C35   C50   A    
N45   N46   A    
C85   H19   S    
C62   C72   A    
C251  N17   A    
N28   N33   A    
C37   C48   A    
C102  C108  A    
C32   C50   A    
C38   C47   A    
C118  C133  A    
C193  H97   S    
C16   H142  S    
C125  H41   S    
C204  C206  A    
C195  H99   S    
N21   Ni7   S    
C136  C187  S    
C250  H130  S    
C82   H16   S    
C6    C91   S    
C196  C202  A    
C59   C75   A    
C204  H96   S    
C47   C170  S    
C29   N41   A    
C53   C218  A    
C151  H64   S    
C200  C206  A    
C101  H35   S    
C220  H112  S    
C183  H87   S    
C246  H126  S    
N48   Ni4   S    
C158  C164  A    
C32   N44   A    
N4    N15   A    
C2    N2    A    
C65   C75   A    
C46   C169  S    
C1    N3    A    
C38   H5    S    
C127  C130  A    
C241  N7    A    
C86   C92   A    
C194  C209  A    
C242  N8    A    
C21   H147  S    
C179  H77   S    
C240  H120  S    
C104  H38   S    
C256  N22   A    
C60   C74   A    
C266  H164  S    
C86   H20   S    
C197  C203  A    
C29   H155  S    
C186  C192  A    
C17   C41   A    
C5    C92   S    
C221  H113  S    
C154  C187  A    
C78   C84   A    
C80   C110  A    
C231  C232  A    
C115  C265  S    
C248  N14   A    
C226  H106  S    
C121  C133  A    
C239  H119  S    
C9    C244  A    
C13   C261  A    
C214  H103  S    
C228  H108  S    
C58   C73   A    
C129  C131  A    
