data_mof_unit_31512.cif
_audit_creation_date              2013-03-05T16:42:23-0500
_audit_creation_method            fapswitch 2.2
_symmetry_space_group_name_H-M    P1
_symmetry_Int_Tables_number       1
_space_group_crystal_system       triclinic
_cell_length_a                    9.912169
_cell_length_b                    10.64968
_cell_length_c                    15.390589
_cell_angle_alpha                 90.357765
_cell_angle_beta                  66.777788
_cell_angle_gamma                 89.579832
_cell_volume                      1492.91342195

loop_
_atom_site_label
_atom_site_type_symbol
_atom_site_description
_atom_site_fract_x
_atom_site_fract_y
_atom_site_fract_z
_atom_type_partial_charge
O1    O     O_R   0.385310 0.683210 0.499990 -0.601683
O2    O     O_R   0.614650 0.683240 0.500000 -0.621952
C1    C     C_R   0.497018 0.740045 0.504259 0.920182
O3    O     O_R   0.319830 0.499970 0.632240 -0.611919
O4    O     O_R   0.549170 0.500000 0.632250 -0.624949
C2    C     C_R   0.407242 0.500452 0.676586 0.880099
Zn1   Zn    Zn3+2 0.346870 0.499980 0.499990 0.965428
Zn2   Zn    Zn3+2 0.653130 0.500020 0.500010 0.985261
O5    O     O_R   0.385350 0.316760 0.500000 -0.624621
O6    O     O_R   0.614690 0.316790 0.500010 -0.601235
O7    O     O_R   0.450830 0.500000 0.367750 -0.605243
O8    O     O_R   0.680170 0.500030 0.367760 -0.561160
C3    C     C_R   0.497828 0.260046 0.504062 0.891622
C4    C     C_R   0.592659 0.498964 0.323314 0.955712
C5    C     C_R   0.346042 0.502771 0.779754 -0.109892
C6    C     C_R   0.651847 0.479052 0.220856 -0.103382
C7    C     C_R   0.165801 0.579408 0.930016 0.312692
C8    C     C_R   0.211639 0.561351 0.832175 -0.253552
C9    C     C_R   0.431067 0.454201 0.824992 -0.252246
C10   C     C_R   0.389681 0.469434 0.922362 0.077199
C11   C     C_R   0.258340 0.537592 0.975235 0.025625
C12   C     C_R   0.484398 0.428920 0.965881 0.080342
C13   C     C_R   0.463284 0.477838 0.055554 0.096576
C14   C     C_R   0.328947 0.538718 0.109262 -0.176319
C15   C     C_R   0.228087 0.567635 0.070012 -0.149146
C16   C     C_R   0.597944 0.339867 0.922915 -0.270579
C17   C     C_R   0.693376 0.303577 0.965127 -0.036471
C18   C     C_R   0.683652 0.364684 0.049099 0.078928
C19   C     C_R   0.573714 0.458821 0.091149 0.027772
C20   C     C_R   0.781501 0.335643 0.092078 -0.109665
C21   C     C_R   0.759376 0.386558 0.179923 -0.154266
C22   C     C_R   0.577767 0.530165 0.168179 -0.096349
H1    H     H_    0.130853 0.619821 0.113618 0.204368
H2    H     H_    0.824281 0.350868 0.216246 0.213092
H3    H     H_    0.145125 0.597739 0.796393 0.184218
H4    H     H_    0.535947 0.412968 0.781259 0.161820
H5    H     H_    0.300263 0.564259 0.182599 0.139691
H6    H     H_    0.606816 0.289271 0.859796 0.170513
H7    H     H_    0.870604 0.268881 0.061415 0.179225
C23   C     C_R   0.358440 0.937317 0.532243 0.120528
C24   C     C_R   0.485251 0.871407 0.523275 -0.106319
C25   C     C_R   0.599908 0.934633 0.536251 -0.207244
H8    H     H_    0.694373 0.885134 0.538426 0.173546
C26   C     C_R   0.600005 0.064482 0.536565 -0.202121
H9    H     H_    0.693572 0.112719 0.539878 0.199302
C27   C     C_R   0.486381 0.129170 0.522927 -0.109381
C28   C     C_R   0.359531 0.065436 0.531471 0.138217
C29   C     C_3   0.266896 0.072952 0.475029 -0.435585
C30   C     C_3   0.264768 0.930603 0.476350 -0.453021
H10   H     H_    0.157686 0.116433 0.516132 0.244552
H11   H     H_    0.326668 0.111933 0.403237 0.206134
H12   H     H_    0.154226 0.892394 0.518159 0.205434
H13   H     H_    0.321982 0.887044 0.405450 0.223522
C31   C     C_R   0.905117 0.599214 0.537509 0.182246
N1    N     N_R   0.856900 0.500860 0.500610 -0.139703
C32   C     C_R   0.957583 0.405299 0.457429 -0.010076
C33   C     C_R   0.100378 0.406448 0.457748 -0.159020
H14   H     H_    0.177842 0.331308 0.423923 0.170988
N2    N     N_R   0.142540 0.500820 0.500610 -0.109191
C34   C     C_R   0.047355 0.599044 0.537575 0.200403
C35   C     C_3   0.991515 0.643926 0.637631 -0.480998
C36   C     C_3   0.838370 0.644421 0.637624 -0.460931
H15   H     H_    0.006621 0.572913 0.685784 0.224251
H16   H     H_    0.031319 0.739312 0.644221 0.204203
H17   H     H_    0.764911 0.574163 0.686303 0.226609
H18   H     H_    0.790080 0.740241 0.643796 0.201432
C37   C     C_2   0.923634 0.297012 0.410253 0.924784
O9    O     O_2   0.865686 0.312664 0.354671 -0.631139
O10   O     O_R   0.968115 0.176521 0.424113 -0.852796
H19   H     H_    0.942270 0.109904 0.386040 0.345939
C38   C     C_2   0.537591 0.666890 0.180440 0.946414
O11   O     O_2   0.529768 0.726018 0.114622 -0.573835
O12   O     O_R   0.520215 0.730649 0.263931 -0.824268
H20   H     H_    0.503355 0.824069 0.260147 0.340245
C39   C     C_2   0.799428 0.199895 0.919701 0.899700
O13   O     O_2   0.867830 0.198535 0.833928 -0.621085
O14   O     O_R   0.816169 0.100935 0.974044 -0.781268
H21   H     H_    0.890116 0.035462 0.934624 0.377009
N3    N     N_R   0.030094 0.646012 0.980291 0.203815
O15   O     O_R   0.989769 0.736903 0.939366 -0.373697
O16   O     O_R   0.935962 0.603667 0.059982 -0.413331

loop_
_geom_bond_atom_site_label_1
_geom_bond_atom_site_label_2
_geom_bond_distance
_ccdc_geom_bond_type
C5    C8    1.396010 A    
N1    C32   1.388154 A    
C23   C28   1.364632 A    
O12   H20   1.013461 S    
C9    C10   1.396984 A    
C31   C34   1.410277 A    
O14   H21   1.013932 S    
C6    C21   1.396612 A    
Zn1   O7    1.884205 S    
C16   C17   1.395939 A    
C13   C19   1.417852 A    
C18   C19   1.425170 A    
C19   C22   1.418159 A    
C9    H4    1.079079 S    
O4    C2    1.299079 A    
O7    C4    1.298341 A    
C33   N2    1.354691 A    
C23   C30   1.495740 S    
C7    N3    1.438619 S    
C32   C33   1.417500 A    
C24   C25   1.404788 A    
C35   H15   1.111962 S    
O5    C3    1.287352 A    
C2    C5    1.459278 S    
C31   N1    1.364559 A    
C29   H11   1.112346 S    
C1    C24   1.421943 S    
C13   C14   1.410442 A    
C8    H3    1.083219 S    
C29   H10   1.111484 S    
N2    C34   1.364872 A    
O10   H19   1.013978 S    
C25   C26   1.382839 A    
O3    Zn1   1.945382 S    
C17   C39   1.485534 S    
Zn2   N1    2.023547 S    
Zn1   N2    2.021563 S    
C26   C27   1.401412 A    
C7    C8    1.402332 A    
C22   C38   1.497716 S    
C12   C13   1.407693 A    
C36   H18   1.111407 S    
C37   O9    1.215469 D    
C14   C15   1.390433 A    
O3    C2    1.297280 A    
N3    O16   1.299559 A    
C16   H6    1.080356 S    
C31   C36   1.491906 S    
C7    C11   1.423129 A    
C34   C35   1.490282 S    
C37   O10   1.398480 S    
C35   H16   1.110860 S    
C5    C9    1.386865 A    
C39   O13   1.223254 D    
C28   C29   1.494295 S    
Zn2   O8    1.945379 S    
C30   H12   1.110866 S    
C14   H5    1.082008 S    
C21   H2    1.074047 S    
C39   O14   1.398437 S    
C23   C24   1.393113 A    
O8    C4    1.299401 A    
C4    C6    1.462946 S    
C25   H8    1.083263 S    
C26   H9    1.081951 S    
C38   O12   1.398117 S    
Zn1   O5    1.985430 S    
C11   C15   1.402787 A    
C27   C28   1.393626 A    
C29   C30   1.516417 S    
C36   H17   1.111809 S    
O1    Zn1   1.990933 S    
O2    Zn2   1.985430 S    
C10   C12   1.417656 A    
O6    C3    1.290203 A    
O4    Zn2   1.884205 S    
C6    C22   1.400662 A    
C32   C37   1.469090 S    
C18   C20   1.406416 A    
O2    C1    1.287894 A    
C38   O11   1.223869 D    
C33   H14   1.082357 S    
C20   C21   1.387534 A    
C30   H13   1.108759 S    
C20   H7    1.079901 S    
C35   C36   1.518015 S    
N3    O15   1.301502 A    
C10   C11   1.423823 A    
Zn2   O6    1.990933 S    
C12   C16   1.411749 A    
C17   C18   1.411863 A    
C3    C27   1.421696 S    
O1    C1    1.289744 A    
C15   H1    1.079625 S    
