data_mof_unit_9537.cif
_audit_creation_date              2012-12-10T19:27:34-0500
_audit_creation_method            fapswitch 2.2
_symmetry_space_group_name_H-M    P1
_symmetry_Int_Tables_number       1
_space_group_crystal_system       triclinic
_cell_length_a                    23.442532
_cell_length_b                    10.490166
_cell_length_c                    9.765112
_cell_angle_alpha                 89.555742
_cell_angle_beta                  90.088573
_cell_angle_gamma                 90.189966
_cell_volume                      2401.30963161

loop_
_atom_site_label
_atom_site_type_symbol
_atom_type_description
_atom_site_fract_x
_atom_site_fract_y
_atom_site_fract_z
_atom_type_partial_charge
C1    C     C_R   0.499862 0.257738 0.500612 0.936784
C2    C     C_R   0.702729 0.516093 0.623139 -0.312840
C3    C     C_R   0.237701 0.485607 0.375851 0.481359
C4    C     C_R   0.762324 0.516879 0.623515 0.485979
C5    C     C_R   0.208450 0.497201 0.500211 0.116821
C6    C     C_R   0.791518 0.501963 0.499518 0.116271
C7    C     C_3   0.499429 0.039139 0.632211 -0.247852
C8    C     C_3   0.500577 0.960862 0.367789 -0.247766
C9    C     C_3   0.547184 0.957555 0.566754 -0.302689
C10   C     C_3   0.452822 0.042446 0.433245 -0.302769
C11   C     C_3   0.500584 0.877014 0.497834 -0.082377
C12   C     C_R   0.500140 0.742262 0.499388 0.937003
C13   C     C_3   0.499422 0.122986 0.502165 -0.082296
C14   C     C_3   0.453988 0.957140 0.561560 0.494692
C15   C     C_3   0.546018 0.042862 0.438440 0.494825
C16   C     C_R   0.389446 0.499632 0.499935 0.937180
C17   C     C_R   0.610549 0.500315 0.500061 0.936981
C18   C     C_3   0.514107 0.388519 0.049818 -0.209979
C19   C     C_3   0.485893 0.611481 0.950182 -0.210277
C20   C     C_3   0.550232 0.471551 0.951459 -0.206947
C21   C     C_3   0.449769 0.528449 0.048540 -0.206695
C22   C     C_3   0.464698 0.418984 0.953461 0.549547
C23   C     C_R   0.238116 0.509510 0.624949 0.418832
C24   C     C_3   0.535302 0.581016 0.046538 0.549380
C25   C     C_R   0.880784 0.611888 0.479502 0.664379
C26   C     C_R   0.119187 0.387153 0.520276 0.654060
C27   C     C_R   0.879471 0.388232 0.527193 0.681915
C28   C     C_R   0.120477 0.610711 0.472010 0.698548
C29   C     C_R   0.939667 0.383480 0.531150 -0.161858
C30   C     C_R   0.060285 0.615412 0.467963 -0.167509
C31   C     C_R   0.969928 0.498590 0.501476 -0.046707
C32   C     C_R   0.030031 0.500335 0.497801 -0.048273
C33   C     C_R   0.940136 0.612691 0.476043 -0.099994
C34   C     C_R   0.761812 0.486456 0.375270 0.417383
C35   C     C_R   0.059828 0.386281 0.523435 -0.094963
C36   C     C_R   0.970993 0.270155 0.561345 0.447759
C37   C     C_R   0.028957 0.728695 0.437624 0.444995
C38   C     C_R   0.030359 0.273671 0.554132 -0.145906
C39   C     C_R   0.969600 0.725260 0.445157 -0.152953
C40   C     C_R   0.297477 0.509424 0.623632 -0.241927
C41   C     C_R   0.702453 0.486791 0.376679 -0.239659
C42   C     C_R   0.327208 0.498633 0.499889 -0.151288
C43   C     C_R   0.672777 0.501070 0.500049 -0.152139
C44   C     C_R   0.297292 0.486669 0.376337 -0.313098
H1    H     H_    0.592432 0.449751 0.905989 0.165179
H2    H     H_    0.679950 0.527608 0.718676 0.174006
H3    H     H_    0.585860 0.919106 0.617966 0.176394
H4    H     H_    0.414146 0.080894 0.382033 0.176611
H5    H     H_    0.497708 0.074135 0.739148 0.190852
H6    H     H_    0.502298 0.925867 0.260851 0.190825
H7    H     H_    0.877730 0.063884 0.765786 0.403074
H8    H     H_    0.122232 0.934221 0.232370 0.404301
H9    H     H_    0.407902 0.288910 0.976467 0.320809
H10   H     H_    0.592087 0.711111 0.023528 0.320399
H11   H     H_    0.129215 0.631571 0.854569 0.403861
H12   H     H_    0.407569 0.550257 0.094007 0.164508
H13   H     H_    0.856913 0.579048 0.097156 0.400657
H14   H     H_    0.233648 0.466211 0.178093 0.374013
H15   H     H_    0.766468 0.541044 0.820632 0.368447
H16   H     H_    0.383585 0.979303 0.657539 0.351641
H17   H     H_    0.616423 0.020704 0.342464 0.351750
H18   H     H_    0.525038 0.294831 0.096387 0.174953
H19   H     H_    0.474963 0.705169 0.903613 0.174970
H20   H     H_    0.054122 0.187437 0.575065 0.254194
H21   H     H_    0.945841 0.811503 0.424247 0.254752
H22   H     H_    0.320547 0.518399 0.719219 0.226047
H23   H     H_    0.679326 0.475051 0.281541 0.225790
H24   H     H_    0.320092 0.477799 0.280481 0.174497
N1    N     N_R   0.852250 0.500658 0.501561 -0.334867
N2    N     N_R   0.147714 0.498373 0.498045 -0.333248
N3    N     N_3   0.499960 0.500030 0.863290 -0.100489
N4    N     N_3   0.500040 0.499970 0.136710 -0.100474
O1    O     O_R   0.500000 0.313960 0.616610 -0.596387
O2    O     O_2   0.148569 0.278049 0.540495 -0.485654
O3    O     O_2   0.847592 0.282599 0.545500 -0.431241
O4    O     O_2   0.152335 0.716375 0.453702 -0.426545
O5    O     O_2   0.906390 0.066850 0.497866 -0.196867
O6    O     O_2   0.985075 0.028888 0.657432 -0.258021
O7    O     O_3   0.896477 0.147239 0.748613 -0.467134
O8    O     O_2   0.014848 0.969569 0.340452 -0.253848
O9    O     O_2   0.093519 0.932296 0.500249 -0.196437
O10   O     O_3   0.103482 0.850928 0.249882 -0.477169
O11   O     O_3   0.426473 0.331295 0.897097 -0.737659
O12   O     O_R   0.500000 0.686040 0.383390 -0.596368
O13   O     O_3   0.573526 0.668707 0.102900 -0.737117
O14   O     O_2   0.172793 0.400524 0.817012 -0.250978
O15   O     O_2   0.243016 0.557286 0.895620 -0.287756
O16   O     O_3   0.152522 0.640234 0.770475 -0.516071
O17   O     O_2   0.838988 0.356619 0.230476 -0.244655
O18   O     O_2   0.756470 0.439563 0.104343 -0.289267
O19   O     O_3   0.834767 0.599815 0.180312 -0.513601
O20   O     O_3   0.206825 0.473676 0.256024 -0.695202
O21   O     O_3   0.793254 0.531628 0.742886 -0.706427
O22   O     O_3   0.405883 0.905134 0.625686 -0.737599
O23   O     O_R   0.500030 0.313950 0.383350 -0.614885
O24   O     O_3   0.594123 0.094871 0.374314 -0.738033
O25   O     O_R   0.499970 0.686050 0.616650 -0.614862
O26   O     O_R   0.416140 0.499970 0.616650 -0.579005
O27   O     O_R   0.583860 0.500030 0.383350 -0.578947
O28   O     O_R   0.416170 0.499960 0.383400 -0.640308
O29   O     O_R   0.583830 0.500040 0.616600 -0.640159
O30   O     O_2   0.851410 0.721052 0.459584 -0.479840
S1    S     S_3+6 0.939921 0.122553 0.614483 0.120936
S2    S     S_3+6 0.060014 0.876111 0.383856 0.119141
S3    S     S_3+6 0.201831 0.524682 0.782939 0.066061
S4    S     S_3+6 0.798093 0.466135 0.217967 0.067130
Zn1   Zn    Zn3+2 0.499980 0.500010 0.655740 1.012682
Zn2   Zn    Zn3+2 0.500020 0.499990 0.344260 1.012706

loop_
_geom_bond_atom_site_label_1
_geom_bond_atom_site_label_2
_ccdc_geom_bond_type
O29   Zn1   S    
C6    N1    S    
N3    Zn1   S    
C27   C29   A    
C41   C43   A    
C19   N3    S    
H17   O24   S    
C41   H23   S    
C2    H2    S    
O27   Zn2   S    
C29   C36   A    
C33   C39   A    
O8    S2    D    
C36   S1    S    
C19   C21   S    
C11   C14   S    
C25   O30   S    
O1    Zn1   S    
C23   C40   A    
C23   S3    S    
C12   O12   A    
H11   O16   S    
C17   O29   A    
O12   Zn2   S    
C7    C14   S    
C20   C24   S    
C19   H19   S    
O15   S3    D    
O17   S4    D    
C31   C33   A    
C20   N3    S    
C24   O13   S    
C20   H1    S    
C27   N1    A    
C40   C42   A    
C40   H22   S    
C21   C22   S    
C39   H21   S    
O19   S4    S    
O7    S1    S    
C34   C41   A    
C42   C44   A    
C27   O3    S    
C38   H20   S    
C18   N4    S    
C3    C44   A    
O28   Zn2   S    
C21   N4    S    
C34   S4    S    
C32   C35   A    
N4    Zn2   S    
C35   C38   A    
C7    H5    S    
C4    C6    A    
C10   C14   S    
C15   O24   S    
C16   O28   A    
O26   Zn1   S    
C6    C34   A    
C30   C37   A    
C3    O20   S    
C2    C4    A    
C17   C43   S    
C5    N2    S    
C21   H12   S    
C17   O27   A    
C31   C32   A    
C5    C23   A    
C2    C43   A    
C1    O23   A    
H8    O10   S    
C9    C11   S    
O18   S4    D    
C12   O25   A    
C8    C10   S    
H10   O13   S    
C9    H3    S    
C8    C15   S    
C13   C15   S    
C10   H4    S    
C26   N2    A    
C44   H24   S    
O14   S3    D    
C25   N1    A    
C28   O4    S    
C8    H6    S    
C22   N3    S    
C24   N4    S    
C7    C9    S    
H13   O19   S    
O6    S1    D    
C18   C22   S    
C16   C42   S    
C28   N2    A    
C3    C5    A    
C10   C13   S    
C37   S2    S    
C11   C12   S    
H9    O11   S    
C1    O1    A    
C22   O11   S    
C28   C30   A    
C19   C24   S    
C9    C15   S    
C29   C31   A    
C30   C32   A    
O16   S3    S    
C16   O26   A    
C8    C11   S    
C36   C38   A    
C26   O2    S    
C18   C20   S    
H7    O7    S    
O5    S1    D    
O23   Zn2   S    
C4    O21   S    
O25   Zn1   S    
C26   C35   A    
C7    C13   S    
C1    C13   S    
C37   C39   A    
O10   S2    S    
C18   H18   S    
H15   O21   S    
H14   O20   S    
C14   O22   S    
C25   C33   A    
O9    S2    D    
H16   O22   S    
