data_mof_unit_29411.cif
_audit_creation_date              2012-12-10T17:14:43-0500
_audit_creation_method            fapswitch 2.2
_symmetry_space_group_name_H-M    P1
_symmetry_Int_Tables_number       1
_space_group_crystal_system       triclinic
_cell_length_a                    10.698609
_cell_length_b                    13.001776
_cell_length_c                    11.868891
_cell_angle_alpha                 100.347617
_cell_angle_beta                  93.484993
_cell_angle_gamma                 93.472285
_cell_volume                      1616.81732866

loop_
_atom_site_label
_atom_site_type_symbol
_atom_type_description
_atom_site_fract_x
_atom_site_fract_y
_atom_site_fract_z
_atom_type_partial_charge
C1    C     C_R   0.499041 0.299716 0.478019 0.865862
C2    C     C_R   0.500959 0.700284 0.521981 0.865862
C3    C     C_R   0.432659 0.130207 0.532304 0.384923
C4    C     C_R   0.567341 0.869792 0.467696 0.384924
C5    C     C_R   0.454532 0.024788 0.535024 -0.124085
C6    C     C_R   0.545468 0.975212 0.464976 -0.124085
C7    C     C_R   0.389752 0.390393 0.019839 0.414534
C8    C     C_R   0.610247 0.609607 0.980161 0.414534
C9    C     C_R   0.402126 0.399884 0.141167 0.191321
C10   C     C_R   0.597874 0.600116 0.858833 0.191321
C11   C     C_R   0.542196 0.551562 0.157290 0.580201
C12   C     C_R   0.457804 0.448437 0.842710 0.580201
C13   C     C_R   0.537988 0.540915 0.034712 -0.201247
C14   C     C_R   0.462012 0.459085 0.965288 -0.201247
C15   C     C_R   0.260191 0.498926 0.500009 0.881656
C16   C     C_R   0.739809 0.501074 0.499991 0.881657
C17   C     C_3   0.036206 0.414628 0.536662 -0.070545
C18   C     C_3   0.963794 0.585372 0.463338 -0.070546
C19   C     C_3   0.946345 0.414476 0.430555 0.292440
C20   C     C_3   0.053655 0.585524 0.569445 0.292440
C21   C     C_3   0.875555 0.501262 0.500330 -0.167689
C22   C     C_3   0.124444 0.498738 0.499669 -0.167689
C23   C     C_3   0.966586 0.501281 0.606718 0.331048
C24   C     C_3   0.033414 0.498719 0.393282 0.331048
C25   C     C_R   0.495744 0.813663 0.535381 -0.267904
C26   C     C_R   0.504256 0.186337 0.464619 -0.267904
C27   C     C_R   0.613420 0.032086 0.393993 0.396874
C28   C     C_R   0.386579 0.967914 0.606007 0.396874
C29   C     C_R   0.588067 0.136612 0.390558 0.232056
C30   C     C_R   0.411932 0.863388 0.609442 0.232057
Cu1   Cu    Cu3+1 0.509400 0.507730 0.615930 1.000922
Cu2   Cu    Cu3+1 0.490600 0.492270 0.384070 1.000922
N1    N     N_R   0.523540 0.519360 0.790140 -0.266525
N2    N     N_R   0.476460 0.480640 0.209860 -0.266525
O1    O     O_R   0.506670 0.354460 0.582000 -0.566160
O2    O     O_R   0.493330 0.645540 0.418000 -0.566160
O3    O     O_R   0.490800 0.341410 0.386200 -0.565779
O4    O     O_R   0.509200 0.658590 0.613800 -0.565779
O5    O     O_R   0.324790 0.506500 0.597880 -0.585379
O6    O     O_R   0.675210 0.493500 0.402120 -0.585380
O7    O     O_R   0.308910 0.493440 0.402080 -0.572523
O8    O     O_R   0.691090 0.506560 0.597920 -0.572523
O9    O     O_3   0.888754 0.325395 0.358039 -0.663118
H1    H     H_    0.958350 0.287297 0.322875 0.329712
O10   O     O_3   0.111246 0.674605 0.641961 -0.663118
H2    H     H_    0.041650 0.712703 0.677125 0.329712
N3    N     N_3   0.075440 0.321449 0.576820 -0.537413
H3    H     H_    0.995816 0.284468 0.603202 0.276525
H4    H     H_    0.102841 0.270711 0.505489 0.208259
N4    N     N_3   0.924561 0.678551 0.423180 -0.537413
H5    H     H_    0.004184 0.715532 0.396798 0.276525
H6    H     H_    0.897159 0.729289 0.494511 0.208259
O11   O     O_3   0.931011 0.502710 0.718380 -0.689724
H7    H     H_    0.010441 0.502984 0.766020 0.355608
O12   O     O_3   0.068989 0.497290 0.281620 -0.689724
H8    H     H_    0.989558 0.497016 0.233980 0.355608
O13   O     O_3   0.659422 0.822819 0.404114 -0.588410
H9    H     H_    0.692560 0.767188 0.441867 0.300090
O14   O     O_3   0.340578 0.177181 0.595886 -0.588409
H10   H     H_    0.307440 0.232812 0.558133 0.300091
O15   O     O_3   0.353326 0.807029 0.682099 -0.663406
H11   H     H_    0.336140 0.855893 0.752702 0.344090
O16   O     O_3   0.646674 0.192971 0.317900 -0.663406
H12   H     H_    0.663859 0.144107 0.247298 0.344090
O17   O     O_3   0.706167 0.985680 0.330847 -0.626899
H13   H     H_    0.774269 0.039746 0.326721 0.333823
O18   O     O_3   0.293833 0.014320 0.669153 -0.626899
H14   H     H_    0.225731 0.960254 0.673279 0.333823
O19   O     O_3   0.388823 0.363528 0.777833 -0.598758
H15   H     H_    0.345846 0.387122 0.712852 0.361544
O20   O     O_3   0.611177 0.636471 0.222166 -0.598758
H16   H     H_    0.654153 0.612878 0.287148 0.361543
N5    N     N_3   0.659297 0.681997 0.811833 -0.595614
H17   H     H_    0.594915 0.735826 0.796157 0.265023
H18   H     H_    0.706731 0.653266 0.740451 0.273365
N6    N     N_3   0.340703 0.318003 0.188167 -0.595614
H19   H     H_    0.405085 0.264174 0.203843 0.265023
H20   H     H_    0.293269 0.346735 0.259549 0.273365
O21   O     O_3   0.309260 0.312462 0.953026 -0.622916
H21   H     H_    0.247375 0.284234 0.000350 0.354216
O22   O     O_3   0.690740 0.687538 0.046974 -0.622916
H22   H     H_    0.752625 0.715765 0.999650 0.354216

loop_
_geom_bond_atom_site_label_1
_geom_bond_atom_site_label_2
_ccdc_geom_bond_type
O12   H8    S    
C29   O16   S    
C16   C21   S    
Cu1   O8    S    
C27   C29   A    
C18   C21   S    
N5    H17   S    
C12   O19   S    
C4    C25   A    
N3    H4    S    
O11   H7    S    
C24   O12   S    
C1    O1    A    
C17   C23   S    
C18   C24   S    
Cu2   O2    S    
C19   C21   S    
N6    H20   S    
C5    C6    A    
C10   N5    S    
C11   O20   S    
C15   C22   S    
C7    C14   A    
Cu1   Cu2   S    
C4    O13   S    
N4    H6    S    
Cu2   O7    S    
Cu1   N1    S    
C9    N6    S    
C2    C25   S    
C18   C20   S    
C20   O10   S    
C1    O3    A    
O14   H10   S    
C13   C14   A    
N5    H18   S    
O15   H11   S    
C19   O9    S    
C23   O11   S    
C11   N2    A    
O18   H14   S    
N3    H3    S    
C28   O18   S    
N6    H19   S    
C15   O7    A    
C4    C6    A    
O10   H2    S    
O22   H22   S    
C8    O22   S    
Cu2   N2    S    
O9    H1    S    
C27   O17   S    
C5    C28   A    
C2    O4    A    
C6    C27   A    
C20   C23   S    
N4    H5    S    
Cu2   O3    S    
C15   O5    A    
C16   O6    A    
C12   C14   A    
C21   C23   S    
C9    N2    A    
Cu1   O1    S    
O21   H21   S    
C16   O8    A    
C18   N4    S    
C7    O21   S    
C2    O2    A    
C25   C30   A    
C7    C9    A    
C3    C26   A    
C17   N3    S    
C20   C22   S    
C3    C5    A    
C17   C22   S    
Cu1   O4    S    
C28   C30   A    
C19   C24   S    
O20   H16   S    
C11   C13   A    
O13   H9    S    
C1    C26   S    
C17   C19   S    
Cu1   O5    S    
C10   N1    A    
C22   C24   S    
Cu2   O6    S    
O19   H15   S    
O16   H12   S    
C8    C13   A    
C26   C29   A    
C8    C10   A    
O17   H13   S    
C30   O15   S    
C12   N1    A    
C3    O14   S    
