data_mof_unit_63946.cif
_audit_creation_date              2012-12-10T19:13:36-0500
_audit_creation_method            fapswitch 2.2
_symmetry_space_group_name_H-M    P1
_symmetry_Int_Tables_number       1
_space_group_crystal_system       triclinic
_cell_length_a                    10.997415
_cell_length_b                    16.001571
_cell_length_c                    14.754353
_cell_angle_alpha                 90.005475
_cell_angle_beta                  101.449345
_cell_angle_gamma                 90.014597
_cell_volume                      2544.74362372

loop_
_atom_site_label
_atom_site_type_symbol
_atom_type_description
_atom_site_fract_x
_atom_site_fract_y
_atom_site_fract_z
_atom_type_partial_charge
C1    C     C_R   0.499995 0.340844 0.499975 0.816851
C2    C     C_R   0.499960 0.659149 0.500020 0.843025
C3    C     C_R   0.611915 0.498928 0.968632 -0.149612
C4    C     C_R   0.388090 0.501410 0.031369 -0.149771
C5    C     C_R   0.499969 0.500161 0.902863 0.034130
C6    C     C_R   0.500035 0.500137 0.097137 0.034106
C7    C     C_R   0.388055 0.501431 0.935531 -0.121271
C8    C     C_R   0.611950 0.498927 0.064470 -0.120547
C9    C     C_1   0.499943 0.500086 0.802731 0.174389
C10   C     C_1   0.500058 0.500049 0.197269 0.175394
C11   C     C_R   0.262319 0.504614 0.464104 0.882927
C12   C     C_R   0.737694 0.504597 0.535891 0.885719
C13   C     C_2   0.127737 0.513521 0.446417 -0.378819
C14   C     C_2   0.872290 0.513606 0.553552 -0.380210
C15   C     C_2   0.067587 0.545683 0.509699 0.346707
C16   C     C_2   0.932423 0.545596 0.490152 0.341695
C17   C     C_R   0.389226 0.957221 0.503676 0.181237
C18   C     C_R   0.610396 0.042681 0.496382 0.180464
C19   C     C_R   0.498199 0.912671 0.500046 0.042326
C20   C     C_R   0.501429 0.087255 0.499988 0.051203
C21   C     C_R   0.608131 0.955459 0.496426 -0.207083
C22   C     C_R   0.391482 0.044457 0.503618 -0.222710
C23   C     C_1   0.498902 0.823189 0.500005 0.025481
C24   C     C_1   0.500785 0.176758 0.500001 0.015069
C25   C     C_1   0.500283 0.251776 0.499999 -0.130191
C26   C     C_1   0.499524 0.748185 0.499990 -0.099158
Cu1   Cu    Cu3+1 0.500030 0.500000 0.589230 1.041196
Cu2   Cu    Cu3+1 0.499970 0.500000 0.410770 1.042441
H1    H     H_    0.924241 0.492174 0.619951 0.162168
H2    H     H_    0.075812 0.491817 0.380113 0.161987
H3    H     H_    0.307430 0.078853 0.506407 0.177728
H4    H     H_    0.692183 0.921057 0.493640 0.188232
H5    H     H_    0.699729 0.497961 0.113178 0.157847
H6    H     H_    0.300277 0.502426 0.886822 0.158030
H7    H     H_    0.699674 0.497950 0.945880 0.142063
H8    H     H_    0.300331 0.502378 0.054120 0.142215
N1    N     N_1   0.500040 0.499980 0.276720 -0.134337
N2    N     N_1   0.499960 0.500020 0.723280 -0.134700
O1    O     O_R   0.500060 0.380310 0.575330 -0.575408
O2    O     O_R   0.499940 0.619690 0.424670 -0.559369
O3    O     O_R   0.500000 0.380310 0.424640 -0.572199
O4    O     O_R   0.500000 0.619690 0.575360 -0.556997
O5    O     O_R   0.320710 0.500010 0.547660 -0.521552
O6    O     O_R   0.679290 0.499990 0.452340 -0.519496
O7    O     O_R   0.320650 0.500010 0.396960 -0.585346
O8    O     O_R   0.679350 0.499990 0.603040 -0.585251
Cl1   Cl    Cl    0.857055 0.590210 0.383684 -0.576986
Cl2   Cl    Cl    0.142966 0.590835 0.615885 -0.569399
I1    I     I_    0.219455 0.896284 0.509320 -0.241208
I2    I     I_    0.780253 0.103481 0.490823 -0.313009

loop_
_geom_bond_atom_site_label_1
_geom_bond_atom_site_label_2
_ccdc_geom_bond_type
C6    C10   S    
C19   C23   S    
C4    H8    S    
C2    O2    A    
C11   O5    A    
C10   N1    T    
C18   C21   A    
C13   H2    S    
C17   C22   A    
C3    H7    S    
C2    C26   S    
C24   C25   T    
C5    C9    S    
C11   C13   S    
Cu1   O4    S    
C15   Cl2   S    
C2    O4    A    
C4    C7    A    
Cu2   N1    S    
C16   Cl1   S    
C1    O3    A    
C9    N2    T    
C17   C19   A    
C12   C14   S    
C18   C20   A    
C8    H5    S    
C13   C15   D    
C21   H4    S    
C14   C16   D    
Cu2   O7    S    
C11   O7    A    
C22   H3    S    
Cu2   O2    S    
C14   H1    S    
Cu1   O1    S    
C15   C16   S    
Cu1   O5    S    
Cu2   O3    S    
Cu1   O8    S    
C7    H6    S    
C18   I2    S    
Cu2   O6    S    
C4    C6    A    
C3    C8    A    
C23   C26   T    
C17   I1    S    
Cu1   Cu2   S    
C5    C7    A    
C1    O1    A    
C12   O6    A    
C6    C8    A    
Cu1   N2    S    
C19   C21   A    
C1    C25   S    
C20   C24   S    
C20   C22   A    
C3    C5    A    
C12   O8    A    
