data_mof_unit_37109.cif
_audit_creation_date              2012-12-10T16:57:52-0500
_audit_creation_method            fapswitch 2.2
_symmetry_space_group_name_H-M    P1
_symmetry_Int_Tables_number       1
_space_group_crystal_system       triclinic
_cell_length_a                    10.644371
_cell_length_b                    10.902923
_cell_length_c                    9.743386
_cell_angle_alpha                 90.278487
_cell_angle_beta                  90.344178
_cell_angle_gamma                 89.694796
_cell_volume                      1130.71667247

loop_
_atom_site_label
_atom_site_type_symbol
_atom_type_description
_atom_site_fract_x
_atom_site_fract_y
_atom_site_fract_z
_atom_type_partial_charge
C1    C     C_R   0.498940 0.265478 0.499795 0.850004
C2    C     C_3   0.959219 0.493808 0.369913 -0.142621
C3    C     C_3   0.046466 0.398249 0.438915 -0.252976
C4    C     C_3   0.122914 0.503212 0.502015 -0.028716
C5    C     C_2   0.519070 0.932933 0.389195 -0.169531
C6    C     C_2   0.512404 0.866722 0.504174 -0.328397
C7    C     C_2   0.528437 0.066711 0.392545 -0.181705
C8    C     C_2   0.491471 0.133408 0.500754 -0.290829
C9    C     C_2   0.528880 0.409779 0.928141 0.220009
C10   C     C_2   0.478897 0.406654 0.071462 0.020266
C11   C     C_R   0.259600 0.502511 0.500149 0.808260
C12   C     C_R   0.502882 0.734571 0.500520 0.847070
C13   C     C_R   0.740449 0.496571 0.500061 0.790959
C14   C     C_3   0.041408 0.503085 0.631636 0.175829
C15   C     C_3   0.963056 0.398457 0.567997 0.009222
C16   C     C_3   0.877376 0.493739 0.499440 -0.042540
C17   C     C_3   0.954333 0.598988 0.562042 -0.179479
C18   C     C_3   0.038084 0.598934 0.432899 -0.180001
Cu1   Cu    Cu3+1 0.500030 0.500020 0.638630 0.990630
Cu2   Cu    Cu3+1 0.499970 0.499980 0.361370 0.944918
H1    H     H_    0.453015 0.092287 0.592230 0.157905
H2    H     H_    0.435045 0.560825 0.886775 0.198689
H3    H     H_    0.557669 0.564737 0.114786 0.202124
H4    H     H_    0.913842 0.681809 0.612151 0.147912
H5    H     H_    0.071353 0.681583 0.378161 0.145818
H6    H     H_    0.924266 0.488830 0.262456 0.165807
H7    H     H_    0.087547 0.314482 0.392134 0.154359
H8    H     H_    0.521090 0.888439 0.289228 0.170561
H9    H     H_    0.518954 0.908626 0.605019 0.155195
H10   H     H_    0.566129 0.111161 0.302612 0.167449
N1    N     N_2   0.498620 0.498660 0.846910 -0.296366
N2    N     N_2   0.498590 0.498630 0.153040 -0.320865
O1    O     O_R   0.500020 0.321960 0.617040 -0.546897
O2    O     O_R   0.499980 0.321920 0.382900 -0.573463
O3    O     O_R   0.316870 0.499990 0.617050 -0.559723
O4    O     O_R   0.316830 0.499950 0.382910 -0.581439
O5    O     O_R   0.500020 0.678080 0.617100 -0.579722
O6    O     O_R   0.499980 0.678040 0.382960 -0.581644
O7    O     O_R   0.683170 0.500050 0.617090 -0.541950
O8    O     O_R   0.683130 0.500010 0.382950 -0.588261
C19   C     C_R   0.928708 0.275087 0.625507 0.127030
C20   C     C_R   0.994196 0.225948 0.738477 -0.104055
C21   C     C_R   0.970333 0.106470 0.782439 -0.113085
C22   C     C_R   0.882836 0.034071 0.712501 -0.097292
C23   C     C_R   0.819364 0.080989 0.598272 -0.125457
C24   C     C_R   0.842177 0.200824 0.554592 -0.123983
H11   H     H_    0.066280 0.277741 0.790596 0.162155
H12   H     H_    0.021100 0.069396 0.869552 0.133908
H13   H     H_    0.865219 0.941217 0.745863 0.130034
H14   H     H_    0.753602 0.023826 0.542799 0.148391
H15   H     H_    0.794123 0.234790 0.464070 0.112977
I1    I     I_    0.666557 0.278803 0.873149 -0.378038
C25   C     C_R   0.382129 0.314290 0.102836 0.190396
C26   C     C_R   0.257210 0.352369 0.122371 -0.079923
C27   C     C_R   0.161160 0.265911 0.131987 -0.175771
C28   C     C_R   0.189338 0.140782 0.126344 -0.128339
C29   C     C_R   0.313306 0.101972 0.107570 -0.127026
C30   C     C_R   0.409010 0.188283 0.093521 -0.155070
H16   H     H_    0.233468 0.449053 0.124834 0.161816
H17   H     H_    0.064669 0.295990 0.143025 0.151388
H18   H     H_    0.114985 0.073991 0.135017 0.131427
H19   H     H_    0.335068 0.005001 0.101826 0.134867
H20   H     H_    0.503743 0.156372 0.075502 0.139109
I2    I     I_    0.094477 0.538130 0.840882 -0.471320

loop_
_geom_bond_atom_site_label_1
_geom_bond_atom_site_label_2
_ccdc_geom_bond_type
C22   H13   S    
C26   H16   S    
C25   C30   A    
C30   H20   S    
C28   H18   S    
C2    C18   S    
C1    C8    S    
C2    C16   S    
C21   H12   S    
Cu1   Cu2   S    
C14   C15   S    
C19   C24   A    
Cu1   N1    S    
H3    N2    S    
C27   C28   A    
C3    H7    S    
C8    H1    S    
C4    C18   S    
C29   H19   S    
C2    H6    S    
C7    H10   S    
Cu1   O3    S    
C25   C26   A    
C28   C29   A    
C4    C11   S    
C12   O6    A    
C9    I1    S    
C14   C17   S    
C27   H17   S    
C29   C30   A    
C18   H5    S    
Cu1   O7    S    
C23   H14   S    
C14   I2    S    
C9    C10   S    
C11   O3    A    
C11   O4    A    
Cu2   N2    S    
C1    O2    A    
C2    C3    S    
C20   H11   S    
C21   C22   A    
C4    C14   S    
C5    C6    D    
Cu2   O8    S    
C13   O7    A    
C17   H4    S    
H2    N1    S    
C9    N1    D    
C1    O1    A    
Cu2   O2    S    
C5    H8    S    
C6    C12   S    
C10   N2    D    
C7    C8    D    
C6    H9    S    
Cu2   O6    S    
C22   C23   A    
C15   C19   S    
C17   C18   S    
C19   C20   A    
C13   C16   S    
C12   O5    A    
C5    C7    S    
C10   C25   S    
C26   C27   A    
C3    C15   S    
Cu1   O5    S    
C23   C24   A    
C24   H15   S    
C3    C4    S    
C15   C16   S    
C20   C21   A    
Cu1   O1    S    
C16   C17   S    
C13   O8    A    
Cu2   O4    S    
