data_mof_unit_56892.cif
_audit_creation_date              2012-12-10T18:33:40-0500
_audit_creation_method            fapswitch 2.2
_symmetry_space_group_name_H-M    P1
_symmetry_Int_Tables_number       1
_space_group_crystal_system       triclinic
_cell_length_a                    10.495067
_cell_length_b                    14.994437
_cell_length_c                    15.503985
_cell_angle_alpha                 81.451843
_cell_angle_beta                  89.650904
_cell_angle_gamma                 104.932557
_cell_volume                      2328.72616005

loop_
_atom_site_label
_atom_site_type_symbol
_atom_type_description
_atom_site_fract_x
_atom_site_fract_y
_atom_site_fract_z
_atom_type_partial_charge
C1    C     C_R   0.475400 0.440599 0.662548 0.888110
C2    C     C_R   0.516027 0.484527 0.047448 0.052722
C3    C     C_R   0.480447 0.388797 0.083343 -0.201839
C4    C     C_R   0.610248 0.600691 0.922266 -0.199377
C5    C     C_R   0.452439 0.318966 0.030428 -0.036964
C6    C     C_R   0.660065 0.667369 0.976073 -0.031268
C7    C     C_R   0.694656 0.841715 0.637243 -0.271355
C8    C     C_R   0.313387 0.160597 0.357785 -0.267030
C9    C     C_R   0.661331 0.752535 0.615521 0.069359
C10   C     C_R   0.341871 0.248382 0.382556 0.038210
C11   C     C_R   0.516607 0.794555 0.509208 -0.057907
C12   C     C_R   0.522866 0.559244 0.337977 0.923153
C13   C     C_R   0.484834 0.205780 0.489837 -0.018625
C14   C     C_R   0.546118 0.886537 0.528010 -0.003823
C15   C     C_R   0.461289 0.115497 0.467356 -0.010828
C16   C     C_R   0.742687 0.501233 0.499917 0.866529
C17   C     C_R   0.257383 0.498954 0.499614 0.849065
C18   C     C_R   0.637158 0.909076 0.593782 0.150057
C19   C     C_R   0.372628 0.093672 0.400142 0.175376
C20   C     C_R   0.488708 0.955968 0.484453 0.086438
C21   C     C_R   0.521723 0.046899 0.509044 0.075083
C22   C     C_R   0.614513 0.066393 0.573999 -0.240282
C23   C     C_R   0.464372 0.466992 0.815185 0.395411
C24   C     C_R   0.399970 0.937613 0.417021 -0.216908
C25   C     C_R   0.670648 0.998549 0.615490 -0.165134
C26   C     C_R   0.343745 0.005478 0.375621 -0.165766
C27   C     C_3   0.930782 0.431461 0.560507 -0.175342
C28   C     C_3   0.069435 0.568962 0.438275 -0.162785
C29   C     C_3   0.047058 0.512411 0.578388 -0.186686
C30   C     C_3   0.953040 0.488025 0.420401 -0.163944
C31   C     C_3   0.121571 0.497664 0.498955 0.021968
C32   C     C_3   0.878601 0.502758 0.499900 0.029409
C33   C     C_3   0.007894 0.416704 0.481040 -0.142322
C34   C     C_R   0.490679 0.539328 0.185843 0.400466
C35   C     C_3   0.992280 0.583735 0.517752 -0.120031
C36   C     C_R   0.455154 0.402590 0.756793 -0.269112
C37   C     C_R   0.550508 0.597042 0.245110 -0.268125
C38   C     C_R   0.434211 0.279084 0.881414 -0.190396
C39   C     C_R   0.666693 0.710726 0.123631 -0.200901
C40   C     C_R   0.435053 0.306392 0.790977 -0.092996
C41   C     C_R   0.639996 0.684560 0.213680 -0.101972
C42   C     C_2   0.412993 0.220192 0.074185 0.896786
C43   C     C_2   0.750196 0.757553 0.935344 0.892323
C44   C     C_3   0.266863 0.502207 0.198714 0.105679
C45   C     C_R   0.486436 0.441341 0.903234 -0.027369
C46   C     C_3   0.144363 0.426420 0.235202 -0.823838
C47   C     C_3   0.312779 0.551530 0.792898 0.126272
C48   C     C_3   0.293108 0.645388 0.751857 -0.779887
C49   C     C_2   0.711306 0.749394 0.271267 0.953308
C50   C     C_2   0.406449 0.230853 0.736755 0.949770
C51   C     C_R   0.543767 0.555514 0.100176 -0.019695
C52   C     C_R   0.456401 0.345288 0.938804 0.000514
C53   C     C_R   0.624411 0.645634 0.066198 -0.002862
C54   C     C_R   0.534262 0.509855 0.956796 0.052095
H1    H     H_    0.089510 0.521919 0.642787 0.135556
H2    H     H_    0.371935 0.871474 0.393776 0.142449
H3    H     H_    0.869673 0.375794 0.610430 0.143661
H4    H     H_    0.130618 0.624495 0.388275 0.136382
H5    H     H_    0.018251 0.348693 0.466084 0.152254
H6    H     H_    0.981936 0.651749 0.532709 0.153719
H7    H     H_    0.418459 0.205550 0.905971 0.211367
H8    H     H_    0.727212 0.780293 0.100043 0.216401
H9    H     H_    0.480728 0.367087 0.153054 0.216491
H10   H     H_    0.642454 0.617922 0.853977 0.202402
H11   H     H_    0.740976 0.016369 0.665177 0.167720
H12   H     H_    0.910038 0.478563 0.356082 0.146224
H13   H     H_    0.276450 0.988539 0.324097 0.154190
H14   H     H_    0.285659 0.092510 0.083187 0.350419
H15   H     H_    0.922578 0.854998 0.938467 0.354168
H16   H     H_    0.255939 0.522782 0.127643 0.153202
H17   H     H_    0.273053 0.563468 0.232942 0.126437
H18   H     H_    0.150464 0.407316 0.306759 0.246494
H19   H     H_    0.055113 0.452289 0.222617 0.212561
H20   H     H_    0.135732 0.363491 0.203541 0.263435
H21   H     H_    0.276937 0.537212 0.862621 0.143119
H22   H     H_    0.252857 0.496799 0.757460 0.122025
H23   H     H_    0.548806 0.229175 0.540402 0.131764
H24   H     H_    0.326090 0.660496 0.681750 0.265263
H25   H     H_    0.187011 0.643928 0.757204 0.194361
H26   H     H_    0.351173 0.701693 0.785896 0.269182
H27   H     H_    0.767073 0.881696 0.296546 0.344127
H28   H     H_    0.446821 0.113770 0.708528 0.341097
H29   H     H_    0.448757 0.769975 0.460991 0.131141
H30   H     H_    0.297733 0.301180 0.350087 0.164946
H31   H     H_    0.705077 0.699592 0.648338 0.140723
H32   H     H_    0.764910 0.858002 0.687212 0.188893
H33   H     H_    0.246126 0.145253 0.305959 0.159205
H34   H     H_    0.647260 0.133841 0.594332 0.155729
N1    N     N_R   0.574200 0.731700 0.552740 -0.104231
N2    N     N_R   0.425800 0.268300 0.447260 -0.100915
O1    O     O_R   0.462600 0.383110 0.605620 -0.596255
O2    O     O_R   0.303515 0.157048 0.047169 -0.805209
O3    O     O_2   0.722579 0.798246 0.866544 -0.639444
O4    O     O_R   0.869288 0.793854 0.973142 -0.808212
O5    O     O_3   0.378927 0.467144 0.212140 -0.623393
O6    O     O_3   0.448282 0.555344 0.786585 -0.602926
O7    O     O_2   0.772129 0.721157 0.331791 -0.623964
O8    O     O_R   0.714440 0.844114 0.253323 -0.798316
O9    O     O_2   0.315707 0.224262 0.686967 -0.609608
O10   O     O_R   0.477932 0.163467 0.747044 -0.814976
O11   O     O_R   0.537400 0.616890 0.394380 -0.605585
O12   O     O_R   0.510210 0.531900 0.639510 -0.563322
O13   O     O_R   0.489790 0.468100 0.360490 -0.569751
O14   O     O_R   0.662240 0.425610 0.483080 -0.632777
O15   O     O_R   0.337760 0.574390 0.516920 -0.634784
O16   O     O_R   0.709860 0.574400 0.516970 -0.606776
O17   O     O_R   0.290140 0.425600 0.483030 -0.617653
O18   O     O_2   0.472910 0.195085 0.136663 -0.621126
Zn1   Zn    Zn3+2 0.468210 0.400660 0.477370 0.983954
Zn2   Zn    Zn3+2 0.531790 0.599340 0.522630 0.975427

loop_
_geom_bond_atom_site_label_1
_geom_bond_atom_site_label_2
_ccdc_geom_bond_type
C30   C32   S    
O15   Zn2   S    
C23   C45   A    
C13   N2    A    
C27   C29   S    
C34   C37   A    
C14   C18   A    
C5    C42   S    
C39   C41   A    
C27   C33   S    
C15   C19   A    
C50   O9    D    
C26   H13   S    
C48   H25   S    
C24   C26   A    
C47   H22   S    
C17   O17   A    
O14   Zn1   S    
C11   C14   A    
C7    H32   S    
C38   C52   A    
H27   O8    S    
C43   O4    S    
C23   O6    S    
C44   H17   S    
C48   H24   S    
C12   C37   S    
C19   C26   A    
C9    H31   S    
C49   O8    S    
C16   O14   A    
C20   C24   A    
C28   C35   S    
C22   C25   A    
C47   O6    S    
C31   C33   S    
C5    C52   A    
C44   H16   S    
C22   H34   S    
C46   H18   S    
C16   O16   A    
C38   H7    S    
C33   H5    S    
C1    O1    A    
C21   C22   A    
O17   Zn1   S    
C18   C25   A    
C41   C49   S    
C44   C46   S    
C13   H23   S    
C8    C19   A    
C32   C35   S    
C14   C20   A    
C36   C40   A    
C25   H11   S    
C34   O5    S    
C12   O13   A    
C4    C6    A    
H15   O4    S    
C2    C54   A    
C9    N1    A    
H14   O2    S    
C29   H1    S    
C45   C52   A    
C11   H29   S    
O11   Zn2   S    
N1    Zn2   S    
C35   H6    S    
C51   C53   A    
C17   O15   A    
C11   N1    A    
C47   C48   S    
C7    C18   A    
C34   C51   A    
C30   H12   S    
C45   C54   A    
C28   H4    S    
C6    C43   S    
C13   C15   A    
C27   H3    S    
C17   C31   S    
O12   Zn2   S    
C16   C32   S    
C6    C53   A    
C46   H20   S    
O16   Zn2   S    
C7    C9    A    
C39   H8    S    
C4    H10   S    
C30   C33   S    
C4    C54   A    
C27   C32   S    
H28   O10   S    
C28   C31   S    
C3    C5    A    
C3    H9    S    
C24   H2    S    
C29   C35   S    
C50   O10   S    
O13   Zn1   S    
C8    H33   S    
C48   H26   S    
C28   C30   S    
C2    C3    A    
C47   H21   S    
C12   O11   A    
C29   C31   S    
C44   O5    S    
C38   C40   A    
O1    Zn1   S    
C39   C53   A    
C40   C50   S    
C10   H30   S    
C43   O3    D    
C42   O2    S    
C37   C41   A    
C2    C51   A    
C49   O7    D    
C15   C21   A    
C20   C21   A    
C10   N2    A    
C8    C10   A    
C23   C36   A    
N2    Zn1   S    
C42   O18   D    
C1    O12   A    
C46   H19   S    
C1    C36   S    
