data_mof_unit_49345.cif
_audit_creation_date              2012-12-11T17:34:26-0500
_audit_creation_method            fapswitch 2.2
_symmetry_space_group_name_H-M    P1
_symmetry_Int_Tables_number       1
_space_group_crystal_system       triclinic
_cell_length_a                    23.78955
_cell_length_b                    7.219573
_cell_length_c                    20.643465
_cell_angle_alpha                 90.005516
_cell_angle_beta                  105.492864
_cell_angle_gamma                 90.005451
_cell_volume                      3416.69208977

loop_
_atom_site_label
_atom_site_type_symbol
_atom_type_description
_atom_site_fract_x
_atom_site_fract_y
_atom_site_fract_z
_atom_type_partial_charge
O1    O     O_R   0.449110 0.494310 0.552140 -0.536069
O2    O     O_R   0.550890 0.994310 0.447860 -0.536087
O3    O     O_R   0.440010 0.824420 0.415850 -0.534780
O4    O     O_R   0.559990 0.324420 0.584150 -0.534791
C1    C     C_R   0.425251 0.655507 0.390989 0.685371
C2    C     C_R   0.574751 0.155539 0.609011 0.685361
O5    O     O_R   0.442260 0.824040 0.549660 -0.542109
O6    O     O_R   0.557740 0.324040 0.450340 -0.542108
O7    O     O_R   0.553160 0.993960 0.582620 -0.531120
O8    O     O_R   0.446840 0.493960 0.417380 -0.531123
C3    C     C_R   0.428557 0.655377 0.567479 0.703272
C4    C     C_R   0.571445 0.155378 0.432522 0.703284
O9    O     O_3   0.536380 0.660670 0.510660 -0.372765
O10   O     O_3   0.463620 0.160670 0.489340 -0.372748
V1    V     V_3+5 0.493250 0.935680 0.498020 1.423775
V2    V     V_3+5 0.506750 0.435680 0.501980 1.423784
C5    C     C_R   0.839795 0.930779 0.189903 -0.156656
C6    C     C_R   0.160231 0.430675 0.810130 -0.156709
H1    H     H_    0.837275 0.816988 0.223254 0.158393
H2    H     H_    0.162776 0.316806 0.776813 0.158497
C7    C     C_R   0.877779 0.916474 0.148831 -0.242578
C8    C     C_R   0.122249 0.416392 0.851205 -0.242645
H3    H     H_    0.904110 0.792661 0.152115 0.162389
H4    H     H_    0.095944 0.292515 0.847955 0.162312
C9    C     C_R   0.883397 0.061924 0.105849 -0.066309
C10   C     C_R   0.116601 0.561934 0.894145 -0.066330
C11   C     C_R   0.848382 0.222489 0.103011 0.267231
C12   C     C_R   0.151585 0.722582 0.896936 0.267364
C13   C     C_R   0.808408 0.235512 0.143527 -0.066083
C14   C     C_R   0.191554 0.735592 0.856413 -0.066091
C15   C     C_R   0.805420 0.089099 0.188395 0.057243
C16   C     C_R   0.194574 0.589071 0.811592 0.057227
C17   C     C_1   0.766576 0.096328 0.232260 0.069577
C18   C     C_1   0.233420 0.596272 0.767729 0.069599
C19   C     C_1   0.734144 0.107045 0.268606 -0.015165
C20   C     C_1   0.265855 0.606983 0.731387 -0.015118
C21   C     C_R   0.664811 0.965800 0.323442 -0.155005
C22   C     C_R   0.335343 0.465894 0.676743 -0.154807
H5    H     H_    0.671673 0.833910 0.301680 0.176875
H6    H     H_    0.328597 0.334109 0.698646 0.176492
C23   C     C_R   0.625291 0.975783 0.362865 -0.153737
C24   C     C_R   0.374866 0.475899 0.637325 -0.153829
H7    H     H_    0.602863 0.850455 0.370466 0.140534
H8    H     H_    0.397421 0.350703 0.629877 0.140436
C25   C     C_R   0.614328 0.144962 0.391214 -0.126999
C26   C     C_R   0.385679 0.644951 0.608791 -0.126965
C27   C     C_R   0.644647 0.303523 0.379477 -0.158302
C28   C     C_R   0.355212 0.803362 0.620342 -0.158296
H9    H     H_    0.637459 0.435554 0.400893 0.145339
H10   H     H_    0.362281 0.935282 0.598776 0.145442
C29   C     C_R   0.685060 0.295073 0.340753 0.391428
C30   C     C_R   0.314797 0.794884 0.659065 0.391490
C31   C     C_R   0.694899 0.123702 0.311662 0.009759
C32   C     C_R   0.305104 0.623644 0.688335 0.009787
C33   C     C_R   0.641120 0.153802 0.796244 -0.160232
C34   C     C_R   0.358937 0.652360 0.203750 -0.160203
H11   H     H_    0.554806 0.182263 0.730919 0.107759
H12   H     H_    0.445255 0.680743 0.269077 0.107792
H13   H     H_    0.725650 0.148280 0.909664 0.125887
H14   H     H_    0.274433 0.646245 0.090310 0.125814
H15   H     H_    0.626012 0.171240 0.840971 0.118126
H16   H     H_    0.374073 0.669115 0.159016 0.118140
C35   C     C_R   0.618608 0.146388 0.674886 -0.045132
C36   C     C_R   0.381400 0.646217 0.325114 -0.045103
C37   C     C_R   0.903304 0.021448 0.767483 0.278155
C38   C     C_R   0.096646 0.522439 0.232538 0.278081
C39   C     C_R   0.863733 0.994961 0.704435 -0.190274
C40   C     C_R   0.136185 0.496343 0.295627 -0.190228
C41   C     C_R   0.803618 0.000630 0.696202 0.316423
C42   C     C_R   0.196307 0.501655 0.303882 0.316445
C43   C     C_R   0.780945 0.058880 0.750333 -0.027053
C44   C     C_R   0.219030 0.559117 0.249701 -0.027120
C45   C     C_R   0.821263 0.074225 0.815686 -0.046582
C46   C     C_R   0.178740 0.574013 0.184317 -0.046545
C47   C     C_R   0.720105 0.098152 0.742750 0.090099
C48   C     C_R   0.279891 0.598031 0.257265 0.090105
C49   C     C_R   0.700546 0.124829 0.801402 0.139357
C50   C     C_R   0.299488 0.623850 0.198598 0.139376
C51   C     C_R   0.740395 0.126264 0.864899 -0.181488
C52   C     C_R   0.259659 0.624869 0.135088 -0.181488
C53   C     C_R   0.799776 0.106125 0.871862 -0.138514
C54   C     C_R   0.200264 0.605121 0.128121 -0.138282
C55   C     C_R   0.678180 0.120309 0.679391 -0.232228
C56   C     C_R   0.321807 0.620620 0.320611 -0.232265
C57   C     C_R   0.600486 0.161551 0.733616 -0.158526
C58   C     C_R   0.399557 0.660472 0.266382 -0.158512
C59   C     C_R   0.882328 0.053075 0.823877 -0.119208
C60   C     C_R   0.117661 0.553256 0.176125 -0.119173
H17   H     H_    0.690727 0.124218 0.632930 0.156490
H18   H     H_    0.309244 0.625162 0.367054 0.156479
H19   H     H_    0.879712 0.956800 0.661792 0.148291
H20   H     H_    0.120170 0.458792 0.338302 0.148307
H21   H     H_    0.828813 0.114449 0.922070 0.117553
H22   H     H_    0.171245 0.613100 0.077895 0.117165
O11   O     O_R   0.053190 0.709680 0.082610 -0.534411
O12   O     O_R   0.946810 0.209680 0.917390 -0.534490
O13   O     O_R   0.057740 0.380240 0.950340 -0.550214
O14   O     O_R   0.942260 0.880240 0.049660 -0.550183
C61   C     C_R   0.072277 0.549420 0.933647 0.713679
C62   C     C_R   0.927723 0.049416 0.066352 0.713675
O15   O     O_R   0.060000 0.379940 0.084150 -0.536944
O16   O     O_R   0.940000 0.879940 0.915850 -0.536850
O17   O     O_R   0.949110 0.210100 0.052140 -0.500448
O18   O     O_R   0.050890 0.710100 0.947860 -0.500373
C63   C     C_R   0.074753 0.548289 0.109051 0.756681
C64   C     C_R   0.925244 0.048256 0.890948 0.756615
O19   O     O_3   0.963630 0.543720 0.989330 -0.368759
O20   O     O_3   0.036370 0.043720 0.010670 -0.368737
V3    V     V_3+5 0.006750 0.268680 0.001980 1.519842
V4    V     V_3+5 0.993250 0.768680 0.998020 1.520075
O21   O     O_3   0.962787 0.007057 0.775908 -0.646042
H23   H     H_    0.970370 0.984206 0.731624 0.291002
O22   O     O_3   0.037151 0.508457 0.224104 -0.646086
H24   H     H_    0.029540 0.486181 0.268406 0.290991
O23   O     O_3   0.769479 0.929323 0.636872 -0.641863
H25   H     H_    0.739162 0.851236 0.648258 0.290603
O24   O     O_3   0.230395 0.430778 0.363308 -0.641836
H26   H     H_    0.260686 0.352346 0.352031 0.290608
O25   O     O_3   0.853451 0.363010 0.059421 -0.643713
H27   H     H_    0.846095 0.483337 0.078626 0.276681
O26   O     O_3   0.146491 0.863197 0.940487 -0.643614
H28   H     H_    0.153822 0.983495 0.921249 0.276652
C65   C     C_2   0.768362 0.397739 0.135461 0.329026
H29   H     H_    0.754633 0.468873 0.087523 0.067027
O27   O     O_2   0.750900 0.455963 0.182076 -0.534734
C66   C     C_2   0.231564 0.897934 0.864423 0.328918
H30   H     H_    0.245275 0.969235 0.912336 0.067064
O28   O     O_2   0.249013 0.956061 0.817788 -0.534730
O29   O     O_3   0.713353 0.457329 0.332954 -0.646138
H31   H     H_    0.743750 0.431638 0.309572 0.326202
O30   O     O_3   0.286356 0.956980 0.666683 -0.645939
H32   H     H_    0.256000 0.931245 0.690121 0.326137

loop_
_geom_bond_atom_site_label_1
_geom_bond_atom_site_label_2
_ccdc_geom_bond_type
C38   C40   A    
C14   C66   S    
O4    V2    S    
C66   H30   S    
O14   V4    S    
C38   O22   S    
C11   C13   A    
O21   H23   S    
O1    C3    A    
C44   C48   A    
O2    C4    A    
C48   C56   A    
C2    O7    A    
C29   O29   S    
C34   C50   A    
C65   H29   S    
C27   H9    S    
O5    C3    A    
C56   H18   S    
C54   H22   S    
C22   H6    S    
C48   C50   A    
C22   C24   A    
C38   C60   A    
C33   C49   A    
C50   C52   A    
C65   O27   D    
C19   C31   S    
C42   O24   S    
O15   V3    S    
O23   H25   S    
C13   C65   S    
C53   H21   S    
O20   V3    S    
C24   C26   A    
C25   C27   A    
C36   C58   A    
C41   C43   A    
C37   O21   S    
O12   C64   A    
O11   C63   A    
C40   H20   S    
O22   H24   S    
C45   C59   A    
C37   C39   A    
C15   C17   S    
C14   C16   A    
C18   C20   T    
C10   C61   S    
C34   H16   S    
C21   C31   A    
C28   H10   S    
C61   O18   A    
O6    V2    S    
C35   C57   A    
C13   C15   A    
C23   H7    S    
C24   H8    S    
C46   C54   A    
H12   C58   S    
C45   C53   A    
O13   C61   A    
C30   C32   A    
C37   C59   A    
C49   C51   A    
O15   C63   A    
C55   H17   S    
C26   C28   A    
C44   C46   A    
H13   C51   S    
C51   C53   A    
C12   O26   S    
C5    H1    S    
C27   C29   A    
C62   O17   A    
C5    C7    A    
C1    C36   S    
C35   C55   A    
C39   C41   A    
C16   C18   S    
C2    C35   S    
C33   C57   A    
O13   V3    S    
C9    C62   S    
C34   C58   A    
C22   C32   A    
O6    C4    A    
C39   H19   S    
O1    V2    S    
O2    V1    S    
C47   C49   A    
O26   H28   S    
O4    C2    A    
O14   C62   A    
C7    H3    S    
C5    C15   A    
O19   V4    S    
C8    H4    S    
O16   V4    S    
C6    C16   A    
O30   H32   S    
O3    V1    S    
O18   V4    S    
C43   C45   A    
O29   H31   S    
C7    C9    A    
C41   O23   S    
C66   O28   D    
H14   C52   S    
C6    C8    A    
C30   O30   S    
C4    C25   S    
O3    C1    A    
O11   V4    S    
O25   H27   S    
C11   O25   S    
C9    C11   A    
O12   V3    S    
C10   C12   A    
C36   C56   A    
O17   V3    S    
C12   C14   A    
O7    V1    S    
C1    O8    A    
C21   H5    S    
O8    V2    S    
O24   H26   S    
C43   C47   A    
C60   C63   S    
C47   C55   A    
C59   C64   S    
C33   H15   S    
O5    V1    S    
C17   C19   T    
C52   C54   A    
H11   C57   S    
O16   C64   A    
C6    H2    S    
C21   C23   A    
C20   C32   S    
C29   C31   A    
C28   C30   A    
C40   C42   A    
C8    C10   A    
O9    V2    S    
C23   C25   A    
O10   V1    S    
C3    C26   S    
C42   C44   A    
C46   C60   A    
