data_mof_unit_58308.cif
_audit_creation_date              2012-12-11T15:50:34-0500
_audit_creation_method            fapswitch 2.2
_symmetry_space_group_name_H-M    P1
_symmetry_Int_Tables_number       1
_space_group_crystal_system       triclinic
_cell_length_a                    18.873956
_cell_length_b                    10.999113
_cell_length_c                    18.779386
_cell_angle_alpha                 89.950137
_cell_angle_beta                  90.831769
_cell_angle_gamma                 90.02086
_cell_volume                      3898.12745494

loop_
_atom_site_label
_atom_site_type_symbol
_atom_type_description
_atom_site_fract_x
_atom_site_fract_y
_atom_site_fract_z
_atom_type_partial_charge
C1    C     C_R   0.271673 0.044893 0.852586 0.531721
C2    C     C_R   0.750907 0.600629 0.919667 0.018354
C3    C     C_R   0.226964 0.540932 0.356166 0.546074
C4    C     C_R   0.471076 0.823243 0.647699 0.556394
C5    C     C_R   0.533535 0.823301 0.355075 0.555996
C6    C     C_R   0.971076 0.323243 0.647699 0.556394
C7    C     C_R   0.033535 0.323301 0.355075 0.555996
C8    C     C_R   0.258641 0.634243 0.645134 0.561006
C9    C     C_R   0.738591 0.641675 0.358414 0.558693
C10   C     C_R   0.758641 0.134242 0.645134 0.561006
C11   C     C_R   0.238591 0.141675 0.358414 0.558693
C12   C     C_3   0.479676 0.929981 0.033542 0.277589
C13   C     C_R   0.749409 0.101015 0.080461 0.017960
C14   C     C_3   0.522670 0.926276 0.964889 0.278617
C15   C     C_3   0.979676 0.429981 0.033542 0.277589
C16   C     C_3   0.022670 0.426276 0.964889 0.278617
C17   C     C_3   0.428207 0.833275 0.003393 -0.153570
C18   C     C_3   0.571094 0.826723 0.996653 -0.152440
C19   C     C_3   0.928207 0.333275 0.003393 -0.153570
C20   C     C_3   0.071094 0.326723 0.996653 -0.152440
C21   C     C_3   0.472617 0.828330 0.935444 0.025611
C22   C     C_3   0.526744 0.829047 0.064649 0.025263
C23   C     C_3   0.972617 0.328330 0.935444 0.025611
C24   C     C_R   0.250907 0.100629 0.919667 0.018354
C25   C     C_3   0.026743 0.329047 0.064649 0.025263
C26   C     C_R   0.314785 0.581502 0.048111 -0.000888
C27   C     C_R   0.685392 0.581861 0.951877 0.002074
C28   C     C_R   0.814785 0.081502 0.048111 -0.000888
C29   C     C_R   0.185392 0.081861 0.951877 0.002074
C30   C     C_R   0.323156 0.604667 0.975583 -0.007969
C31   C     C_R   0.677205 0.604010 0.024494 -0.008883
C32   C     C_R   0.823156 0.104667 0.975583 -0.007969
C33   C     C_R   0.728348 0.044902 0.147403 0.532789
C34   C     C_R   0.177205 0.104010 0.024494 -0.008883
C35   C     C_R   0.202761 0.674329 0.968190 -0.138658
C36   C     C_R   0.797933 0.672127 0.032191 -0.142159
C37   C     C_R   0.702761 0.174329 0.968190 -0.138658
C38   C     C_R   0.297933 0.172127 0.032191 -0.142159
C39   C     C_R   0.195647 0.658361 0.040358 -0.144569
C40   C     C_R   0.805013 0.656648 0.959990 -0.145865
C41   C     C_R   0.695647 0.158361 0.040358 -0.144569
C42   C     C_R   0.305013 0.156648 0.959990 -0.145865
C43   C     C_3   0.356082 0.467348 0.044727 -0.261281
C44   C     C_R   0.771673 0.544893 0.852586 0.531721
C45   C     C_3   0.643505 0.468338 0.954810 -0.261208
C46   C     C_3   0.856082 0.967348 0.044727 -0.261281
C47   C     C_3   0.143505 0.968338 0.954810 -0.261208
C48   C     C_3   0.365625 0.491530 0.966008 -0.251026
C49   C     C_3   0.634103 0.491437 0.033654 -0.251820
C50   C     C_3   0.865625 0.991530 0.966008 -0.251026
C51   C     C_3   0.134103 0.991437 0.033654 -0.251820
C52   C     C_R   0.265903 0.646254 0.934094 0.011437
C53   C     C_R   0.734602 0.644555 0.066124 0.009648
C54   C     C_R   0.765903 0.146254 0.934094 0.011437
C55   C     C_R   0.228349 0.544902 0.147403 0.532789
C56   C     C_R   0.234602 0.144555 0.066124 0.009648
C57   C     C_R   0.518959 0.830082 0.430638 0.014224
C58   C     C_R   0.506329 0.829105 0.579368 0.017532
C59   C     C_R   0.018959 0.330082 0.430638 0.014224
C60   C     C_R   0.006329 0.329105 0.579368 0.017532
C61   C     C_R   0.443097 0.818166 0.863010 0.551838
C62   C     C_R   0.556606 0.818393 0.136948 0.551203
C63   C     C_R   0.943097 0.318166 0.863010 0.551838
C64   C     C_R   0.056606 0.318393 0.136948 0.551203
C65   C     C_R   0.522616 0.722117 0.469107 0.039928
C66   C     C_3   0.520300 0.728177 0.966751 -0.159783
C67   C     C_R   0.516792 0.720902 0.541630 0.030828
C68   C     C_R   0.022616 0.222117 0.469107 0.039928
C69   C     C_R   0.016793 0.220902 0.541630 0.030828
C70   C     C_R   0.516002 0.939860 0.543295 -0.164181
C71   C     C_R   0.521599 0.940397 0.468743 -0.161363
C72   C     C_R   0.016002 0.439860 0.543295 -0.164181
C73   C     C_R   0.021599 0.440397 0.468743 -0.161363
C74   C     C_3   0.481450 0.607713 0.458923 -0.279852
C75   C     C_3   0.474449 0.605416 0.538902 -0.270421
C76   C     C_3   0.981450 0.107713 0.458923 -0.279852
C77   C     C_3   0.476023 0.731832 0.035023 -0.160774
C78   C     C_3   0.974449 0.105416 0.538902 -0.270421
C79   C     C_R   0.237299 0.559616 0.431188 0.018275
C80   C     C_R   0.748460 0.603505 0.581113 0.020939
C81   C     C_R   0.737299 0.059616 0.431188 0.018275
C82   C     C_R   0.248460 0.103505 0.581113 0.020939
C83   C     C_R   0.180072 0.605932 0.468067 0.040334
C84   C     C_R   0.797064 0.675781 0.544511 0.030524
C85   C     C_R   0.680072 0.105932 0.468067 0.040334
C86   C     C_R   0.297064 0.175781 0.544511 0.030524
C87   C     C_R   0.181545 0.613421 0.540418 0.032796
C88   C     C_3   0.020300 0.228177 0.966751 -0.159783
C89   C     C_R   0.793903 0.681496 0.472087 0.041497
C90   C     C_R   0.681545 0.113421 0.540418 0.032796
C91   C     C_R   0.293903 0.181496 0.472087 0.041497
C92   C     C_R   0.292904 0.505200 0.543924 -0.167372
C93   C     C_R   0.685154 0.567291 0.470421 -0.162739
C94   C     C_R   0.792904 0.005200 0.543924 -0.167372
C95   C     C_R   0.185154 0.067292 0.470421 -0.162739
C96   C     C_R   0.291310 0.499254 0.469654 -0.161518
C97   C     C_R   0.687763 0.561297 0.544710 -0.163664
C98   C     C_R   0.791310 0.999254 0.469654 -0.161518
C99   C     C_3   0.976023 0.231832 0.035023 -0.160774
C100  C     C_R   0.187763 0.061297 0.544710 -0.163664
C101  C     C_3   0.141927 0.723224 0.457635 -0.281284
C102  C     C_3   0.876846 0.674719 0.543460 -0.270258
C103  C     C_3   0.641927 0.223224 0.457635 -0.281284
C104  C     C_3   0.376846 0.174720 0.543460 -0.270258
C105  C     C_3   0.143187 0.733503 0.537677 -0.269080
C106  C     C_3   0.872207 0.681074 0.463382 -0.278710
C107  C     C_3   0.643187 0.233503 0.537677 -0.269080
C108  C     C_3   0.372207 0.181074 0.463382 -0.278710
C109  C     C_R   0.272786 0.679648 0.859381 0.541312
C110  C     C_R   0.249409 0.601015 0.080461 0.017960
C111  C     C_R   0.727423 0.678977 0.140570 0.540879
C112  C     C_R   0.772786 0.179648 0.859381 0.541312
C113  C     C_R   0.227423 0.178977 0.140570 0.540879
C114  C     C_R   0.241884 0.575268 0.578687 0.020410
C115  C     C_R   0.742317 0.618461 0.433599 0.016568
C116  C     C_R   0.741884 0.075268 0.578687 0.020410
C117  C     C_R   0.242317 0.118461 0.433599 0.016568
C118  C     C_R   0.270697 0.048336 0.647245 0.547561
C119  C     C_R   0.726964 0.040932 0.356166 0.546074
C120  C     C_R   0.770697 0.548336 0.647245 0.547561
Cl1   Cl    Cl    0.458062 0.065710 0.079518 -0.599354
Cl2   Cl    Cl    0.549181 0.056204 0.915865 -0.592795
Cl3   Cl    Cl    0.958063 0.565710 0.079518 -0.599354
Cl4   Cl    Cl    0.049181 0.556204 0.915865 -0.592795
Cr1   Cr    Cr6+3 0.229640 0.835880 0.747370 1.021007
Cr2   Cr    Cr6+3 0.614230 0.677220 0.250660 1.016799
Cr3   Cr    Cr6+3 0.885770 0.177220 0.749340 1.013242
Cr4   Cr    Cr6+3 0.114230 0.177220 0.250660 1.016799
Cr5   Cr    Cr6+3 0.770360 0.835880 0.252630 1.023894
Cr6   Cr    Cr6+3 0.729640 0.335880 0.747370 1.021007
Cr7   Cr    Cr6+3 0.270360 0.335880 0.252630 1.023894
Cr8   Cr    Cr6+3 0.387390 0.989720 0.750850 1.056720
Cr9   Cr    Cr6+3 0.612610 0.989720 0.249150 1.060770
Cr10  Cr    Cr6+3 0.887390 0.489720 0.750850 1.056720
Cr11  Cr    Cr6+3 0.112610 0.489720 0.249150 1.060770
Cr12  Cr    Cr6+3 0.385770 0.677220 0.749340 1.013242
H1    H     H_    0.369575 0.839399 0.005324 0.126028
H2    H     H_    0.919092 0.119469 0.555763 0.167536
H3    H     H_    0.514141 0.532006 0.438233 0.135645
H4    H     H_    0.419092 0.619469 0.555763 0.167536
H5    H     H_    0.430299 0.622753 0.430112 0.139270
H6    H     H_    0.502669 0.527883 0.564626 0.129341
H7    H     H_    0.930299 0.122753 0.430112 0.139270
H8    H     H_    0.002670 0.027883 0.564626 0.129341
H9    H     H_    0.337377 0.466368 0.572977 0.123847
H10   H     H_    0.640389 0.528240 0.442063 0.131866
H11   H     H_    0.837377 0.966368 0.572977 0.123847
H12   H     H_    0.629758 0.829541 0.994433 0.127489
H13   H     H_    0.140390 0.028240 0.442063 0.131866
H14   H     H_    0.333134 0.451852 0.442522 0.132642
H15   H     H_    0.646418 0.513216 0.572472 0.123959
H16   H     H_    0.833134 0.951852 0.442522 0.132642
H17   H     H_    0.146418 0.013216 0.572472 0.123959
H18   H     H_    0.087759 0.711379 0.434854 0.137240
H19   H     H_    0.899772 0.587412 0.561845 0.168803
H20   H     H_    0.587759 0.211379 0.434854 0.137240
H21   H     H_    0.399772 0.087412 0.561845 0.168803
H22   H     H_    0.174849 0.793019 0.430819 0.138076
H23   H     H_    0.869575 0.339399 0.005324 0.126028
H24   H     H_    0.900496 0.757440 0.568108 0.127412
H25   H     H_    0.674849 0.293019 0.430819 0.138076
H26   H     H_    0.400496 0.257440 0.568108 0.127412
H27   H     H_    0.176437 0.810721 0.555971 0.168842
H28   H     H_    0.892889 0.767578 0.441426 0.136535
H29   H     H_    0.676437 0.310721 0.555971 0.168842
H30   H     H_    0.392889 0.267578 0.441426 0.136535
H31   H     H_    0.089633 0.728469 0.561396 0.129287
H32   H     H_    0.891464 0.597431 0.436651 0.140848
H33   H     H_    0.589633 0.228469 0.561396 0.129287
H34   H     H_    0.129758 0.329541 0.994433 0.127489
H35   H     H_    0.391464 0.097431 0.436651 0.140848
H36   H     H_    0.535097 0.645165 0.937619 0.147817
H37   H     H_    0.458662 0.652019 0.065840 0.150908
H38   H     H_    0.035097 0.145165 0.937619 0.147817
H39   H     H_    0.958662 0.152019 0.065840 0.150908
H40   H     H_    0.156995 0.705761 0.938672 0.205459
H41   H     H_    0.843646 0.703592 0.061808 0.205951
H42   H     H_    0.656995 0.205761 0.938672 0.205459
H43   H     H_    0.343646 0.203592 0.061808 0.205951
H44   H     H_    0.144190 0.678668 0.062243 0.189141
H45   H     H_    0.513938 0.025323 0.571618 0.123669
H46   H     H_    0.856565 0.676567 0.938168 0.188664
H47   H     H_    0.644190 0.178668 0.062243 0.189141
H48   H     H_    0.356565 0.176567 0.938168 0.188664
H49   H     H_    0.820427 0.891712 0.056283 0.152174
H50   H     H_    0.178904 0.892799 0.942804 0.151123
H51   H     H_    0.320427 0.391712 0.056283 0.152174
H52   H     H_    0.678904 0.392800 0.942804 0.151123
H53   H     H_    0.405885 0.469370 0.076825 0.142384
H54   H     H_    0.593839 0.471297 0.922571 0.141818
H55   H     H_    0.905885 0.969371 0.076825 0.142384
H56   H     H_    0.525602 0.026210 0.441046 0.131620
H57   H     H_    0.093839 0.971297 0.922571 0.141818
H58   H     H_    0.421399 0.511325 0.951876 0.144778
H59   H     H_    0.578448 0.511966 0.047912 0.146414
H60   H     H_    0.921399 0.011326 0.951876 0.144778
H61   H     H_    0.078448 0.011966 0.047912 0.146414
H62   H     H_    0.338520 0.423719 0.931183 0.157534
H63   H     H_    0.660853 0.422766 0.068204 0.156166
H64   H     H_    0.838520 0.923719 0.931183 0.157534
H65   H     H_    0.160853 0.922766 0.068204 0.156166
H66   H     H_    0.013938 0.525323 0.571618 0.123669
H67   H     H_    0.025602 0.526209 0.441046 0.131620
H68   H     H_    0.014141 0.032005 0.438233 0.135645
O1    O     O_R   0.214300 0.709080 0.827500 -0.491816
O2    O     O_R   0.543340 0.717710 0.330180 -0.514951
O3    O     O_R   0.956660 0.217710 0.669820 -0.519468
O4    O     O_R   0.043340 0.217710 0.330180 -0.514951
O5    O     O_R   0.320590 0.625770 0.672930 -0.509283
O6    O     O_R   0.679410 0.625770 0.327070 -0.505683
O7    O     O_R   0.820590 0.125770 0.672930 -0.509283
O8    O     O_R   0.179410 0.125770 0.327070 -0.505683
O9    O     O_3   0.334270 0.834280 0.749190 -0.292583
O10   O     O_3   0.665730 0.834280 0.250810 -0.296210
O11   O     O_3   0.834270 0.334280 0.749190 -0.292583
O12   O     O_R   0.785700 0.709080 0.172500 -0.494734
O13   O     O_3   0.165730 0.334280 0.250810 -0.296210
O14   O     O_R   0.236190 0.958390 0.823150 -0.521849
O15   O     O_R   0.763810 0.958390 0.176850 -0.520982
O16   O     O_R   0.736190 0.458390 0.823150 -0.521849
O17   O     O_R   0.263810 0.458390 0.176850 -0.520982
O18   O     O_R   0.332090 0.075280 0.831290 -0.517080
O19   O     O_R   0.667910 0.075280 0.168710 -0.515083
O20   O     O_R   0.832090 0.575280 0.831290 -0.517080
O21   O     O_R   0.167910 0.575280 0.168710 -0.515083
O22   O     O_R   0.446280 0.918040 0.826620 -0.434744
O23   O     O_R   0.714300 0.209080 0.827500 -0.491816
O24   O     O_R   0.553720 0.918040 0.173380 -0.435379
O25   O     O_R   0.946280 0.418040 0.826620 -0.434744
O26   O     O_R   0.053720 0.418040 0.173380 -0.435379
O27   O     O_R   0.457080 0.716270 0.831760 -0.526308
O28   O     O_R   0.542920 0.716270 0.168240 -0.527472
O29   O     O_R   0.957080 0.216270 0.831760 -0.526308
O30   O     O_R   0.042920 0.216270 0.168240 -0.527472
O31   O     O_R   0.320980 0.624440 0.823040 -0.503719
O32   O     O_R   0.679020 0.624440 0.176960 -0.502833
O33   O     O_R   0.820980 0.124440 0.823040 -0.503719
O34   O     O_R   0.285700 0.209080 0.172500 -0.494734
O35   O     O_R   0.179020 0.124440 0.176960 -0.502833
O36   O     O_R   0.213880 0.710510 0.665560 -0.515036
O37   O     O_R   0.786120 0.710510 0.334440 -0.508851
O38   O     O_R   0.713880 0.210510 0.665560 -0.515036
O39   O     O_R   0.286120 0.210510 0.334440 -0.508851
O40   O     O_R   0.235800 0.959720 0.673040 -0.511663
O41   O     O_R   0.764200 0.959720 0.326960 -0.509622
O42   O     O_R   0.735800 0.459720 0.673040 -0.511663
O43   O     O_R   0.264200 0.459720 0.326960 -0.509622
O44   O     O_R   0.331670 0.076720 0.669350 -0.524136
O45   O     O_R   0.445900 0.919370 0.676500 -0.500052
O46   O     O_R   0.668330 0.076720 0.330650 -0.517692
O47   O     O_R   0.831670 0.576720 0.669350 -0.524136
O48   O     O_R   0.168330 0.576720 0.330650 -0.517692
O49   O     O_R   0.554100 0.919370 0.323500 -0.497879
O50   O     O_R   0.945900 0.419370 0.676500 -0.500052
O51   O     O_R   0.054100 0.419370 0.323500 -0.497879
O52   O     O_R   0.456660 0.717710 0.669820 -0.519468

loop_
_geom_bond_atom_site_label_1
_geom_bond_atom_site_label_2
_ccdc_geom_bond_type
C100  H17   S    
C62   O28   A    
C83   C87   A    
C80   C120  S    
C34   C56   A    
C14   Cl2   S    
C93   C97   A    
C21   C66   S    
C36   C40   A    
C84   C102  S    
C14   C18   S    
Cr2   O28   S    
C44   O16   A    
Cr9   O24   S    
Cr11  O48   S    
C80   C84   A    
C86   C104  S    
Cr2   O32   S    
Cr6   O16   S    
C13   C41   A    
C39   H44   S    
Cr6   O42   S    
C98   H16   S    
C24   C42   A    
C95   C117  A    
Cr4   O35   S    
C15   C19   S    
C37   H42   S    
C73   H67   S    
C111  O12   A    
C28   C46   S    
C34   C51   S    
C15   Cl3   S    
C29   C47   S    
C37   C41   A    
Cr8   O18   S    
C35   H40   S    
C52   C109  S    
C14   C21   S    
C30   C48   S    
C76   C78   S    
C90   C107  S    
C38   C42   A    
C49   H63   S    
C18   H12   S    
C86   C91   A    
C104  H26   S    
C35   C39   A    
C80   C97   A    
C118  O44   A    
C15   C25   S    
C82   C118  S    
C22   C62   S    
C81   C98   A    
C94   C98   A    
Cr7   O34   S    
C15   C16   S    
Cr11  O13   S    
Cr12  O31   S    
C12   C22   S    
C60   C69   A    
C92   C96   A    
Cr11  O21   S    
C88   H38   S    
C47   H57   S    
C6    O50   A    
Cr1   O40   S    
C6    O3    A    
C93   C115  A    
Cr10  O25   S    
C5    O49   A    
Cr5   O10   S    
Cr3   O3    S    
C24   C29   A    
C87   C114  A    
C108  H30   S    
C36   C53   A    
C51   H61   S    
Cr9   O19   S    
C5    O2    A    
C63   O25   A    
Cr1   O9    S    
C25   C99   S    
C39   C110  A    
C12   Cl1   S    
C2    C44   S    
C68   C69   A    
C65   C67   A    
Cr11  O26   S    
C10   O38   A    
C12   C17   S    
Cr8   O45   S    
C56   C113  S    
C91   C117  A    
C13   C28   A    
C2    C27   A    
C95   H13   S    
C106  H28   S    
C71   H56   S    
Cr2   O10   S    
C43   C48   S    
C59   C73   A    
C21   C61   S    
C85   C103  S    
C104  H21   S    
C8    C114  S    
C55   O17   A    
C7    O51   A    
Cr1   O14   S    
C53   C111  S    
C46   C50   S    
C23   C63   S    
C9    O37   A    
C112  O23   A    
C89   C115  A    
Cr4   O30   S    
C69   C78   S    
C120  O42   A    
Cr10  O47   S    
C31   C49   S    
C78   H2    S    
C7    C59   S    
C118  O40   A    
C26   C43   S    
C40   H46   S    
C33   O15   A    
C101  C105  S    
Cr12  O27   S    
Cr9   O46   S    
Cr3   O29   S    
C103  H25   S    
C74   C75   S    
C27   C31   A    
C9    C115  S    
C6    C60   S    
C28   C32   A    
C3    O48   A    
Cr10  O50   S    
C4    O52   A    
Cr2   O6    S    
C119  O46   A    
Cr9   O49   S    
C59   C68   A    
C94   C116  A    
C95   C100  A    
C58   C70   A    
Cr5   O41   S    
C49   H59   S    
C42   H48   S    
C82   C86   A    
C29   C34   A    
C31   C53   A    
C65   C74   S    
C105  H31   S    
C48   H62   S    
C1    O18   A    
C25   C64   S    
C106  H32   S    
C89   C106  S    
C19   C23   S    
C13   C33   S    
C75   H6    S    
C78   H8    S    
C11   O8    A    
C63   O29   A    
C17   C77   S    
C45   H54   S    
C70   H45   S    
C87   C105  S    
C45   C49   S    
C9    O6    A    
C16   C20   S    
C96   H14   S    
C105  H27   S    
C111  O32   A    
C97   H15   S    
C54   C112  S    
Cr6   O11   S    
Cr7   O17   S    
C46   H55   S    
C57   C71   A    
C47   H50   S    
C109  O1    A    
C107  H29   S    
Cr1   O36   S    
Cr8   O22   S    
C32   C50   S    
C3    C79   S    
C1    O14   A    
C8    O36   A    
Cr7   O43   S    
C44   O20   A    
C26   C110  A    
C33   O19   A    
C103  H20   S    
Cr3   O7    S    
C113  O34   A    
C74   H5    S    
C12   C14   S    
C101  H22   S    
Cr3   O33   S    
C16   C23   S    
C90   C116  A    
C23   C88   S    
C55   C110  S    
C92   C114  A    
C67   C75   S    
C84   C89   A    
Cr9   O10   S    
C102  H24   S    
C8    O5    A    
C11   C117  S    
C109  O31   A    
C104  C108  S    
C70   C71   A    
C10   C116  S    
C72   H66   S    
Cr12  O9    S    
C107  H33   S    
C66   H36   S    
C94   H11   S    
C3    O43   A    
C66   C77   S    
C30   C52   A    
Cr6   O23   S    
C77   H37   S    
C38   H43   S    
C83   C101  S    
C48   H58   S    
C92   H9    S    
C18   C22   S    
C82   C100  A    
C91   C108  S    
Cr12  O52   S    
C10   O7    A    
Cr8   O44   S    
C36   H41   S    
C2    C40   A    
C22   C77   S    
C57   C65   A    
C7    O4    A    
C43   H51   S    
C4    O45   A    
C47   C51   S    
C85   C90   A    
C76   H68   S    
C45   H52   S    
C26   C30   A    
C120  O47   A    
C68   C76   S    
C37   C54   A    
C74   H3    S    
C81   C119  S    
Cr10  O20   S    
C61   O22   A    
C32   C54   A    
C5    C57   S    
C11   O39   A    
C75   H4    S    
C19   H23   S    
C55   O21   A    
Cr5   O12   S    
C17   H1    S    
C20   H34   S    
C119  O41   A    
C79   C96   A    
Cr5   O15   S    
C64   O26   A    
Cr7   O39   S    
Cr4   O8    S    
C79   C83   A    
Cr6   O38   S    
C27   C45   S    
C99   H39   S    
Cr5   O37   S    
C101  H18   S    
Cr2   O2    S    
C72   C73   A    
C62   O24   A    
C20   C88   S    
Cr1   O1    S    
C61   O27   A    
C102  C106  S    
C46   H49   S    
C16   Cl4   S    
C18   C66   S    
C17   C21   S    
Cr4   O13   S    
C88   C99   S    
Cr10  O11   S    
C4    C58   S    
Cr12  O5    S    
Cr3   O11   S    
C76   H7    S    
C93   H10   S    
C58   C67   A    
C113  O35   A    
C38   C56   A    
C43   H53   S    
C1    C24   S    
C112  O33   A    
C20   C25   S    
C108  H35   S    
C50   H60   S    
C35   C52   A    
C60   C72   A    
C41   H47   S    
C103  C107  S    
Cr8   O9    S    
Cr4   O4    S    
Cr11  O51   S    
Cr7   O13   S    
C50   H64   S    
C102  H19   S    
C64   O30   A    
C81   C85   A    
C51   H65   S    
C19   C99   S    
