data_mof_unit_43272.cif
_audit_creation_date              2013-03-05T15:54:01-0500
_audit_creation_method            fapswitch 2.2
_symmetry_space_group_name_H-M    P1
_symmetry_Int_Tables_number       1
_space_group_crystal_system       triclinic
_cell_length_a                    15.756089
_cell_length_b                    10.676538
_cell_length_c                    9.895336
_cell_angle_alpha                 88.915287
_cell_angle_beta                  89.865728
_cell_angle_gamma                 91.690848
_cell_volume                      1663.56822904

loop_
_atom_site_label
_atom_site_type_symbol
_atom_site_description
_atom_site_fract_x
_atom_site_fract_y
_atom_site_fract_z
_atom_type_partial_charge
O1    O     O_R   0.500000 0.316780 0.614690 -0.597053
O2    O     O_R   0.499990 0.316750 0.385360 -0.669193
C1    C     C_R   0.507605 0.260062 0.502077 0.907131
O3    O     O_R   0.377150 0.500020 0.614720 -0.621484
O4    O     O_R   0.377140 0.499990 0.385380 -0.637868
C2    C     C_R   0.338466 0.499479 0.500268 0.846673
Zn1   Zn    Zn3+2 0.500010 0.500020 0.653130 0.992872
Zn2   Zn    Zn3+2 0.499990 0.499980 0.346870 1.012412
O5    O     O_R   0.500010 0.683250 0.614640 -0.622402
O6    O     O_R   0.500000 0.683220 0.385310 -0.547840
O7    O     O_R   0.622860 0.500010 0.614620 -0.588414
O8    O     O_R   0.622850 0.499980 0.385280 -0.570973
C3    C     C_R   0.489566 0.738897 0.498584 0.900196
C4    C     C_R   0.661593 0.500392 0.499828 0.924928
C5    C     C_3   0.045022 0.414227 0.627883 0.164766
C6    C     C_3   0.048004 0.447881 0.370747 0.041500
C7    C     C_3   0.949433 0.432776 0.378808 0.157133
H1    H     H_    0.914229 0.341012 0.647787 0.221056
H2    H     H_    0.053195 0.314642 0.603328 0.199702
H3    H     H_    0.061787 0.522109 0.292149 0.113218
H4    H     H_    0.922023 0.477455 0.286193 0.104362
C8    C     C_1   0.750364 0.501100 0.499988 -0.107477
C9    C     C_3   0.083186 0.498376 0.508571 -0.152897
C10   C     C_3   0.947709 0.433862 0.635433 -0.361337
C11   C     C_3   0.917145 0.502768 0.505420 0.005836
C12   C     C_3   0.955043 0.640575 0.500333 0.004376
C13   C     C_3   0.053680 0.637156 0.518150 0.021411
C14   C     C_1   0.825592 0.501972 0.501878 0.099540
C15   C     C_1   0.174668 0.498041 0.504627 0.115569
C16   C     C_1   0.249828 0.498661 0.501409 -0.055930
H5    H     H_    0.081876 0.690707 0.430173 0.125629
H6    H     H_    0.930342 0.488696 0.724703 0.260734
H7    H     H_    0.942616 0.677587 0.396318 0.097067
H8    H     H_    0.520902 0.118451 0.287764 0.187520
C17   C     C_R   0.521560 0.100458 0.760553 0.456315
C18   C     C_R   0.482634 0.041450 0.874157 -0.398965
H9    H     H_    0.493414 0.078390 0.974100 0.165353
C19   C     C_R   0.429877 0.934697 0.858677 0.477255
C20   C     C_R   0.425597 0.878593 0.732839 -0.105338
H10   H     H_    0.387738 0.792850 0.723397 0.198163
C21   C     C_R   0.467191 0.934440 0.619373 -0.118660
C22   C     C_R   0.502135 0.055607 0.629350 0.053385
C23   C     C_R   0.514258 0.125507 0.506842 -0.143758
C24   C     C_R   0.511567 0.066428 0.382095 -0.222975
C25   C     C_R   0.491646 0.941204 0.374949 0.452771
C26   C     C_R   0.475903 0.872310 0.495792 -0.210494
C27   C     C_R   0.388501 0.335388 0.143432 -0.125508
H11   H     H_    0.383956 0.329920 0.250606 0.208289
C28   C     C_R   0.333843 0.254330 0.074688 -0.134414
H12   H     H_    0.291084 0.191000 0.130434 0.194808
C29   C     C_R   0.333944 0.254586 0.934881 -0.124325
H13   H     H_    0.291493 0.191181 0.881557 0.191006
C30   C     C_R   0.388950 0.335544 0.863052 -0.093466
H14   H     H_    0.385734 0.329530 0.756007 0.199095
C31   C     C_R   0.445334 0.418797 0.929350 0.142548
C32   C     C_R   0.445255 0.418790 0.073965 0.060501
N1    N     N_R   0.499210 0.498800 0.142780 -0.134920
C33   C     C_R   0.552225 0.578940 0.070529 0.526078
H15   H     H_    0.593899 0.641819 0.869321 0.166614
C34   C     C_R   0.551912 0.578353 0.926215 -0.197544
N2    N     N_R   0.499180 0.498720 0.857170 -0.128417
N3    N     N_R   0.088031 0.431358 0.759053 0.259600
O9    O     O_R   0.044313 0.440659 0.870101 -0.307131
O10   O     O_R   0.167962 0.405739 0.770190 -0.367008
O11   O     O_3   0.583930 0.192723 0.776710 -0.718464
H16   H     H_    0.589412 0.211906 0.874044 0.333344
O12   O     O_3   0.384931 0.880271 0.965150 -0.724203
H17   H     H_    0.387484 0.938361 0.042080 0.351527
O13   O     O_3   0.486434 0.890329 0.248303 -0.730795
H18   H     H_    0.435895 0.832744 0.248132 0.354135
O14   O     O_3   0.605298 0.659551 0.140273 -0.687269
H19   H     H_    0.638924 0.711747 0.074404 0.332925
N4    N     N_R   0.089421 0.334297 0.324127 0.243790
O15   O     O_R   0.085204 0.229344 0.393122 -0.329288
O16   O     O_R   0.131620 0.338550 0.210838 -0.343105
O17   O     O_3   0.922457 0.305886 0.385859 -0.675621
H20   H     H_    0.920828 0.275255 0.291747 0.378819
N5    N     N_R   0.085291 0.699583 0.640421 0.282933
O18   O     O_R   0.049231 0.680391 0.757653 -0.259663
O19   O     O_R   0.147060 0.782856 0.629840 -0.344920
N6    N     N_R   0.915361 0.728413 0.592916 0.274225
O20   O     O_R   0.863478 0.690751 0.688887 -0.360209
O21   O     O_R   0.930883 0.848091 0.576088 -0.287783

loop_
_geom_bond_atom_site_label_1
_geom_bond_atom_site_label_2
_geom_bond_distance
_ccdc_geom_bond_type
C31   C32   1.431010 A    
C21   C22   1.396235 A    
C17   C18   1.408519 A    
C13   N5    1.473083 S    
N6    O20   1.301657 A    
C20   C21   1.412023 A    
C30   H14   1.063636 S    
C11   C14   1.442814 S    
C5    H2    1.106240 S    
C1    C23   1.443363 S    
C12   C13   1.565937 S    
C15   C16   1.184393 T    
H1    C10   1.113628 S    
C9    C15   1.441941 S    
C18   H9    1.083542 S    
C19   C20   1.392891 A    
O7    C4    1.288087 A    
N5    O19   1.301363 A    
C33   O14   1.378043 S    
C17   O11   1.382465 S    
C33   C34   1.428191 A    
C32   N1    1.377666 A    
N4    O15   1.300982 A    
C17   C22   1.423134 A    
O5    C3    1.296039 A    
Zn1   N2    2.018839 S    
N3    O10   1.301110 A    
C6    C7    1.558405 S    
C28   C29   1.383386 A    
C7    O17   1.408250 S    
C21   C26   1.410517 A    
C9    C13   1.570442 S    
Zn2   O8    1.973627 S    
C5    C9    1.577119 S    
H15   C34   1.082170 S    
C8    C14   1.185241 T    
N4    O16   1.301408 A    
O3    Zn1   1.973629 S    
C27   C28   1.390817 A    
N6    O21   1.301340 A    
C30   C31   1.409931 A    
C25   O13   1.376926 S    
C6    N4    1.475035 S    
H8    C24   1.084591 S    
C10   C11   1.554428 S    
O3    C2    1.287421 A    
C20   H10   1.083443 S    
N5    O18   1.300593 A    
C11   C12   1.571310 S    
C25   C26   1.409616 A    
C13   H5    1.116459 S    
C7    H4    1.118664 S    
C29   H13   1.082834 S    
C34   N2    1.364886 A    
C29   C30   1.390354 A    
Zn1   O7    1.971917 S    
C23   C24   1.396989 A    
C10   H6    1.107184 S    
N3    O9    1.302472 A    
Zn2   N1    2.019881 S    
C12   H7    1.115341 S    
C27   H11   1.063159 S    
C6    H3    1.116168 S    
O17   H20   0.992982 S    
O12   H17   0.991117 S    
C5    C10   1.555468 S    
C2    C16   1.396382 S    
O8    C4    1.288692 A    
O11   H16   0.991907 S    
C6    C9    1.572151 S    
C22   C23   1.420998 A    
C24   C25   1.367443 A    
Zn1   O5    1.985903 S    
O1    Zn1   2.000055 S    
O2    Zn2   1.985904 S    
O6    C3    1.291087 A    
O4    Zn2   1.971917 S    
C12   N6    1.474504 S    
C7    C11   1.562626 S    
C4    C8    1.398497 S    
C18   C19   1.401701 A    
O2    C1    1.301192 A    
O14   H19   0.991610 S    
N1    C33   1.368516 A    
O4    C2    1.288450 A    
C31   N2    1.374563 A    
C5    N3    1.477564 S    
O13   H18   0.991568 S    
C19   O12   1.377768 S    
Zn2   O6    2.000056 S    
C28   H12   1.082867 S    
C3    C26   1.446592 S    
O1    C1    1.285308 A    
C27   C32   1.411385 A    
