data_mof_unit_17578.cif
_audit_creation_date              2013-03-05T15:52:27-0500
_audit_creation_method            fapswitch 2.2
_symmetry_space_group_name_H-M    P1
_symmetry_Int_Tables_number       1
_space_group_crystal_system       triclinic
_cell_length_a                    27.795365
_cell_length_b                    10.817726
_cell_length_c                    9.656706
_cell_angle_alpha                 89.701024
_cell_angle_beta                  89.451937
_cell_angle_gamma                 94.905573
_cell_volume                      2892.78248649

loop_
_atom_site_label
_atom_site_type_symbol
_atom_site_description
_atom_site_fract_x
_atom_site_fract_y
_atom_site_fract_z
_atom_type_partial_charge
O1    O     O_R   0.500000 0.319640 0.618810 -0.594574
O2    O     O_R   0.500000 0.319660 0.381240 -0.559872
C1    C     C_R   0.498393 0.263120 0.500435 0.876883
O3    O     O_R   0.430260 0.500010 0.618770 -0.604388
O4    O     O_R   0.430270 0.500030 0.381200 -0.530938
C2    C     C_R   0.407581 0.497372 0.500485 0.789743
Cu1   Cu    Cu3+1 0.500000 0.499990 0.640660 0.944929
Cu2   Cu    Cu3+1 0.500000 0.500010 0.359340 1.020670
O5    O     O_R   0.500000 0.680340 0.618760 -0.622105
O6    O     O_R   0.500000 0.680360 0.381190 -0.510243
O7    O     O_R   0.569730 0.499970 0.618800 -0.583807
O8    O     O_R   0.569740 0.499990 0.381230 -0.528212
C3    C     C_R   0.501326 0.737755 0.499833 0.868272
C4    C     C_R   0.592479 0.499011 0.499503 0.886810
C5    C     C_R   0.174934 0.443290 0.610141 0.549315
O9    O     O_2   0.197363 0.383788 0.710690 -0.504910
N1    N     N_R   0.201906 0.501420 0.505529 -0.460972
C6    C     C_R   0.180623 0.559545 0.399051 0.533838
C7    C     C_R   0.281031 0.551866 0.613569 -0.109744
C8    C     C_R   0.331048 0.549071 0.612476 -0.322955
C9    C     C_R   0.327045 0.439737 0.392467 0.385326
C10   C     C_R   0.276550 0.441662 0.395823 -0.203201
C11   C     C_R   0.253547 0.498501 0.505139 0.310031
C12   C     C_R   0.101603 0.495478 0.496701 -0.097050
C13   C     C_R   0.124034 0.442029 0.610512 -0.060971
C14   C     C_R   0.094807 0.389401 0.720082 0.266818
C15   C     C_R   0.130234 0.556674 0.391850 -0.003655
C16   C     C_R   0.354522 0.494964 0.501570 -0.062095
H1    H     H_    0.254911 0.398829 0.313509 0.143004
C17   C     C_R   0.645551 0.493722 0.496062 -0.101801
C18   C     C_R   0.971135 0.397928 0.567934 -0.028707
C19   C     C_R   0.977463 0.554890 0.380873 0.057620
C20   C     C_R   0.948984 0.475473 0.472940 0.036073
C21   C     C_R   0.941747 0.302834 0.639430 0.245381
C22   C     C_R   0.891210 0.304023 0.635452 -0.172504
C23   C     C_R   0.869322 0.390728 0.554810 -0.080171
C24   C     C_R   0.898008 0.474151 0.470327 -0.052591
C25   C     C_R   0.875644 0.557169 0.384050 -0.017283
C26   C     C_R   0.825193 0.558527 0.388198 0.580022
N2    N     N_R   0.797879 0.476998 0.471862 -0.445596
C27   C     C_R   0.818869 0.393047 0.553267 0.535059
C28   C     C_R   0.717481 0.452949 0.361715 0.300786
C29   C     C_R   0.667598 0.461429 0.371039 -0.332270
C30   C     C_R   0.674753 0.519628 0.613474 0.201886
C31   C     C_R   0.724821 0.515751 0.602100 -0.230680
C32   C     C_R   0.746351 0.481717 0.478044 0.296230
O10   O     O_2   0.790918 0.311749 0.632173 -0.555278
C33   C     C_R   0.021900 0.418158 0.586754 -0.000371
C34   C     C_R   0.050505 0.488137 0.487486 0.073689
C35   C     C_R   0.028384 0.551652 0.379703 0.058076
C36   C     C_R   0.044596 0.378045 0.706731 -0.276512
H2    H     H_    0.645921 0.439654 0.280298 0.181837
H3    H     H_    0.868459 0.234896 0.692197 0.194737
H4    H     H_    0.023544 0.343395 0.795525 0.187156
O11   O     O_2   0.208247 0.620065 0.300216 -0.545209
C37   C     C_R   0.108072 0.612748 0.281285 -0.162229
H5    H     H_    0.351514 0.591502 0.697286 0.178097
H6    H     H_    0.263604 0.596170 0.698467 0.157868
H7    H     H_    0.129313 0.658621 0.198289 0.183575
C38   C     C_R   0.953994 0.636470 0.294694 -0.210919
C39   C     C_R   0.904047 0.638101 0.297249 -0.151779
O12   O     O_2   0.803658 0.641711 0.310716 -0.545280
C40   C     C_R   0.058102 0.611040 0.275519 -0.222651
H8    H     H_    0.973514 0.703833 0.227860 0.139125
H9    H     H_    0.887777 0.703495 0.230676 0.182557
H10   H     H_    0.747252 0.538075 0.691219 0.161935
H11   H     H_    0.043615 0.653918 0.185757 0.137844
C41   C     C_R   0.413394 0.107137 0.584295 -0.135496
H12   H     H_    0.411023 0.206480 0.584808 0.121731
C42   C     C_R   0.372403 0.031562 0.623945 -0.112305
H13   H     H_    0.339810 0.072751 0.654548 0.144993
C43   C     C_R   0.373230 0.903221 0.623351 -0.123275
H14   H     H_    0.341260 0.844684 0.653458 0.139327
C44   C     C_R   0.415074 0.849884 0.583291 -0.126460
H15   H     H_    0.413848 0.749964 0.583113 0.126726
C45   C     C_R   0.457266 0.924586 0.543474 0.037541
C46   C     C_R   0.456279 0.054821 0.543835 0.005078
C47   C     C_R   0.497839 0.129601 0.501275 -0.163737
C48   C     C_R   0.540192 0.078791 0.459862 0.330561
C49   C     C_R   0.541504 0.948994 0.460165 0.159006
C50   C     C_R   0.499967 0.872349 0.500899 -0.172504
H16   H     H_    0.447235 0.349940 0.130778 0.163670
C51   C     C_R   0.564977 0.682179 0.130205 0.431806
C52   C     C_R   0.590344 0.773469 0.048092 -0.260865
H17   H     H_    0.614158 0.845849 0.094651 0.151722
C53   C     C_R   0.588545 0.768536 0.907652 -0.286386
H18   H     H_    0.610688 0.835503 0.845846 0.170483
C54   C     C_R   0.560718 0.673770 0.846438 -0.098347
H19   H     H_    0.565664 0.671110 0.738735 0.214334
C55   C     C_R   0.530031 0.586916 0.921904 0.146006
C56   C     C_R   0.530806 0.588667 0.071179 0.133393
N3    N     N_R   0.500460 0.501210 0.147910 -0.188850
C57   C     C_R   0.471049 0.417679 0.075112 -0.030322
H20   H     H_    0.447343 0.349818 0.874171 0.138452
C58   C     C_R   0.471120 0.417660 0.927737 -0.048555
N4    N     N_R   0.500480 0.501290 0.852040 -0.193726
O13   O     O_3   0.349911 0.382431 0.285861 -0.732607
H21   H     H_    0.325432 0.348722 0.218820 0.323359
N5    N     N_2   0.654564 0.552370 0.742550 -0.427894
H22   H     H_    0.672990 0.628908 0.786676 0.248454
C59   C     C_3   0.647208 0.450126 0.839844 -0.610171
H23   H     H_    0.629186 0.481538 0.934919 0.209853
H24   H     H_    0.682417 0.416408 0.869152 0.216298
H25   H     H_    0.623832 0.372663 0.794186 0.251102
O14   O     O_3   0.579445 0.160115 0.421633 -0.746574
H26   H     H_    0.609142 0.116710 0.414270 0.330150
N6    N     N_2   0.583719 0.895067 0.414706 -0.409133
H27   H     H_    0.598926 0.933257 0.324789 0.252070
C60   C     C_3   0.618705 0.876769 0.521024 -0.719095
H28   H     H_    0.650271 0.835089 0.474987 0.228004
H29   H     H_    0.602573 0.812234 0.600555 0.223685
H30   H     H_    0.631317 0.966143 0.570201 0.229209
O15   O     O_3   0.576521 0.686232 0.265949 -0.676203
H31   H     H_    0.611570 0.711672 0.275246 0.308035
N7    N     N_2   0.115116 0.350294 0.846144 -0.373707
H32   H     H_    0.096428 0.273257 0.890397 0.246145
C61   C     C_3   0.124657 0.448986 0.945330 -0.601049
H33   H     H_    0.142783 0.412771 0.037212 0.234333
H34   H     H_    0.090276 0.485268 0.979581 0.197565
H35   H     H_    0.148801 0.525845 0.899243 0.240212
N8    N     N_2   0.738458 0.416483 0.234900 -0.402275
H36   H     H_    0.719826 0.440393 0.148199 0.250338
C62   C     C_3   0.749556 0.288319 0.231857 -0.656762
H37   H     H_    0.767294 0.269207 0.131631 0.230652
H38   H     H_    0.715867 0.225646 0.242606 0.220859
H39   H     H_    0.774642 0.268742 0.316375 0.246490
N9    N     N_2   0.963285 0.199907 0.700184 -0.444753
H40   H     H_    0.988946 0.162531 0.639057 0.263016
C63   C     C_3   0.935338 0.111403 0.788292 -0.700413
H41   H     H_    0.959880 0.049022 0.838002 0.230995
H42   H     H_    0.908652 0.053871 0.725915 0.233036
H43   H     H_    0.916861 0.160275 0.871645 0.239106

loop_
_geom_bond_atom_site_label_1
_geom_bond_atom_site_label_2
_geom_bond_distance
_ccdc_geom_bond_type
N5    H22   1.031857 S    
C59   H23   1.110359 S    
C10   H1    1.083348 S    
C22   H3    1.080545 S    
C51   O15   1.352566 S    
C7    C8    1.393107 A    
C12   C15   1.408636 A    
O13   H21   0.991715 S    
Cu1   Cu2   2.716623 S    
C46   C47   1.409033 A    
Cu1   O7    1.947643 S    
Cu1   N4    2.041521 S    
C49   N6    1.421179 S    
N1    C11   1.438383 S    
C44   C45   1.415006 A    
C23   C24   1.404480 A    
C52   C53   1.358739 A    
O15   H31   0.994458 S    
C60   H29   1.101161 S    
O4    C2    1.306926 A    
C49   C50   1.413979 A    
O7    C4    1.309348 A    
C53   C54   1.370419 A    
C29   H2    1.083666 S    
C62   H38   1.111786 S    
N7    H32   1.031953 S    
C3    C50   1.459809 S    
C41   C46   1.415136 A    
C48   O14   1.387578 S    
Cu1   O5    1.961308 S    
C21   C22   1.406768 A    
C28   C32   1.407444 A    
O5    C3    1.301492 A    
C14   N7    1.424128 S    
C33   C36   1.408612 A    
C2    C16   1.472734 S    
C58   N4    1.368997 A    
C21   N9    1.433957 S    
N7    C61   1.447291 S    
N6    H27   1.030853 S    
C18   C20   1.419637 A    
C42   H13   1.082540 S    
Cu2   N3    2.041602 S    
C63   H43   1.110916 S    
C57   C58   1.423140 A    
H16   C57   1.081759 S    
C9    C10   1.405525 A    
C35   C40   1.412036 A    
N6    C60   1.445277 S    
C17   C30   1.415941 A    
C23   C27   1.404945 A    
C4    C17   1.481211 S    
O3    Cu1   1.951970 S    
C45   C46   1.411475 A    
C7    H6    1.082887 S    
C40   H11   1.078460 S    
C37   C40   1.389119 A    
C44   H15   1.078533 S    
C62   H37   1.110392 S    
C52   H17   1.083564 S    
C43   C44   1.394199 A    
C60   H30   1.110485 S    
C26   N2    1.368683 A    
C15   C37   1.398977 A    
C41   H12   1.082330 S    
C62   H39   1.109744 S    
C8    C16   1.404919 A    
C13   C14   1.414847 A    
C31   C32   1.399060 A    
C20   C24   1.416224 A    
C38   C39   1.389914 A    
O1    C1    1.298515 A    
C22   C23   1.398333 A    
C7    C11   1.399786 A    
N9    C63   1.447637 S    
C24   C25   1.408769 A    
C9    O13   1.381882 S    
C51   C52   1.401143 A    
Cu2   O8    1.951965 S    
N1    C6    1.367888 A    
C27   O10   1.349987 S    
C18   C21   1.428363 A    
C12   C13   1.413883 A    
C19   C35   1.418722 A    
N8    H36   1.031997 S    
C6    O11   1.350039 S    
O3    C2    1.309167 A    
N2    C27   1.369323 A    
N5    C59   1.447300 S    
C9    C16   1.412157 A    
C54   C55   1.409011 A    
C59   H25   1.111303 S    
C18   C33   1.422809 A    
C17   C29   1.407847 A    
C61   H35   1.111179 S    
C28   C29   1.399408 A    
N2    C32   1.438174 S    
N9    H40   1.031689 S    
C56   N3    1.414154 A    
C30   C31   1.399168 A    
C53   H18   1.082607 S    
C63   H41   1.110313 S    
C59   H24   1.111810 S    
C12   C34   1.419384 A    
C5    N1    1.369774 A    
C26   O12   1.349635 S    
C33   C34   1.413876 A    
O1    Cu1   1.963448 S    
Cu2   O6    1.963448 S    
O2    Cu2   1.961308 S    
C6    C15   1.400649 A    
O8    C4    1.311065 A    
C43   H14   1.082606 S    
O6    C3    1.305298 A    
C45   C50   1.415920 A    
O4    Cu2   1.947646 S    
C55   N4    1.369241 A    
C51   C56   1.449944 A    
O14   H26   0.986116 S    
C37   H7    1.083460 S    
C38   H8    1.078281 S    
C36   H4    1.080597 S    
C19   C20   1.420340 A    
C25   C39   1.397798 A    
C61   H34   1.111809 S    
O2    C1    1.299215 A    
C14   C36   1.397772 A    
C47   C48   1.397063 A    
C55   C56   1.442072 A    
C25   C26   1.403824 A    
N3    C57   1.367579 A    
C30   N5    1.420987 S    
H20   C58   1.081904 S    
N8    C62   1.446245 S    
C5    C13   1.413642 A    
C48   C49   1.407687 A    
C39   H9    1.083403 S    
C54   H19   1.048665 S    
C41   C42   1.393630 A    
C34   C35   1.417922 A    
C60   H28   1.110403 S    
C31   H10   1.083679 S    
C19   C38   1.413539 A    
C10   C11   1.400825 A    
C42   C43   1.390557 A    
C8    H5    1.083138 S    
C61   H33   1.110516 S    
C1    C47   1.443113 S    
C5    O9    1.348874 S    
C28   N8    1.423367 S    
C63   H42   1.110794 S    
