data_mof_unit_68079.cif
_audit_creation_date              2012-12-11T15:26:33-0500
_audit_creation_method            fapswitch 2.2
_symmetry_space_group_name_H-M    P1
_symmetry_Int_Tables_number       1
_space_group_crystal_system       triclinic
_cell_length_a                    7.675842
_cell_length_b                    12.192036
_cell_length_c                    28.615747
_cell_angle_alpha                 90.357799
_cell_angle_beta                  90.0
_cell_angle_gamma                 89.999983
_cell_volume                      2677.92791388

loop_
_atom_site_label
_atom_site_type_symbol
_atom_type_description
_atom_site_fract_x
_atom_site_fract_y
_atom_site_fract_z
_atom_type_partial_charge
O1    O     O_R   0.647170 0.849180 0.201220 -0.535087
O2    O     O_R   0.352830 0.150820 0.798780 -0.521395
O3    O     O_R   0.352830 0.150820 0.701220 -0.531286
O4    O     O_R   0.647170 0.849180 0.298780 -0.520169
O5    O     O_R   0.147170 0.650820 0.298780 -0.535087
O6    O     O_R   0.852830 0.349180 0.701220 -0.521395
O7    O     O_R   0.852830 0.349180 0.798780 -0.531284
O8    O     O_R   0.147170 0.650820 0.201220 -0.520169
O9    O     O_R   0.317430 0.862210 0.298450 -0.527315
O10   O     O_R   0.682570 0.137790 0.701550 -0.520960
O11   O     O_R   0.682570 0.137790 0.798450 -0.530265
O12   O     O_R   0.317430 0.862210 0.201550 -0.522384
O13   O     O_R   0.817430 0.637790 0.201550 -0.527314
O14   O     O_R   0.182570 0.362210 0.798450 -0.520961
O15   O     O_R   0.182570 0.362210 0.701550 -0.530265
O16   O     O_R   0.817430 0.637790 0.298450 -0.522384
C1    C     C_R   0.484656 0.886413 0.313418 0.669644
C2    C     C_R   0.515192 0.112538 0.687325 0.678620
C3    C     C_R   0.515381 0.115590 0.813947 0.678756
C4    C     C_R   0.484998 0.887564 0.187427 0.667246
C5    C     C_R   0.984657 0.613587 0.186582 0.669644
C6    C     C_R   0.015192 0.387462 0.812675 0.678620
C7    C     C_R   0.015381 0.384410 0.686053 0.678755
C8    C     C_R   0.984998 0.612436 0.312573 0.667246
H1    H     H_    0.060627 0.348098 0.596225 0.185954
H2    H     H_    0.872419 0.631719 0.399418 0.126233
H3    H     H_    0.942309 0.647721 0.097161 0.190122
H4    H     H_    0.097862 0.356029 0.900123 0.191500
H5    H     H_    0.560628 0.151902 0.903776 0.185953
H6    H     H_    0.372420 0.868281 0.100582 0.126233
H7    H     H_    0.442309 0.852280 0.402839 0.190122
H8    H     H_    0.597862 0.143971 0.599876 0.191500
O17   O     O_3   0.480630 0.680630 0.250000 -0.387746
O18   O     O_3   0.519370 0.319370 0.750000 -0.389295
O19   O     O_3   0.980630 0.819370 0.250000 -0.387746
O20   O     O_3   0.019370 0.180630 0.750000 -0.389295
V1    V     V_3+5 0.205800 0.762860 0.250000 1.543815
V2    V     V_3+5 0.794200 0.237140 0.750000 1.557121
V3    V     V_3+5 0.705800 0.737140 0.250000 1.543814
V4    V     V_3+5 0.294200 0.262860 0.750000 1.557116
C9    C     C_R   0.990430 0.527363 0.349492 -0.185993
C10   C     C_R   0.011229 0.466627 0.647601 -0.187863
C11   C     C_R   0.011733 0.471145 0.850467 -0.221480
C12   C     C_R   0.988085 0.529413 0.148358 -0.190581
C13   C     C_R   0.490430 0.972637 0.150508 -0.185992
C14   C     C_R   0.511230 0.033374 0.852399 -0.187858
C15   C     C_R   0.511733 0.028855 0.649533 -0.221477
C16   C     C_R   0.488085 0.970587 0.351642 -0.190581
C17   C     C_R   0.002045 0.335453 0.374109 0.567480
C18   C     C_R   0.008746 0.658847 0.621390 0.552409
C19   C     C_R   0.011942 0.662904 0.877202 0.569762
C20   C     C_R   0.991279 0.336434 0.121138 0.552503
C21   C     C_R   0.502045 0.164547 0.125890 0.567481
C22   C     C_R   0.508746 0.841153 0.878610 0.552409
C23   C     C_R   0.511943 0.837096 0.622797 0.569764
C24   C     C_R   0.491279 0.163566 0.378862 0.552503
C25   C     C_R   0.033312 0.417687 0.340001 0.392652
C26   C     C_R   0.001405 0.578453 0.657395 0.357745
C27   C     C_R   0.980648 0.582515 0.841847 0.396200
C28   C     C_R   0.996003 0.417057 0.157743 0.373424
C29   C     C_R   0.533312 0.082313 0.159999 0.392651
C30   C     C_R   0.501404 0.921547 0.842605 0.357743
C31   C     C_R   0.480649 0.917485 0.658153 0.396195
C32   C     C_R   0.496003 0.082944 0.342257 0.373423
C33   C     C_R   0.937601 0.554348 0.394208 -0.124994
C34   C     C_R   0.025310 0.432897 0.601613 -0.118566
C35   C     C_R   0.054553 0.439684 0.895190 -0.055811
C36   C     C_R   0.975011 0.562547 0.102556 -0.108328
C37   C     C_R   0.437601 0.945652 0.105792 -0.124993
C38   C     C_R   0.525311 0.067103 0.898388 -0.118566
C39   C     C_R   0.554553 0.060316 0.604810 -0.055812
C40   C     C_R   0.475010 0.937454 0.397444 -0.108327
C41   C     C_R   0.971955 0.484293 0.432022 0.089238
C42   C     C_R   0.998400 0.505165 0.563680 0.085848
C43   C     C_R   0.031091 0.511149 0.933511 0.084622
C44   C     C_R   0.000599 0.489685 0.064545 0.075431
C45   C     C_R   0.471955 0.015706 0.067978 0.089237
C46   C     C_R   0.498401 0.994835 0.936320 0.085848
C47   C     C_R   0.531091 0.988851 0.566489 0.084622
C48   C     C_R   0.500599 0.010315 0.435455 0.075431
C49   C     C_R   0.982618 0.368553 0.423094 -0.123940
C50   C     C_R   0.002034 0.622873 0.572089 -0.141932
C51   C     C_R   0.029501 0.627687 0.925693 -0.143093
C52   C     C_R   0.994480 0.372168 0.072229 -0.130199
C53   C     C_R   0.482618 0.131447 0.076906 -0.123939
C54   C     C_R   0.502034 0.877127 0.927911 -0.141931
C55   C     C_R   0.529501 0.872313 0.574307 -0.143093
C56   C     C_R   0.494480 0.127832 0.427771 -0.130199
C57   C     C_R   0.987948 0.528884 0.478315 -0.002012
C58   C     C_R   0.975888 0.460183 0.517252 0.047114
C59   C     C_R   0.010312 0.466394 0.979347 -0.024165
C60   C     C_R   0.027423 0.534226 0.018666 0.035907
C61   C     C_R   0.487948 0.971116 0.021685 -0.002013
C62   C     C_R   0.475888 0.039817 0.982748 0.047113
C63   C     C_R   0.510312 0.033606 0.520653 -0.024165
C64   C     C_R   0.527423 0.965774 0.481334 0.035907
C65   C     C_R   0.937781 0.348029 0.508581 0.358015
C66   C     C_R   0.026814 0.640420 0.485821 0.309896
C67   C     C_R   0.074746 0.645046 0.011134 0.394799
C68   C     C_R   0.959764 0.356421 0.986178 0.248622
C69   C     C_R   0.437780 0.151970 0.991419 0.358015
C70   C     C_R   0.526815 0.859580 0.014179 0.309896
C71   C     C_R   0.574746 0.854954 0.488866 0.394798
C72   C     C_R   0.459764 0.143579 0.513822 0.248622
C73   C     C_R   0.967698 0.299607 0.463806 0.375167
C74   C     C_R   0.008613 0.691028 0.530234 0.426104
C75   C     C_R   0.046321 0.695618 0.967171 0.379917
C76   C     C_R   0.980865 0.304322 0.030013 0.379095
C77   C     C_R   0.467697 0.200392 0.036194 0.375167
C78   C     C_R   0.508613 0.808972 0.969766 0.426103
C79   C     C_R   0.546321 0.804382 0.532829 0.379917
C80   C     C_R   0.480865 0.195678 0.469986 0.379095
S1    S     S_3+6 0.004895 0.156083 0.466269 0.016603
O21   O     O_2   0.837724 0.095889 0.459644 -0.304353
O22   O     O_2   0.135547 0.117934 0.431039 -0.346704
O23   O     O_3   0.072800 0.122083 0.519847 -0.479277
H9    H     H_    0.145772 0.056907 0.514893 0.411255
S2    S     S_3+6 0.014180 0.837664 0.526293 0.046208
O24   O     O_2   0.898870 0.895417 0.560407 -0.275794
O25   O     O_2   0.198705 0.871837 0.533342 -0.358855
O26   O     O_3   0.955217 0.885947 0.473780 -0.473815
H10   H     H_    0.063130 0.913887 0.459060 0.392702
S3    S     S_3+6 0.996766 0.838154 0.972734 0.065481
O27   O     O_2   0.158557 0.905031 0.967553 -0.348311
O28   O     O_2   0.863826 0.875149 0.938166 -0.299248
O29   O     O_3   0.920155 0.865124 0.026577 -0.436802
H11   H     H_    0.012932 0.905788 0.043285 0.406315
S4    S     S_3+6 0.994186 0.157634 0.023172 0.041224
O30   O     O_2   0.121002 0.104451 0.055211 -0.302128
O31   O     O_2   0.818132 0.107487 0.029737 -0.343452
O32   O     O_3   0.056825 0.124706 0.968407 -0.459412
H12   H     H_    0.957947 0.084902 0.953941 0.410444
S5    S     S_3+6 0.504895 0.343917 0.033731 0.016603
O33   O     O_2   0.337724 0.404111 0.040356 -0.304353
O34   O     O_2   0.635547 0.382066 0.068961 -0.346704
O35   O     O_3   0.572799 0.377917 0.980152 -0.479277
H13   H     H_    0.645771 0.443093 0.985106 0.411256
S6    S     S_3+6 0.514180 0.662336 0.973707 0.046208
O36   O     O_2   0.398869 0.604583 0.939593 -0.275794
O37   O     O_2   0.698705 0.628163 0.966658 -0.358856
O38   O     O_3   0.455216 0.614053 0.026220 -0.473815
H14   H     H_    0.563130 0.586112 0.040940 0.392702
S7    S     S_3+6 0.496766 0.661846 0.527265 0.065482
O39   O     O_2   0.658557 0.594969 0.532447 -0.348311
O40   O     O_2   0.363826 0.624851 0.561834 -0.299248
O41   O     O_3   0.420155 0.634876 0.473423 -0.436801
H15   H     H_    0.512933 0.594213 0.456715 0.406314
S8    S     S_3+6 0.494186 0.342366 0.476828 0.041226
O42   O     O_2   0.621002 0.395550 0.444789 -0.302127
O43   O     O_2   0.318133 0.392514 0.470263 -0.343452
O44   O     O_3   0.556826 0.375294 0.531593 -0.459412
H16   H     H_    0.457947 0.415098 0.546059 0.410444
O45   O     O_3   0.988746 0.610984 0.703314 -0.573631
H17   H     H_    0.075752 0.568921 0.721495 0.323925
O46   O     O_3   0.092107 0.386181 0.296423 -0.556456
H18   H     H_    0.147173 0.449560 0.280879 0.289451
O47   O     O_3   0.003162 0.383909 0.203525 -0.566906
H19   H     H_    0.924783 0.431394 0.222296 0.322038
O48   O     O_3   0.926901 0.616552 0.798336 -0.552500
H20   H     H_    0.865205 0.555536 0.782490 0.293901
O49   O     O_3   0.488745 0.889016 0.796686 -0.573639
H21   H     H_    0.575754 0.931078 0.778505 0.323929
O50   O     O_3   0.592106 0.113819 0.203577 -0.556457
H22   H     H_    0.647172 0.050440 0.219121 0.289450
O51   O     O_3   0.503162 0.116091 0.296475 -0.566907
H23   H     H_    0.424782 0.068606 0.277704 0.322038
O52   O     O_3   0.426904 0.883448 0.701664 -0.552508
H24   H     H_    0.365212 0.944464 0.717510 0.293889
S9    S     S_3+6 0.965639 0.203676 0.347437 0.147271
O53   O     O_2   0.135903 0.148657 0.337252 -0.299963
O54   O     O_2   0.853225 0.128038 0.374762 -0.308410
O55   O     O_3   0.864057 0.222723 0.296127 -0.408038
H25   H     H_    0.835087 0.147782 0.285162 0.386375
S10   S     S_3+6 0.030127 0.796674 0.644770 0.154691
O56   O     O_2   0.155600 0.865704 0.618544 -0.293860
O57   O     O_2   0.857460 0.853044 0.645650 -0.321573
O58   O     O_3   0.102240 0.798110 0.700148 -0.404079
H26   H     H_    0.060500 0.868770 0.713237 0.369891
S11   S     S_3+6 0.040463 0.797695 0.853273 0.142414
O59   O     O_2   0.867160 0.850506 0.845148 -0.302615
O60   O     O_2   0.150301 0.872506 0.882096 -0.317176
O61   O     O_3   0.139128 0.786651 0.801070 -0.409209
H27   H     H_    0.153118 0.863367 0.790588 0.376382
S12   S     S_3+6 0.978945 0.197474 0.142334 0.137856
O62   O     O_2   0.854325 0.128257 0.115481 -0.305688
O63   O     O_2   0.154023 0.144610 0.140674 -0.327296
O64   O     O_3   0.914790 0.191037 0.198265 -0.407039
H28   H     H_    0.960990 0.120318 0.209817 0.369391
S13   S     S_3+6 0.465639 0.296324 0.152563 0.147270
O65   O     O_2   0.635903 0.351343 0.162748 -0.299963
O66   O     O_2   0.353225 0.371962 0.125237 -0.308410
O67   O     O_3   0.364058 0.277277 0.203872 -0.408037
H29   H     H_    0.335087 0.352219 0.214838 0.386375
S14   S     S_3+6 0.530127 0.703326 0.855230 0.154687
O68   O     O_2   0.655599 0.634295 0.881456 -0.293851
O69   O     O_2   0.357460 0.646957 0.854350 -0.321582
O70   O     O_3   0.602242 0.701891 0.799852 -0.404087
H30   H     H_    0.560458 0.631247 0.786758 0.369905
S15   S     S_3+6 0.540464 0.702304 0.646727 0.142409
O71   O     O_2   0.367161 0.649494 0.654852 -0.302619
O72   O     O_2   0.650300 0.627493 0.617903 -0.317176
O73   O     O_3   0.639130 0.713349 0.698930 -0.409209
H31   H     H_    0.653121 0.636632 0.709412 0.376381
S16   S     S_3+6 0.478945 0.302526 0.357666 0.137856
O74   O     O_2   0.354325 0.371743 0.384518 -0.305688
O75   O     O_2   0.654023 0.355390 0.359326 -0.327297
O76   O     O_3   0.414790 0.308963 0.301735 -0.407040
H32   H     H_    0.460994 0.379680 0.290182 0.369392
O77   O     O_3   0.864757 0.287117 0.544218 -0.600262
H33   H     H_    0.793057 0.227309 0.530881 0.361939
O78   O     O_3   0.118852 0.694805 0.451628 -0.582240
H34   H     H_    0.036742 0.737460 0.432697 0.307273
O79   O     O_3   0.151763 0.702896 0.047381 -0.627513
H35   H     H_    0.220100 0.764405 0.034626 0.300437
O80   O     O_3   0.878632 0.302528 0.949322 -0.623269
H36   H     H_    0.795388 0.247628 0.961354 0.346323
O81   O     O_3   0.364757 0.212883 0.955782 -0.600262
H37   H     H_    0.293056 0.272690 0.969119 0.361939
O82   O     O_3   0.618853 0.805195 0.048372 -0.582240
H38   H     H_    0.536742 0.762540 0.067303 0.307273
O83   O     O_3   0.651763 0.797105 0.452619 -0.627513
H39   H     H_    0.720101 0.735596 0.465374 0.300436
O84   O     O_3   0.378632 0.197473 0.550678 -0.623269
H40   H     H_    0.295387 0.252372 0.538646 0.346323

loop_
_geom_bond_atom_site_label_1
_geom_bond_atom_site_label_2
_ccdc_geom_bond_type
S7    O41   S    
S14   O69   D    
C68   O80   S    
O29   H11   S    
C22   S14   S    
O5    V1    S    
C38   C46   A    
C2    C15   S    
S9    O53   D    
C37   C45   A    
C63   C64   A    
S8    O44   S    
C75   S3    S    
S4    O30   D    
C44   C52   A    
C47   C55   A    
O49   H21   S    
C3    C14   S    
C33   C41   A    
S3    O27   D    
O79   H35   S    
O23   H9    S    
C25   O46   S    
O11   C3    A    
O51   H23   S    
C7    C10   S    
C65   O77   S    
C14   C30   A    
O18   V4    S    
C73   S1    S    
C54   C78   A    
O14   V4    S    
S8    O43   D    
H5    C38   S    
C53   C77   A    
C15   C31   A    
C24   C56   A    
C30   O49   S    
C55   C79   A    
O6    C7    A    
C69   C77   A    
S7    O39   D    
C34   C42   A    
S7    O40   D    
C40   C48   A    
C17   C25   A    
S12   O62   D    
O3    C2    A    
C20   C52   A    
C17   C49   A    
O12   V1    S    
S13   O66   D    
S2    O24   D    
H3    C36   S    
C20   C28   A    
S3    O28   D    
S10   O56   D    
C27   O48   S    
O47   H19   S    
C23   S15   S    
O78   H34   S    
C62   C69   A    
S12   O63   D    
C23   C31   A    
S5    O35   S    
O44   H16   S    
O6    V2    S    
C59   C68   A    
C48   C64   A    
C72   O84   S    
C4    C13   S    
C43   C59   A    
S1    O23   S    
C65   C73   A    
C46   C54   A    
O15   C7    A    
S14   O68   D    
C45   C53   A    
S15   O71   D    
O16   C8    A    
C74   S2    S    
S5    O34   D    
C8    C9    S    
S9    O54   D    
C10   C26   A    
S13   O65   D    
C21   C29   A    
C16   C40   A    
C19   S11   S    
C41   C49   A    
C32   O51   S    
O8    C5    A    
H8    C39   S    
S10   O57   D    
C49   C73   A    
C79   S7    S    
C68   C76   A    
C14   C38   A    
O73   H31   S    
O41   H15   S    
C77   S5    S    
O76   H32   S    
C18   C26   A    
C78   S6    S    
H4    C35   S    
S8    O42   D    
O84   H40   S    
C59   C60   A    
C22   C54   A    
S3    O29   S    
C9    C33   A    
S14   O70   S    
C67   O79   S    
O81   H37   S    
C13   C37   A    
O14   C6    A    
C13   C29   A    
C39   C47   A    
C80   S8    S    
S2    O26   S    
S13   O67   S    
O80   H36   S    
C47   C63   A    
O83   H39   S    
C26   O45   S    
C69   O81   S    
S15   O73   S    
C5    C12   S    
O48   H20   S    
O4    V3    S    
O12   C4    A    
O9    V1    S    
O77   H33   S    
O13   C5    A    
C61   C62   A    
O17   V3    S    
C76   S4    S    
S10   O58   S    
C15   C39   A    
O26   H10   S    
S6    O37   D    
C70   O82   S    
C44   C60   A    
O4    C1    A    
O9    C1    A    
H7    C40   S    
C12   C28   A    
S16   O75   D    
O3    V4    S    
S5    O33   D    
S9    O55   S    
C12   C36   A    
C46   C62   A    
C19   C27   A    
O8    V1    S    
C1    C16   S    
O32   H12   S    
S4    O32   S    
C19   C51   A    
S15   O72   D    
O52   H24   S    
H6    C37   S    
O55   H25   S    
C18   C50   A    
C72   C80   A    
S1    O21   D    
C42   C50   A    
C28   O47   S    
O82   H38   S    
O1    C4    A    
C58   C65   A    
O19   V1    S    
O2    C3    A    
C29   O50   S    
H2    C33   S    
H1    C34   S    
C20   S12   S    
O35   H13   S    
S6    O38   S    
S4    O31   D    
C61   C70   A    
C24   S16   S    
C71   C79   A    
C11   C27   A    
C36   C44   A    
O7    C6    A    
C67   C75   A    
C66   O78   S    
C66   C74   A    
S12   O64   S    
O10   V2    S    
C57   C66   A    
C18   S10   S    
O67   H29   S    
S11   O61   S    
O20   V2    S    
C57   C58   A    
C9    C25   A    
O64   H28   S    
C48   C56   A    
O38   H14   S    
C71   O83   S    
C63   C72   A    
C17   S9    S    
C45   C61   A    
C43   C51   A    
C24   C32   A    
O5    C8    A    
O10   C2    A    
C70   C78   A    
C42   C58   A    
C31   O52   S    
C52   C76   A    
O7    V2    S    
C51   C75   A    
S16   O76   S    
C50   C74   A    
C23   C55   A    
O70   H30   S    
S2    O25   D    
O15   V4    S    
O13   V3    S    
O50   H22   S    
C16   C32   A    
S6    O36   D    
O1    V3    S    
O16   V3    S    
C41   C57   A    
S11   O59   D    
C56   C80   A    
O2    V4    S    
C35   C43   A    
S16   O74   D    
C11   C35   A    
O58   H26   S    
C64   C71   A    
O46   H18   S    
C10   C34   A    
C22   C30   A    
O11   V2    S    
C21   C53   A    
S11   O60   D    
O45   H17   S    
C21   S13   S    
C6    C11   S    
O61   H27   S    
C60   C67   A    
S1    O22   D    
