data_mof_unit_42539.cif
_audit_creation_date              2012-12-11T16:22:27-0500
_audit_creation_method            fapswitch 2.2
_symmetry_space_group_name_H-M    P1
_symmetry_Int_Tables_number       1
_space_group_crystal_system       triclinic
_cell_length_a                    16.990651
_cell_length_b                    16.772079
_cell_length_c                    19.543372
_cell_angle_alpha                 118.17327
_cell_angle_beta                  62.414524
_cell_angle_gamma                 100.789164
_cell_volume                      4347.80069629

loop_
_atom_site_label
_atom_site_type_symbol
_atom_type_description
_atom_site_fract_x
_atom_site_fract_y
_atom_site_fract_z
_atom_type_partial_charge
C1    C     C_R   0.030814 0.760553 0.020867 -0.134156
C2    C     C_R   0.766009 0.446991 0.243172 0.041635
C3    C     C_R   0.722220 0.541375 0.015519 0.021256
C4    C     C_R   0.051180 0.742263 0.243935 0.045541
C5    C     C_R   0.249094 0.569505 0.013404 -0.140058
C6    C     C_R   0.966418 0.247236 0.828127 -0.121876
C7    C     C_R   0.171551 0.470939 0.750610 -0.131109
C8    C     C_R   0.037327 0.311665 0.066535 -0.126095
C9    C     C_R   0.956600 0.243343 0.993969 -0.112855
C10   C     C_R   0.250689 0.532945 0.827271 -0.132307
C11   C     C_R   0.182076 0.490368 0.088242 -0.134657
C12   C     C_R   0.763917 0.423033 0.165661 -0.135560
C13   C     C_R   0.032215 0.323747 0.750400 -0.126910
C14   C     C_R   0.254981 0.541272 0.067156 0.067683
C15   C     C_R   0.018599 0.237366 0.745504 0.031727
C16   C     C_R   0.257285 0.483916 0.744276 0.035064
C17   C     C_R   0.002443 0.228742 0.030789 0.058673
C18   C     C_R   0.134880 0.828062 0.414509 0.021305
C19   C     C_R   0.107809 0.770105 0.349758 -0.228321
C20   C     C_R   0.087855 0.803388 0.305396 0.060866
C21   C     C_R   0.105220 0.894244 0.319377 0.018595
C22   C     C_R   0.135281 0.950709 0.381234 -0.224331
C23   C     C_R   0.803203 0.550522 0.952336 0.328317
C24   C     C_R   0.143359 0.920695 0.433473 0.022465
C25   C     C_R   0.178040 0.070957 0.528220 -0.192278
C26   C     C_R   0.142160 0.151315 0.602644 -0.162741
C27   C     C_R   0.059857 0.152086 0.669770 0.144389
C28   C     C_R   0.017988 0.070482 0.664910 -0.183986
C29   C     C_R   0.053152 0.990588 0.590237 -0.136474
C30   C     C_R   0.130870 0.991224 0.519646 0.127836
C31   C     C_R   0.588651 0.322430 0.355994 -0.192827
C32   C     C_R   0.651653 0.343483 0.290350 -0.177047
C33   C     C_R   0.708411 0.414955 0.307972 0.141393
C34   C     C_R   0.006607 0.663358 0.242397 -0.130085
C35   C     C_R   0.706870 0.459060 0.390001 -0.178089
C36   C     C_R   0.643401 0.438677 0.455668 -0.170237
C37   C     C_R   0.580423 0.374105 0.440220 0.116211
C38   C     C_R   0.493460 0.396385 0.591674 -0.188157
C39   C     C_R   0.415290 0.429347 0.667131 -0.162744
C40   C     C_R   0.338538 0.445241 0.664801 0.145517
C41   C     C_R   0.339226 0.421897 0.585611 -0.182889
C42   C     C_R   0.417069 0.389257 0.510530 -0.166057
C43   C     C_R   0.495625 0.379658 0.513406 0.120942
C44   C     C_R   0.633936 0.581525 0.050613 0.140152
C45   C     C_R   0.739237 0.482200 0.038528 -0.198479
C46   C     C_R   0.320441 0.566967 0.102026 0.128727
C47   C     C_R   0.402883 0.522597 0.152142 -0.221755
C48   C     C_R   0.325908 0.520709 0.143842 -0.174002
C49   C     C_R   0.385870 0.627607 0.082568 -0.278952
C50   C     C_R   0.465028 0.626211 0.086658 0.190782
C51   C     C_R   0.475052 0.568627 0.116520 0.186795
C52   C     C_R   0.559066 0.548339 0.100026 -0.279185
C53   C     C_R   0.622243 0.650424 0.034157 -0.163215
C54   C     C_R   0.537772 0.672409 0.051645 -0.237513
C55   C     C_R   0.788231 0.159485 0.138506 0.085788
C56   C     C_R   0.074310 0.740110 0.165316 -0.118956
C57   C     C_R   0.952529 0.861344 0.001052 0.131717
C58   C     C_R   0.900088 0.942346 0.953352 -0.229797
C59   C     C_R   0.942084 0.866537 0.935972 -0.181168
C60   C     C_R   0.922832 0.934625 0.083422 -0.291193
C61   C     C_R   0.880116 0.011087 0.101702 0.187408
C62   C     C_R   0.867332 0.014122 0.036337 0.199943
C63   C     C_R   0.820260 0.088037 0.055721 -0.285067
C64   C     C_R   0.802042 0.157501 0.202733 -0.139899
C65   C     C_R   0.847125 0.083348 0.184812 -0.246786
C66   C     C_R   0.842221 0.494424 0.241478 -0.127931
C67   C     C_R   0.959336 0.690380 0.938129 -0.139145
C68   C     C_R   0.982158 0.774861 0.986223 0.046792
H1    H     H_    0.062970 0.811115 0.058532 0.112314
H2    H     H_    0.941472 0.193663 0.847340 0.088280
H3    H     H_    0.153185 0.442506 0.698198 0.082657
H4    H     H_    0.071284 0.327825 0.106301 0.093826
H5    H     H_    0.913585 0.195878 0.968574 0.088068
H6    H     H_    0.304212 0.556728 0.846520 0.095221
H7    H     H_    0.158072 0.468606 0.138253 0.081890
H8    H     H_    0.063533 0.339174 0.696315 0.088919
H9    H     H_    0.101027 0.699007 0.334904 0.121990
H10   H     H_    0.721017 0.375016 0.140095 0.084608
H11   H     H_    0.140586 0.022074 0.396402 0.136906
H12   H     H_    0.238042 0.072648 0.474269 0.119289
H13   H     H_    0.177224 0.213161 0.606480 0.118046
H14   H     H_    0.955011 0.069176 0.716344 0.108829
H15   H     H_    0.014561 0.930475 0.584654 0.116986
H16   H     H_    0.541464 0.271199 0.342610 0.117325
H17   H     H_    0.653023 0.306121 0.227112 0.111605
H18   H     H_    0.749984 0.514128 0.405614 0.109800
H19   H     H_    0.638058 0.480219 0.520223 0.116058
H20   H     H_    0.553329 0.388841 0.595052 0.115006
H21   H     H_    0.415542 0.443996 0.727226 0.114218
H22   H     H_    0.281109 0.433122 0.581683 0.107877
H23   H     H_    0.417162 0.378771 0.451396 0.116082
H24   H     H_    0.565004 0.499322 0.118588 0.118059
H25   H     H_    0.677672 0.685275 0.005380 0.135959
H26   H     H_    0.409176 0.480299 0.177662 0.125792
H27   H     H_    0.530454 0.720109 0.031996 0.128662
H28   H     H_    0.274965 0.476215 0.162937 0.114094
H29   H     H_    0.380357 0.667681 0.054799 0.116098
H30   H     H_    0.807847 0.090471 0.007163 0.114510
H31   H     H_    0.989979 0.636034 0.287497 0.086675
H32   H     H_    0.776877 0.213168 0.266735 0.135240
H33   H     H_    0.891409 0.943897 0.902437 0.126787
H34   H     H_    0.855416 0.082412 0.236021 0.122929
H35   H     H_    0.964561 0.810803 0.871922 0.118954
H36   H     H_    0.928130 0.929506 0.134227 0.137587
H37   H     H_    0.693543 0.456897 0.083641 0.116772
H38   H     H_    0.122845 0.781137 0.137881 0.102406
H39   H     H_    0.872052 0.511105 0.284698 0.085435
H40   H     H_    0.930932 0.676528 0.895084 0.118725
H41   H     H_    0.288031 0.619760 0.993275 0.086303
N1    N     N_R   0.034930 0.670790 0.995440 -0.041394
N2    N     N_R   0.954880 0.335850 0.881080 -0.038839
N3    N     N_R   0.115060 0.502430 0.834090 -0.037208
N4    N     N_R   0.014160 0.371890 0.051540 -0.040403
N5    N     N_R   0.965070 0.329210 0.004560 -0.041196
N6    N     N_R   0.164150 0.545120 0.881070 -0.038278
N7    N     N_R   0.133000 0.490740 0.051540 -0.036983
N8    N     N_R   0.996220 0.383590 0.834100 -0.038334
N9    N     N_R   0.835850 0.454880 0.118930 -0.036483
N10   N     N_R   0.867000 0.509260 0.948460 -0.055798
N11   N     N_R   0.003780 0.616410 0.165900 -0.038793
N12   N     N_R   0.825670 0.461520 0.995440 -0.053650
N13   N     N_R   0.045120 0.664150 0.118920 -0.041351
N14   N     N_R   0.884940 0.497570 0.165910 -0.037532
N15   N     N_R   0.985840 0.628110 0.948460 -0.040586
N16   N     N_R   0.174330 0.538480 0.004560 -0.038295
Ni1   Ni    Ni4+2 0.103690 0.603690 0.000000 0.208456
Ni2   Ni    Ni4+2 0.896310 0.396310 0.000000 0.208070
Ni3   Ni    Ni4+2 0.991110 0.505800 0.892250 0.211594
Ni4   Ni    Ni4+2 0.008890 0.494200 0.107750 0.205949
C69   C     C_R   0.150995 0.791955 0.463509 0.123116
C70   C     C_R   0.225319 0.818066 0.481866 -0.128778
C71   C     C_R   0.240397 0.784558 0.528276 -0.106772
C72   C     C_R   0.181622 0.724724 0.556742 -0.091581
C73   C     C_R   0.107662 0.698240 0.538806 -0.109261
C74   C     C_R   0.092301 0.731513 0.492374 -0.174244
H42   H     H_    0.271919 0.863901 0.459786 0.108971
H43   H     H_    0.297762 0.804922 0.542086 0.110234
H44   H     H_    0.193368 0.698907 0.592721 0.101609
H45   H     H_    0.062031 0.652077 0.561111 0.104962
H46   H     H_    0.033968 0.711096 0.480106 0.104478
C75   C     C_R   0.081533 0.937407 0.280453 0.113326
C76   C     C_R   0.147962 0.972959 0.226773 -0.185816
C77   C     C_R   0.124935 0.020512 0.195700 -0.106080
C78   C     C_R   0.035608 0.034174 0.219289 -0.106728
C79   C     C_R   0.969207 0.999217 0.273077 -0.136369
C80   C     C_R   0.991993 0.950581 0.303280 -0.120123
H47   H     H_    0.217291 0.964269 0.209586 0.114131
H48   H     H_    0.176240 0.047731 0.154226 0.108327
H49   H     H_    0.018009 0.072040 0.195996 0.112208
H50   H     H_    0.899953 0.010110 0.291956 0.105207
H51   H     H_    0.939992 0.924970 0.345908 0.110400
C81   C     C_3   0.812047 0.560775 0.876795 -1.087766
H52   H     H_    0.760916 0.521105 0.855225 0.264323
H53   H     H_    0.803351 0.632202 0.892980 0.240440
H54   H     H_    0.878285 0.533777 0.822103 0.253414

loop_
_geom_bond_atom_site_label_1
_geom_bond_atom_site_label_2
_ccdc_geom_bond_type
C58   C62   A    
C23   C81   S    
N13   Ni1   S    
C25   H12   S    
C41   C42   A    
C3    C23   A    
C35   C36   A    
C66   H39   S    
C2    C12   A    
C67   N15   A    
C79   C80   A    
C14   C46   S    
C53   C54   A    
C46   C49   A    
C26   C27   A    
C29   C30   A    
N6    Ni1   S    
N4    Ni4   S    
N11   Ni4   S    
C18   C24   A    
C9    N5    A    
C28   C29   A    
C22   H11   S    
C29   H15   S    
C63   H30   S    
C23   N10   A    
C38   C39   A    
C35   H18   S    
C67   H40   S    
C57   C59   A    
C77   C78   A    
C1    C68   A    
C7    N3    A    
C18   C19   A    
C6    N2    A    
C19   H9    S    
N1    N15   A    
C6    C15   A    
C44   C53   A    
N7    Ni4   S    
C47   C48   A    
N11   N13   A    
C71   C72   A    
C12   H10   S    
C13   H8    S    
C79   H50   S    
N15   Ni3   S    
N10   Ni3   S    
C44   C52   A    
C41   H22   S    
C72   H44   S    
C21   C22   A    
C4    C56   A    
C77   H48   S    
C9    H5    S    
C65   H34   S    
C45   H37   S    
C34   H31   S    
C4    C34   A    
N10   N12   A    
C36   H19   S    
C34   N11   A    
C74   H46   S    
C46   C48   A    
C3    C44   S    
C8    H4    S    
C28   H14   S    
C51   C52   A    
C70   H42   S    
C73   H45   S    
C10   C16   A    
C57   C60   A    
C47   C51   A    
C45   N12   A    
C25   C26   A    
C53   H25   S    
C3    C45   A    
C1    H1    S    
C31   H16   S    
C31   C37   A    
C55   C63   A    
C60   C61   A    
C56   N13   A    
C37   C43   S    
C67   C68   A    
C62   C63   A    
C1    N1    A    
C15   C27   S    
C31   C32   A    
C81   H54   S    
C55   C64   A    
C50   C51   A    
C5    C14   A    
C58   H33   S    
C50   C54   A    
C81   H52   S    
C11   N7    A    
C56   H38   S    
C54   H27   S    
C75   C80   A    
C16   C40   S    
C12   N9    A    
C8    N4    A    
C2    C33   S    
C9    C17   A    
C7    C16   A    
C69   C74   A    
N1    Ni1   S    
C26   H13   S    
N7    N16   A    
C13   C15   A    
N2    Ni2   S    
C72   C73   A    
C22   C24   A    
C52   H24   S    
C24   C30   S    
N9    Ni2   S    
C57   C68   S    
C5    N16   A    
C70   C71   A    
C39   C40   A    
N4    N5    A    
C25   C30   A    
C6    H2    S    
C36   C37   A    
C48   H28   S    
C78   H49   S    
C66   N14   A    
C76   H47   S    
C81   H53   S    
C78   C79   A    
C2    C66   A    
C13   N8    A    
N12   Ni2   S    
C73   C74   A    
C8    C17   A    
N2    N8    A    
C59   H35   S    
C64   C65   A    
C19   C20   A    
C69   C70   A    
C71   H43   S    
C21   C75   S    
C38   C43   A    
C11   H7    S    
C75   C76   A    
C32   C33   A    
C7    H3    S    
N5    Ni2   S    
C10   H6    S    
N16   Ni1   S    
C5    H41   S    
C32   H17   S    
C33   C35   A    
C47   H26   S    
N9    N14   A    
C61   C62   A    
N8    Ni3   S    
C58   C59   A    
N3    Ni3   S    
C18   C69   S    
C49   H29   S    
C80   H51   S    
C4    C20   S    
C61   C65   A    
C64   H32   S    
C20   C21   A    
C49   C50   A    
C42   C43   A    
C38   H20   S    
C27   C28   A    
C76   C77   A    
C40   C41   A    
C60   H36   S    
C11   C14   A    
C39   H21   S    
N3    N6    A    
N14   Ni4   S    
C10   N6    A    
C42   H23   S    
