data_mof_unit_5505.cif
_audit_creation_date              2012-12-11T16:32:24-0500
_audit_creation_method            fapswitch 2.2
_symmetry_space_group_name_H-M    P1
_symmetry_Int_Tables_number       1
_space_group_crystal_system       triclinic
_cell_length_a                    6.942379
_cell_length_b                    14.407592
_cell_length_c                    15.886207
_cell_angle_alpha                 90.010314
_cell_angle_beta                  89.897881
_cell_angle_gamma                 90.086005
_cell_volume                      1588.98117414

loop_
_atom_site_label
_atom_site_type_symbol
_atom_type_description
_atom_site_fract_x
_atom_site_fract_y
_atom_site_fract_z
_atom_type_partial_charge
O1    O     O_R   0.361630 0.167340 0.164570 -0.537845
O2    O     O_R   0.638370 0.832660 0.835430 -0.537845
O3    O     O_R   0.690860 0.157560 0.338690 -0.542141
O4    O     O_R   0.309140 0.842440 0.661310 -0.542142
O5    O     O_R   0.861260 0.336420 0.339380 -0.534935
O6    O     O_R   0.138740 0.663580 0.660620 -0.534935
C1    C     C_R   0.521836 0.134624 0.367947 0.657280
C2    C     C_R   0.478164 0.865376 0.632053 0.657280
O7    O     O_R   0.691330 0.156310 0.165190 -0.540588
O8    O     O_R   0.308670 0.843690 0.834810 -0.540589
O9    O     O_R   0.861730 0.335160 0.164640 -0.530880
O10   O     O_R   0.138270 0.664840 0.835360 -0.530880
C3    C     C_R   0.522524 0.133988 0.136590 0.695207
C4    C     C_R   0.477476 0.866012 0.863410 0.695207
O11   O     O_R   0.361150 0.168600 0.339320 -0.538598
O12   O     O_R   0.638850 0.831400 0.660680 -0.538598
O13   O     O_3   0.527950 0.310560 0.252000 -0.356560
O14   O     O_3   0.472050 0.689440 0.748000 -0.356560
V1    V     V_3+5 0.802770 0.240990 0.251980 1.432525
V2    V     V_3+5 0.197230 0.759010 0.748020 1.432526
O15   O     O_R   0.191450 0.346190 0.165260 -0.530329
O16   O     O_R   0.808550 0.653810 0.834740 -0.530329
C5    C     C_R   0.022824 0.367855 0.136572 0.702740
C6    C     C_R   0.977176 0.632145 0.863428 0.702741
O17   O     O_R   0.190980 0.347440 0.338770 -0.544389
O18   O     O_R   0.809020 0.652560 0.661230 -0.544389
C7    C     C_R   0.022196 0.369353 0.367642 0.694676
C8    C     C_R   0.977804 0.630647 0.632358 0.694677
V3    V     V_3+5 0.302780 0.262760 0.251980 1.448332
V4    V     V_3+5 0.697220 0.737240 0.748020 1.448332
O19   O     O_3   0.027730 0.193200 0.251960 -0.373151
O20   O     O_3   0.972270 0.806800 0.748040 -0.373152
C9    C     C_3   0.911052 0.422418 0.522585 0.207573
C10   C     C_3   0.088948 0.577582 0.477415 0.207573
C11   C     C_3   0.084754 0.465031 0.569456 -0.188995
C12   C     C_3   0.915246 0.534969 0.430544 -0.188995
H1    H     H_    0.152663 0.436135 0.626981 0.130795
H2    H     H_    0.847337 0.563865 0.373018 0.130795
C13   C     C_3   0.988247 0.561171 0.562286 -0.050406
C14   C     C_3   0.011753 0.438829 0.437714 -0.050406
C15   C     C_3   0.813180 0.518346 0.516511 -0.149213
C16   C     C_3   0.186820 0.481654 0.483489 -0.149213
H3    H     H_    0.659550 0.532987 0.530695 0.123572
H4    H     H_    0.340450 0.467013 0.469305 0.123572
H5    H     H_    0.938482 0.315215 0.752001 0.100098
H6    H     H_    0.061517 0.684785 0.247999 0.100098
C17   C     C_R   0.017559 0.692641 0.035485 -0.108005
C18   C     C_R   0.982441 0.307359 0.964515 -0.108005
C19   C     C_R   0.036621 0.723718 0.118143 -0.066934
C20   C     C_R   0.963379 0.276282 0.881857 -0.066934
C21   C     C_R   0.047508 0.660283 0.183893 -0.022383
C22   C     C_R   0.952492 0.339717 0.816106 -0.022383
C23   C     C_R   0.040514 0.565295 0.167399 -0.035562
C24   C     C_R   0.959486 0.434705 0.832601 -0.035562
C25   C     C_R   0.021549 0.531766 0.084035 0.099190
C26   C     C_R   0.978451 0.468234 0.915964 0.099190
C27   C     C_R   0.009164 0.596587 0.016893 0.089782
C28   C     C_R   0.990835 0.403413 0.983106 0.089783
C29   C     C_R   0.012800 0.435373 0.066919 -0.167634
C30   C     C_R   0.987200 0.564627 0.933081 -0.167634
H7    H     H_    0.008380 0.744704 0.986568 0.094426
H8    H     H_    0.991620 0.255295 0.013432 0.094426
H9    H     H_    0.042340 0.797417 0.131240 0.110499
H10   H     H_    0.957660 0.202583 0.868760 0.110499
H11   H     H_    0.049446 0.518648 0.220627 0.072387
H12   H     H_    0.950554 0.481352 0.779373 0.072388
C31   C     C_3   0.405836 0.968609 0.431973 -0.140858
C32   C     C_3   0.594164 0.031391 0.568026 -0.140858
C33   C     C_3   0.579962 0.920101 0.474304 -0.138298
C34   C     C_3   0.420038 0.079898 0.525696 -0.138298
H13   H     H_    0.646017 0.854021 0.452926 0.101613
H14   H     H_    0.353982 0.145978 0.547074 0.101613
H15   H     H_    0.328125 0.942478 0.375710 0.104644
H16   H     H_    0.671875 0.057522 0.624290 0.104644
C35   C     C_3   0.488857 0.937262 0.561597 -0.010207
C36   C     C_3   0.511143 0.062737 0.438403 -0.010207
C37   C     C_3   0.314539 0.985114 0.519908 -0.111729
C38   C     C_3   0.685461 0.014886 0.480091 -0.111729
H17   H     H_    0.161044 0.972926 0.536258 0.105419
H18   H     H_    0.838956 0.027074 0.463742 0.105419
H19   H     H_    0.560443 0.817534 0.249180 0.143071
H20   H     H_    0.439557 0.182466 0.750820 0.143071
C39   C     C_R   0.484475 0.192363 0.963462 -0.209651
C40   C     C_R   0.515525 0.807637 0.036538 -0.209651
C41   C     C_R   0.465746 0.222918 0.880567 0.436717
C42   C     C_R   0.534254 0.777082 0.119433 0.436717
C43   C     C_R   0.453723 0.158837 0.815220 -0.192859
C44   C     C_R   0.546277 0.841163 0.184780 -0.192859
C45   C     C_R   0.460404 0.063971 0.832271 -0.224337
C46   C     C_R   0.539596 0.936029 0.167729 -0.224337
C47   C     C_R   0.479295 0.030991 0.915744 0.077686
C48   C     C_R   0.520705 0.969009 0.084256 0.077686
C49   C     C_R   0.491642 0.096477 0.982667 -0.005380
C50   C     C_R   0.508358 0.903523 0.017333 -0.005380
C51   C     C_R   0.487614 0.934537 0.933102 -0.144166
C52   C     C_R   0.512386 0.065463 0.066898 -0.144166
H21   H     H_    0.494263 0.244541 0.012299 0.144085
H22   H     H_    0.505737 0.755459 0.987701 0.144085
H23   H     H_    0.451184 0.016912 0.779319 0.113657
H24   H     H_    0.548816 0.983088 0.220681 0.113657
Cl1   Cl    Cl    0.458603 0.342299 0.858649 -0.703876
Cl2   Cl    Cl    0.541397 0.657701 0.141351 -0.703876
C53   C     C_3   0.808237 0.333641 0.548730 -0.809487
H25   H     H_    0.748790 0.341839 0.613185 0.217096
H26   H     H_    0.688502 0.318909 0.504458 0.209696
H27   H     H_    0.911227 0.274799 0.547906 0.196631
C54   C     C_3   0.191763 0.666359 0.451270 -0.809487
H28   H     H_    0.251210 0.658161 0.386815 0.217096
H29   H     H_    0.088773 0.725201 0.452094 0.196631
H30   H     H_    0.311498 0.681091 0.495542 0.209696

loop_
_geom_bond_atom_site_label_1
_geom_bond_atom_site_label_2
_ccdc_geom_bond_type
C19   H9    S    
C25   C29   A    
C20   H10   S    
C31   C37   S    
O4    C2    A    
V1    O19   S    
C33   C38   S    
C13   C15   S    
C32   C35   S    
C5    C29   S    
O9    V1    S    
C24   H12   S    
C45   H23   S    
C10   C54   S    
C11   H1    S    
C36   C38   S    
O3    C1    A    
C42   C44   A    
C17   C27   A    
C32   H16   S    
H20   C43   S    
C39   C49   A    
C48   C52   A    
O13   V3    S    
C33   H13   S    
C11   C16   S    
O7    C3    A    
C9    C11   S    
O5    C7    A    
C18   H8    S    
O7    V1    S    
O6    C8    A    
O8    V2    S    
C19   C21   A    
C10   C16   S    
C20   C22   A    
C54   H28   S    
O3    V1    S    
O14   V4    S    
C45   C47   A    
C23   H11   S    
O14   V2    S    
C18   C20   A    
C2    O12   A    
C34   C37   S    
O17   V3    S    
C15   H3    S    
C12   C15   S    
C16   H4    S    
C46   H24   S    
C22   C24   A    
O11   V3    S    
C23   C25   A    
C32   C38   S    
C24   C26   A    
C9    C14   S    
C41   C43   A    
C10   C13   S    
C12   C14   S    
C17   C19   A    
O8    C4    A    
C27   C30   A    
C1    O11   A    
C3    C52   S    
H5    C22   S    
C28   C29   A    
O15   V3    S    
H6    C21   S    
C2    C35   S    
C26   C30   A    
C21   C23   A    
C11   C13   S    
C47   C49   A    
C46   C48   A    
C7    C14   S    
C6    C30   S    
O10   V2    S    
O1    V3    S    
C37   H17   S    
C53   H26   S    
C40   C50   A    
C35   C37   S    
C31   H15   S    
C39   C41   A    
C44   C46   A    
O18   V4    S    
C49   C52   A    
C25   C27   A    
C34   C36   S    
C54   H30   S    
O16   C6    A    
O1    C3    A    
C12   H2    S    
C42   Cl2   S    
C4    C51   S    
C41   Cl1   S    
V2    O20   S    
O16   V4    S    
C9    C53   S    
C40   C42   A    
C14   C16   S    
C17   H7    S    
C18   C28   A    
C1    C36   S    
O5    V1    S    
O17   C7    A    
O6    V2    S    
O10   C6    A    
O18   C8    A    
C8    C13   S    
O2    V4    S    
C40   H22   S    
O15   C5    A    
C9    C15   S    
V3    O19   S    
V4    O20   S    
C48   C50   A    
C54   H29   S    
O9    C5    A    
O13   V1    S    
C10   C12   S    
C26   C28   A    
C33   C35   S    
C53   H27   S    
C38   H18   S    
C50   C51   A    
O2    C4    A    
H19   C44   S    
C47   C51   A    
O4    V2    S    
C32   C34   S    
C39   H21   S    
C53   H25   S    
C43   C45   A    
C34   H14   S    
C31   C36   S    
C31   C33   S    
O12   V4    S    
