data_mof_unit_48234.cif
_audit_creation_date              2012-12-10T20:43:44-0500
_audit_creation_method            fapswitch 2.2
_symmetry_space_group_name_H-M    P1
_symmetry_Int_Tables_number       1
_space_group_crystal_system       triclinic
_cell_length_a                    18.891303
_cell_length_b                    18.74103
_cell_length_c                    19.395367
_cell_angle_alpha                 110.356469
_cell_angle_beta                  110.099087
_cell_angle_gamma                 108.957215
_cell_volume                      5219.20003396

loop_
_atom_site_label
_atom_site_type_symbol
_atom_type_description
_atom_site_fract_x
_atom_site_fract_y
_atom_site_fract_z
_atom_type_partial_charge
C1    C     C_R   0.379199 0.500486 0.380636 0.988940
C2    C     C_R   0.856049 0.927345 0.848921 0.136168
C3    C     C_R   0.005007 0.750639 0.986750 0.465862
C4    C     C_R   0.978847 0.749067 0.045857 0.363465
C5    C     C_R   0.043390 0.791707 0.132916 -0.225584
C6    C     C_R   0.286589 0.506135 0.053256 0.182070
C7    C     C_R   0.218995 0.463788 0.967189 0.519124
C8    C     C_R   0.168904 0.370517 0.916894 -0.172328
C9    C     C_R   0.202733 0.323277 0.945748 -0.315585
C10   C     C_R   0.278064 0.365966 0.025802 0.513527
C11   C     C_R   0.314395 0.455554 0.083527 0.169062
C12   C     C_R   0.083090 0.258174 0.759818 0.353969
C13   C     C_R   0.813850 0.837000 0.572578 0.349310
C14   C     C_R   0.002096 0.191355 0.685082 -0.241159
C15   C     C_R   0.923479 0.189454 0.674762 -0.054775
C16   C     C_R   0.925049 0.245128 0.745687 0.567469
C17   C     C_R   0.005893 0.312152 0.821188 -0.237397
C18   C     C_R   0.086173 0.318461 0.830478 -0.066718
C19   C     C_R   0.801727 0.159899 0.539733 0.518553
C20   C     C_R   0.745077 0.102665 0.450169 0.183236
C21   C     C_R   0.715866 0.011874 0.414280 0.302761
C22   C     C_R   0.739570 0.980361 0.469290 0.465500
C23   C     C_R   0.803706 0.038468 0.555547 -0.438550
C24   C     C_R   0.807827 0.813682 0.493749 -0.138116
C25   C     C_R   0.840092 0.129027 0.590218 -0.059191
C26   C     C_R   0.730242 0.740833 0.416805 0.058472
C27   C     C_R   0.667386 0.681432 0.422982 0.370748
C28   C     C_R   0.683918 0.694701 0.504220 -0.216282
C29   C     C_R   0.754948 0.776313 0.580675 -0.074937
C30   C     C_R   0.648025 0.720176 0.271077 0.328065
C31   C     C_R   0.635398 0.698443 0.188771 0.199104
C32   C     C_R   0.696548 0.685451 0.168539 0.314214
C33   C     C_R   0.623026 0.622479 0.504372 0.954558
C34   C     C_R   0.761400 0.679665 0.224377 0.319020
C35   C     C_R   0.769131 0.691825 0.303662 0.219261
C36   C     C_R   0.717978 0.721195 0.330533 -0.132679
C37   C     C_R   0.375149 0.742997 0.550073 0.247340
C38   C     C_R   0.334664 0.664159 0.472315 0.455329
C39   C     C_R   0.361505 0.660977 0.412207 -0.250433
C40   C     C_R   0.419954 0.740866 0.425141 0.330423
C41   C     C_R   0.451089 0.821259 0.497352 0.289074
C42   C     C_R   0.436428 0.822092 0.564267 0.271571
C43   C     C_R   0.251394 0.575135 0.255709 0.379085
C44   C     C_R   0.612640 0.492695 0.619520 0.959241
C45   C     C_R   0.184192 0.493842 0.182691 -0.164522
C46   C     C_R   0.169823 0.414055 0.182264 -0.152870
C47   C     C_R   0.236436 0.416745 0.247115 0.416492
C48   C     C_R   0.308484 0.498952 0.316584 -0.117182
C49   C     C_R   0.309441 0.577912 0.326665 -0.101917
C50   C     C_R   0.014134 0.326412 0.143736 0.412734
C51   C     C_R   0.927030 0.259444 0.081641 0.402551
C52   C     C_R   0.905630 0.198989 0.999331 0.269942
C53   C     C_R   0.972503 0.200689 0.983420 -0.176672
C54   C     C_R   0.059750 0.264402 0.045361 0.308371
C55   C     C_R   0.376759 0.379287 0.496159 0.956316
C56   C     C_R   0.081068 0.332611 0.123970 -0.201455
C57   C     C_R   0.231007 0.527102 0.588098 0.264188
C58   C     C_R   0.262867 0.468386 0.579199 0.477065
C59   C     C_R   0.223955 0.392673 0.498436 -0.206288
C60   C     C_R   0.151489 0.375403 0.426792 0.314939
C61   C     C_R   0.111012 0.425393 0.439792 0.457355
C62   C     C_R   0.150827 0.502209 0.519182 0.200179
C63   C     C_R   0.174644 0.252053 0.493372 0.463988
C64   C     C_R   0.188949 0.185643 0.501470 -0.294849
C65   C     C_R   0.264941 0.182830 0.506803 -0.050101
C66   C     C_R   0.767085 0.893258 0.791697 0.380306
C67   C     C_R   0.317807 0.239250 0.490707 0.425171
C68   C     C_R   0.309530 0.311693 0.493918 -0.176584
C69   C     C_R   0.238063 0.318741 0.495870 -0.074914
C70   C     C_R   0.372707 0.157195 0.599098 0.384035
C71   C     C_R   0.395456 0.101321 0.623012 0.284414
C72   C     C_R   0.340700 0.008928 0.567697 0.155257
C73   C     C_R   0.271464 0.975270 0.485538 0.436748
C74   C     C_R   0.241487 0.029791 0.468912 0.256185
C75   C     C_R   0.290615 0.121735 0.527056 -0.216421
C76   C     C_R   0.585210 0.659379 0.835028 0.305802
C77   C     C_R   0.731502 0.838826 0.702684 0.393766
C78   C     C_R   0.634732 0.627002 0.809378 0.368745
C79   C     C_R   0.621904 0.543262 0.794518 -0.149487
C80   C     C_R   0.566214 0.496937 0.817000 0.435659
C81   C     C_R   0.527927 0.538427 0.857361 0.224997
C82   C     C_R   0.537741 0.619554 0.865728 0.281680
C83   C     C_R   0.742395 0.508108 0.830007 0.485271
C84   C     C_R   0.809380 0.499628 0.816751 -0.198059
C85   C     C_R   0.804973 0.482071 0.738104 -0.094106
C86   C     C_R   0.726256 0.455805 0.669041 0.393584
C87   C     C_R   0.670660 0.484347 0.686115 -0.193487
C88   C     C_R   0.777121 0.803238 0.671431 -0.209053
C89   C     C_R   0.677648 0.510565 0.768316 -0.001031
C90   C     C_R   0.908383 0.583603 0.717443 0.511576
C91   C     C_R   0.988920 0.622428 0.723012 0.175783
C92   C     C_R   0.033519 0.575123 0.717031 0.265885
C93   C     C_R   0.996521 0.491213 0.706879 0.442224
C94   C     C_R   0.929673 0.465065 0.724648 0.258896
C95   C     C_R   0.884720 0.512227 0.731115 -0.211843
C96   C     C_R   0.996622 0.874688 0.380442 0.966728
C97   C     C_R   0.878674 0.875743 0.494402 0.986737
C98   C     C_R   0.001186 0.122089 0.619534 0.974706
C99   C     C_R   0.863597 0.830187 0.732243 0.312511
C100  C     C_R   0.120935 0.118556 0.499475 0.953692
C101  C     C_R   0.004945 0.379497 0.885754 0.958368
C102  C     C_R   0.119739 0.495724 0.116054 0.921444
C103  C     C_R   0.002969 0.622209 0.120864 0.951019
C104  C     C_R   0.879192 0.502125 0.882550 0.974358
C105  C     C_R   0.043420 0.714496 0.519829 0.336107
C106  C     C_R   0.057899 0.754969 0.473778 0.374915
C107  C     C_R   0.008044 0.706738 0.382299 -0.213036
C108  C     C_R   0.952851 0.612471 0.339179 0.475661
C109  C     C_R   0.947320 0.571413 0.387543 0.348245
C110  C     C_R   0.904399 0.897669 0.817735 0.287618
C111  C     C_R   0.985117 0.623073 0.476659 0.169957
C112  C     C_R   0.044109 0.699035 0.271595 0.523550
C113  C     C_R   0.018911 0.696546 0.194424 -0.243046
C114  C     C_R   0.020585 0.771112 0.192155 -0.012929
C115  C     C_R   0.009009 0.827830 0.251826 0.580907
C116  C     C_R   0.005954 0.812049 0.317945 -0.212033
C117  C     C_R   0.024805 0.745982 0.328688 -0.016671
C118  C     C_R   0.133385 0.838079 0.160473 0.472832
C119  C     C_R   0.158175 0.833087 0.098662 0.352243
C120  C     C_R   0.093574 0.789918 0.012628 -0.485290
H1    H     H_    0.956369 0.151482 0.921769 0.196775
H2    H     H_    0.111889 0.784669 0.964708 0.181207
H3    H     H_    0.170127 0.252188 0.905891 0.238509
H4    H     H_    0.826844 0.013107 0.595145 0.205590
O1    O     O_R   0.408360 0.551710 0.460090 -0.637433
O2    O     O_R   0.948280 0.908380 0.356650 -0.590215
O3    O     O_R   0.960110 0.908350 0.551690 -0.559504
O4    O     O_R   0.856660 0.908370 0.448270 -0.645683
O5    O     O_R   0.051720 0.091580 0.643310 -0.558288
O6    O     O_R   0.948270 0.091600 0.539890 -0.660006
O7    O     O_R   0.143340 0.091590 0.551680 -0.613768
O8    O     O_R   0.039890 0.091610 0.448270 -0.573789
O9    O     O_R   0.051730 0.460050 0.908360 -0.579898
O10   O     O_R   0.948290 0.356630 0.908390 -0.622939
O11   O     O_R   0.143340 0.551690 0.091580 -0.527302
O12   O     O_R   0.408400 0.448280 0.356670 -0.554334
O13   O     O_R   0.039900 0.448270 0.091610 -0.637428
O14   O     O_R   0.051710 0.643320 0.091560 -0.628873
O15   O     O_R   0.948270 0.539900 0.091590 -0.589700
O16   O     O_R   0.960100 0.551680 0.908340 -0.601976
O17   O     O_R   0.856660 0.448270 0.908370 -0.665932
O18   O     O_R   0.591600 0.643340 0.551710 -0.596716
O19   O     O_R   0.591630 0.539900 0.448290 -0.596707
O20   O     O_R   0.591600 0.551720 0.643330 -0.612451
O21   O     O_R   0.591640 0.448290 0.539910 -0.568913
O22   O     O_R   0.408370 0.460100 0.551710 -0.614523
O23   O     O_R   0.408400 0.356660 0.448290 -0.578296
O24   O     O_R   0.051730 0.908360 0.460060 -0.593431
Zn1   Zn    Zn3+2 0.499980 0.569060 0.569060 0.997865
Zn2   Zn    Zn3+2 0.500020 0.430940 0.430940 1.073104
Zn3   Zn    Zn3+2 0.069070 0.999960 0.569030 1.097654
Zn4   Zn    Zn3+2 0.930930 0.999990 0.430930 0.967308
Zn5   Zn    Zn3+2 0.069070 0.569030 0.999960 1.084058
Zn6   Zn    Zn3+2 0.930930 0.430930 0.000000 0.990938
O25   O     O_3   0.895054 0.992752 0.933257 -0.756015
H5    H     H_    0.955255 0.005648 0.966933 0.371032
O26   O     O_3   0.690316 0.670557 0.091144 -0.726118
H6    H     H_    0.646824 0.683965 0.061372 0.389186
O27   O     O_3   0.812569 0.656780 0.196144 -0.744306
H7    H     H_    0.856080 0.656761 0.241679 0.370869
O28   O     O_3   0.825820 0.673639 0.352939 -0.649069
C121  C     C_3   0.780047 0.607695 0.366213 -0.335099
H8    H     H_    0.803730 0.560890 0.359924 0.186402
H9    H     H_    0.708561 0.566350 0.318977 0.164806
H10   H     H_    0.793833 0.637969 0.433015 0.172680
O29   O     O_3   0.474916 0.901792 0.638706 -0.626231
C122  C     C_3   0.533261 0.904775 0.710197 -0.273226
H11   H     H_    0.550155 0.851990 0.693581 0.216245
H12   H     H_    0.505675 0.901484 0.751823 0.170121
H13   H     H_    0.594804 0.969140 0.748505 0.214027
O30   O     O_3   0.347170 0.741156 0.606785 -0.745239
H14   H     H_    0.360948 0.801130 0.645044 0.374858
O31   O     O_3   0.261344 0.591898 0.450521 -0.601276
C123  C     C_3   0.189213 0.602830 0.415782 -0.179130
H15   H     H_    0.183311 0.611083 0.360730 0.158359
H16   H     H_    0.192965 0.659167 0.465137 0.211388
H17   H     H_    0.128133 0.543147 0.390399 0.251347
O32   O     O_3   0.438564 0.743400 0.362954 -0.699511
H18   H     H_    0.430540 0.685652 0.326672 0.355768
O33   O     O_3   0.493006 0.897907 0.498834 -0.778053
H19   H     H_    0.505855 0.949146 0.549707 0.356838
O34   O     O_3   0.253247 0.650470 0.258474 -0.706399
H20   H     H_    0.264176 0.689826 0.315018 0.313590
O35   O     O_3   0.230444 0.342006 0.249502 -0.758996
H21   H     H_    0.176502 0.288428 0.198641 0.349249
O36   O     O_3   0.718275 0.926671 0.816332 -0.595797
C124  C     C_3   0.721980 0.928235 0.890826 -0.110756
H22   H     H_    0.771471 0.994730 0.948140 0.216871
H23   H     H_    0.735085 0.877948 0.900525 0.181701
H24   H     H_    0.658064 0.915206 0.885232 0.152643
O37   O     O_3   0.029970 0.387078 0.220848 -0.643435
H25   H     H_    0.093306 0.421727 0.263136 0.352036
O38   O     O_3   0.862355 0.257042 0.100437 -0.588361
C125  C     C_3   0.850183 0.202010 0.134747 -0.255590
H26   H     H_    0.911453 0.226250 0.193648 0.215726
H27   H     H_    0.825344 0.132759 0.086498 0.135796
H28   H     H_    0.800563 0.202241 0.152867 0.182710
O39   O     O_3   0.820733 0.136695 0.933436 -0.748901
H29   H     H_    0.779959 0.145709 0.951793 0.357639
O40   O     O_3   0.121620 0.256522 0.026646 -0.763441
H30   H     H_    0.179301 0.294419 0.080080 0.381803
O41   O     O_3   0.108300 0.549399 0.526453 -0.702589
H31   H     H_    0.127576 0.585232 0.587377 0.391589
O42   O     O_3   0.277455 0.604964 0.665943 -0.762728
H32   H     H_    0.264624 0.649231 0.657113 0.378730
O43   O     O_3   0.333297 0.485846 0.650083 -0.570785
C126  C     C_3   0.302769 0.454563 0.696491 -0.330207
H33   H     H_    0.255451 0.473523 0.706228 0.153832
H34   H     H_    0.358352 0.484286 0.760844 0.201846
H35   H     H_    0.275277 0.382356 0.665908 0.175534
O44   O     O_3   0.112405 0.304237 0.345407 -0.716527
H36   H     H_    0.152857 0.281831 0.343115 0.349355
O45   O     O_3   0.030764 0.398582 0.374007 -0.513975
C127  C     C_3   0.965412 0.337526 0.376317 -0.136170
H37   H     H_    0.967845 0.367709 0.438337 0.177269
H38   H     H_    0.970348 0.277289 0.364468 0.181638
H39   H     H_    0.900666 0.316606 0.324503 0.176548
O46   O     O_3   0.656685 0.830370 0.645640 -0.570407
C128  C     C_3   0.679916 0.909249 0.644067 -0.357471
H40   H     H_    0.716226 0.913842 0.610119 0.163226
H41   H     H_    0.718732 0.969818 0.708747 0.192883
H42   H     H_    0.620085 0.909159 0.609677 0.222290
O47   O     O_3   0.094664 0.247399 0.474378 -0.588786
C129  C     C_3   0.092316 0.284280 0.549976 -0.296412
H43   H     H_    0.119201 0.356125 0.577360 0.149918
H44   H     H_    0.126354 0.270534 0.598956 0.144409
H45   H     H_    0.023074 0.255262 0.532849 0.221603
O48   O     O_3   0.379555 0.226531 0.473799 -0.763301
H46   H     H_    0.362518 0.163609 0.450003 0.311684
O49   O     O_3   0.429906 0.247129 0.645738 -0.566298
C130  C     C_3   0.505673 0.265677 0.639406 -0.074148
H47   H     H_    0.496685 0.212460 0.582227 0.099509
H48   H     H_    0.560203 0.280525 0.698357 0.171399
H49   H     H_    0.525548 0.325531 0.634754 0.187807
O50   O     O_3   0.469202 0.138698 0.701726 -0.593120
C131  C     C_3   0.533202 0.121733 0.690029 -0.326362
H50   H     H_    0.528872 0.111483 0.628177 0.129910
H51   H     H_    0.530055 0.064281 0.695764 0.235716
H52   H     H_    0.598600 0.179278 0.742400 0.171191
O51   O     O_3   0.351235 0.950612 0.592159 -0.701109
H53   H     H_    0.385106 0.982255 0.655635 0.393684
O52   O     O_3   0.226284 0.887450 0.421068 -0.587523
C132  C     C_3   0.283511 0.859422 0.407343 -0.080241
H54   H     H_    0.296907 0.825762 0.442995 0.170295
H55   H     H_    0.345516 0.913364 0.423871 0.148714
H56   H     H_    0.250052 0.810545 0.338171 0.213288
O53   O     O_3   0.166255 0.990382 0.392238 -0.735274
H57   H     H_    0.155810 0.035664 0.383946 0.319115
O54   O     O_3   0.510638 0.664377 0.914928 -0.591220
C133  C     C_3   0.449441 0.681420 0.867612 -0.179029
H58   H     H_    0.416255 0.638519 0.796970 0.216990
H59   H     H_    0.481978 0.751586 0.886053 0.205705
H60   H     H_    0.398145 0.670434 0.884680 0.143491
O55   O     O_3   0.590654 0.736131 0.839032 -0.624458
C134  C     C_3   0.545149 0.718589 0.754660 -0.200338
H61   H     H_    0.484908 0.652229 0.710109 0.175523
H62   H     H_    0.588829 0.726156 0.728119 0.214064
H63   H     H_    0.523764 0.767425 0.757337 0.158863
O56   O     O_3   0.694980 0.677962 0.797064 -0.562992
C135  C     C_3   0.771060 0.741213 0.877293 -0.304974
H64   H     H_    0.808727 0.710060 0.895426 0.252540
H65   H     H_    0.758606 0.773051 0.928599 0.152213
H66   H     H_    0.810636 0.794156 0.871596 0.156661
O57   O     O_3   0.916319 0.804275 0.708636 -0.645890
H67   H     H_    0.883986 0.763183 0.646179 0.340811
O58   O     O_3   0.555010 0.413463 0.798307 -0.627864
C136  C     C_3   0.505573 0.368222 0.825213 -0.099209
H68   H     H_    0.436146 0.350024 0.789699 0.221944
H69   H     H_    0.535384 0.404908 0.895895 0.163302
H70   H     H_    0.506365 0.305807 0.809528 0.197834
O59   O     O_3   0.481346 0.499839 0.888364 -0.816826
H71   H     H_    0.449769 0.529583 0.903667 0.361957
O60   O     O_3   0.753400 0.538563 0.911307 -0.581392
C137  C     C_3   0.725869 0.470208 0.928112 -0.136980
H72   H     H_    0.782309 0.481133 0.982452 0.196800
H73   H     H_    0.692864 0.402357 0.872065 0.135682
H74   H     H_    0.681600 0.476024 0.952154 0.184793
O61   O     O_3   0.707680 0.411818 0.585576 -0.764741
H75   H     H_    0.752145 0.395354 0.584211 0.337642
O62   O     O_3   0.851907 0.615064 0.698324 -0.563793
C138  C     C_3   0.818027 0.593271 0.611893 -0.187152
H76   H     H_    0.791390 0.522720 0.566651 0.182765
H77   H     H_    0.868176 0.632190 0.602627 0.177360
H78   H     H_    0.764449 0.607857 0.593752 0.153444
O63   O     O_3   0.018448 0.703597 0.729530 -0.720360
H79   H     H_    0.073821 0.721918 0.729871 0.370712
O64   O     O_3   0.108663 0.606485 0.713909 -0.587672
C139  C     C_3   0.180918 0.663723 0.798786 -0.360053
H80   H     H_    0.175021 0.640662 0.843382 0.156549
H81   H     H_    0.190742 0.731280 0.824743 0.181755
H82   H     H_    0.240501 0.667804 0.797975 0.211484
O65   O     O_3   0.014635 0.428850 0.666025 -0.541397
C140  C     C_3   0.089226 0.437511 0.726159 -0.211615
H83   H     H_    0.148588 0.490489 0.738704 0.171588
H84   H     H_    0.089792 0.375306 0.698642 0.157397
H85   H     H_    0.089180 0.448634 0.786048 0.227483
O66   O     O_3   0.908558 0.391342 0.731132 -0.676088
H86   H     H_    0.866874 0.384335 0.751337 0.342292
O67   O     O_3   0.965901 0.581991 0.519873 -0.749868
H87   H     H_    0.977176 0.626250 0.574374 0.364917
O68   O     O_3   0.993463 0.936153 0.870884 -0.610201
C141  C     C_3   0.037044 0.006114 0.861703 -0.142672
H88   H     H_    0.015789 0.055593 0.876274 0.152736
H89   H     H_    0.027583 0.981296 0.796309 0.224805
H90   H     H_    0.108037 0.040319 0.908134 0.190178
O69   O     O_3   0.094743 0.765110 0.608109 -0.685055
H91   H     H_    0.110357 0.728066 0.629066 0.345064
O70   O     O_3   0.129141 0.838632 0.521807 -0.657629
H92   H     H_    0.148764 0.849644 0.484048 0.389754
O71   O     O_3   0.918674 0.561505 0.250963 -0.554580
C142  C     C_3   0.830149 0.494584 0.203935 -0.111736
H93   H     H_    0.791551 0.510972 0.231930 0.136856
H94   H     H_    0.824795 0.430804 0.194623 0.229111
H95   H     H_    0.800056 0.485303 0.139001 0.160680
O72   O     O_3   0.902995 0.480364 0.345360 -0.729912
H96   H     H_    0.903799 0.460492 0.386495 0.398227
O73   O     O_3   0.080019 0.649562 0.289694 -0.762637
H97   H     H_    0.101000 0.630278 0.250347 0.327931
O74   O     O_3   0.980121 0.883943 0.236788 -0.601393
C143  C     C_3   0.031903 0.943568 0.221806 -0.287557
H98   H     H_    0.037659 0.008318 0.256229 0.194734
H99   H     H_    0.999834 0.921796 0.152909 0.140777
H100  H     H_    0.098705 0.954563 0.244054 0.187273
O75   O     O_3   0.194766 0.876114 0.246377 -0.573355
C144  C     C_3   0.262591 0.961799 0.280204 -0.151644
H101  H     H_    0.241334 0.997385 0.249638 0.124890
H102  H     H_    0.319026 0.959100 0.276482 0.220920
H103  H     H_    0.287004 0.001590 0.349213 0.151324
O76   O     O_3   0.245032 0.865719 0.122703 -0.746636
H104  H     H_    0.250630 0.855977 0.071648 0.340402
O77   O     O_3   0.942364 0.708193 0.901521 -0.602752
C145  C     C_3   0.950951 0.771460 0.876941 -0.144087
H105  H     H_    0.003370 0.785222 0.861420 0.248725
H106  H     H_    0.962750 0.833824 0.926671 0.129914
H107  H     H_    0.888995 0.744800 0.818724 0.243052
O78   O     O_3   0.880877 0.919934 0.642044 -0.772198
H108  H     H_    0.860643 0.943216 0.680786 0.303408
O79   O     O_3   0.892579 0.689828 0.013662 -0.580818
C146  C     C_3   0.852052 0.730124 0.048742 -0.131568
H109  H     H_    0.780888 0.691496 0.001933 0.207929
H110  H     H_    0.874223 0.798064 0.061002 0.114137
H111  H     H_    0.858103 0.726341 0.105860 0.246884
O80   O     O_3   0.376740 0.490489 0.167428 -0.722769
H112  H     H_    0.375574 0.541069 0.205139 0.341023
O81   O     O_3   0.324563 0.596329 0.103823 -0.688814
H113  H     H_    0.384272 0.620909 0.150658 0.350652
O82   O     O_3   0.204598 0.513582 0.931461 -0.565547
C147  C     C_3   0.275483 0.552203 0.921555 -0.342068
H114  H     H_    0.293173 0.503737 0.891241 0.119078
H115  H     H_    0.257187 0.577910 0.879192 0.156524
H116  H     H_    0.332688 0.610141 0.983521 0.238750
O83   O     O_3   0.308808 0.316817 0.051621 -0.547105
C148  C     C_3   0.378592 0.323621 0.037708 -0.236079
H117  H     H_    0.433944 0.392870 0.077391 0.166148
H118  H     H_    0.356927 0.297448 0.968569 0.140618
H119  H     H_    0.402950 0.283276 0.057129 0.190122
O84   O     O_3   0.158426 0.263234 0.761185 -0.774641
H120  H     H_    0.208307 0.323845 0.804593 0.330506
O85   O     O_3   0.847621 0.238272 0.739771 -0.589279
C149  C     C_3   0.808661 0.170051 0.753090 -0.308074
H121  H     H_    0.752789 0.171983 0.758821 0.189594
H122  H     H_    0.854784 0.178219 0.813390 0.194250
H123  H     H_    0.782569 0.104423 0.697806 0.144548
O86   O     O_3   0.812127 0.242677 0.578810 -0.503982
C150  C     C_3   0.731910 0.231911 0.573025 -0.123578
H124  H     H_    0.699802 0.178538 0.583683 0.115850
H125  H     H_    0.686271 0.219661 0.510304 0.192567
H126  H     H_    0.743481 0.292725 0.623212 0.164241
O87   O     O_3   0.718234 0.137658 0.401140 -0.740666
H127  H     H_    0.678124 0.090126 0.340130 0.374943
O88   O     O_3   0.589770 0.608136 0.351450 -0.717343
H128  H     H_    0.592619 0.593355 0.298816 0.346478
O89   O     O_3   0.656368 0.952994 0.327697 -0.598378
C151  C     C_3   0.702525 0.933509 0.287238 -0.200543
H129  H     H_    0.737180 0.902289 0.312428 0.179959
H130  H     H_    0.749587 0.993660 0.294203 0.125295
H131  H     H_    0.655149 0.885816 0.217720 0.206992
O90   O     O_3   0.698226 0.892048 0.439778 -0.596673
C152  C     C_3   0.620559 0.870232 0.441472 -0.052272
H132  H     H_    0.568858 0.858603 0.382403 0.258972
H133  H     H_    0.627842 0.922126 0.498033 0.126562
H134  H     H_    0.600585 0.809425 0.444572 0.225843
O91   O     O_3   0.588099 0.731828 0.291721 -0.707698
H135  H     H_    0.547665 0.737348 0.248014 0.385870
O92   O     O_3   0.559030 0.681585 0.125441 -0.583798
C153  C     C_3   0.499432 0.590356 0.081327 -0.291150
H136  H     H_    0.484948 0.570628 0.124861 0.185980
H137  H     H_    0.523959 0.550309 0.050578 0.200316
H138  H     H_    0.437630 0.574647 0.029952 0.183007

loop_
_geom_bond_atom_site_label_1
_geom_bond_atom_site_label_2
_ccdc_geom_bond_type
C125  H27   S    
C134  H62   S    
O84   H120  S    
C82   O54   S    
O7    Zn3   S    
C19   C20   A    
O24   Zn3   S    
C114  C115  A    
C90   C95   A    
O68   C141  S    
C138  H78   S    
O26   H6    S    
C41   O33   S    
C113  C114  A    
C92   O64   S    
O17   Zn6   S    
C125  H28   S    
C106  C107  A    
C133  H59   S    
O59   H71   S    
C108  C109  A    
C34   C35   A    
C73   C74   A    
C37   C42   A    
O34   H20   S    
C29   C88   S    
C16   O85   S    
O71   C142  S    
O47   C129  S    
C77   C88   A    
O75   C144  S    
O40   H30   S    
C126  H35   S    
C78   O56   S    
C1    O12   A    
C133  H60   S    
C59   C60   A    
C31   O92   S    
C21   C22   A    
O48   H46   S    
C148  H118  S    
C55   C68   S    
C121  H9    S    
O41   H31   S    
C51   C52   A    
C139  H82   S    
O23   Zn2   S    
C11   O80   S    
C6    C11   A    
O43   C126  S    
C72   C73   A    
O15   Zn6   S    
O45   C127  S    
C99   C110  A    
C104  O16   A    
C32   C34   A    
C153  H137  S    
C37   C38   A    
C121  H10   S    
C118  O75   S    
O83   C148  S    
O69   H91   S    
C145  H105  S    
C50   O37   S    
C123  H17   S    
O1    Zn1   S    
C59   C69   S    
C106  O70   S    
C28   C33   S    
C87   C89   A    
O6    Zn4   S    
O8    Zn4   S    
C91   O63   S    
C153  H138  S    
C52   O39   S    
O91   H135  S    
C39   C40   A    
C66   C77   A    
C78   C79   A    
C4    C5    A    
C100  O8    A    
C1    C48   S    
C6    C7    A    
C101  O9    A    
C30   C36   A    
C112  O73   S    
C13   O78   S    
O28   C121  S    
C150  H124  S    
C30   C31   A    
C98   O5    A    
C147  H114  S    
C9    H3    S    
C130  H49   S    
C88   C99   A    
C45   C102  S    
C20   C21   A    
O86   C150  S    
O25   H5    S    
C22   C23   A    
C96   C116  S    
O90   C152  S    
C151  H131  S    
O88   H128  S    
C139  H81   S    
C10   O83   S    
C7    O82   S    
O32   H18   S    
C7    C8    A    
C122  H12   S    
C85   C86   A    
O54   C133  S    
C35   O28   S    
C80   O58   S    
O18   Zn1   S    
C76   C78   A    
C137  H72   S    
C109  C111  A    
C38   C39   A    
C123  H15   S    
C136  H70   S    
C127  H38   S    
C15   C25   S    
C115  C116  A    
O35   H21   S    
C57   O42   S    
C144  H102  S    
C151  H129  S    
O3    Zn3   S    
O2    Zn4   S    
O4    Zn4   S    
C73   O52   S    
C63   C69   A    
O57   H67   S    
C107  C108  A    
C71   O50   S    
C76   O55   S    
C9    C10   A    
O21   Zn2   S    
C34   O27   S    
O49   C130  S    
C61   O45   S    
C97   O4    A    
C149  H121  S    
C14   C98   S    
C151  H130  S    
C83   C89   A    
C141  H89   S    
C63   O47   S    
O62   C138  S    
C51   O38   S    
C150  H126  S    
C76   C82   A    
C91   C92   A    
C68   C69   A    
C152  H134  S    
C147  H116  S    
C50   C56   A    
C102  O13   A    
C143  H99   S    
C140  H83   S    
C83   C84   A    
C108  O71   S    
C132  H56   S    
C17   C18   A    
C96   O2    A    
C43   C45   A    
C39   C49   S    
O38   C125  S    
C142  H94   S    
C84   C104  S    
C3    C4    A    
C6    O81   S    
O85   C149  S    
C52   C53   A    
C32   O26   S    
O37   H25   S    
C93   O65   S    
C104  O17   A    
C135  H64   S    
C2    C66   A    
C37   O30   S    
C136  H68   S    
C53   C54   A    
C138  H77   S    
O16   Zn5   S    
C131  H52   S    
C5    C118  A    
C19   O86   S    
O36   C124  S    
C71   C72   A    
C128  H42   S    
C85   C95   S    
C57   C58   A    
O29   C122  S    
O51   H53   S    
C137  H73   S    
C86   O61   S    
C61   C62   A    
C79   C89   S    
C10   C11   A    
C63   C64   A    
C12   O84   S    
C146  H111  S    
O42   H32   S    
C110  O68   S    
C46   C56   S    
C70   C75   A    
C126  H34   S    
O61   H75   S    
C83   O60   S    
C149  H123  S    
O56   C135  S    
C137  H74   S    
C41   C42   A    
C35   C36   A    
C145  H107  S    
O30   H14   S    
C115  O74   S    
C129  H43   S    
C148  H117  S    
C152  H132  S    
C45   C46   A    
C33   O19   A    
C26   C27   A    
C121  H8    S    
C13   C29   A    
C28   C29   A    
O5    Zn3   S    
C140  H85   S    
C112  C117  A    
C58   O43   S    
C132  H54   S    
C90   O62   S    
O66   H86   S    
C62   O41   S    
C124  H24   S    
C16   C17   A    
C65   C67   A    
O50   C131  S    
C70   C71   A    
C44   C87   S    
C105  O69   S    
C125  H26   S    
C105  C111  A    
C134  H63   S    
O72   H96   S    
C135  H66   S    
C96   O24   A    
C24   C97   S    
C4    O79   S    
C84   C85   A    
C44   O21   A    
C103  O14   A    
C128  H40   S    
C86   C87   A    
C55   O22   A    
C58   C59   A    
C101  O10   A    
C8    C18   S    
C126  H33   S    
C60   C61   A    
C27   O88   S    
O77   C145  S    
C143  H100  S    
O63   H79   S    
O22   Zn1   S    
C146  H109  S    
C98   O6    A    
C147  H115  S    
O52   C132  S    
C130  H48   S    
O14   Zn5   S    
C26   C36   S    
C48   C49   A    
C99   O57   S    
C111  O67   S    
C129  H45   S    
O82   C147  S    
C148  H119  S    
O33   H19   S    
O92   C153  S    
C46   C47   A    
C2    C110  A    
C21   O89   S    
C24   C26   A    
C47   O35   S    
C119  O76   S    
C119  C120  A    
C3    O77   S    
C105  C106  A    
C64   C65   A    
C153  H136  S    
C133  H58   S    
C124  H22   S    
C53   H1    S    
C143  H98   S    
C136  H69   S    
C90   C91   A    
O10   Zn6   S    
C102  O11   A    
C92   C93   A    
C131  H51   S    
O13   Zn6   S    
C22   O90   S    
C144  H101  S    
C60   O44   S    
C123  H16   S    
O74   C143  S    
C64   C100  S    
C107  C117  S    
C42   O29   S    
O80   H112  S    
C93   C94   A    
C5    C114  S    
O76   H104  S    
C97   O3    A    
C149  H122  S    
C81   C82   A    
C100  O7    A    
C57   C62   A    
O31   C123  S    
C131  H50   S    
C141  H90   S    
O55   C134  S    
O9    Zn5   S    
O65   C140  S    
C103  C113  S    
C1    O1    A    
C150  H125  S    
C77   O46   S    
C152  H133  S    
C15   C16   A    
C81   O59   S    
C54   O40   S    
C116  C117  A    
C17   C101  S    
C30   O91   S    
C118  C119  A    
O19   Zn2   S    
O27   H7    S    
C8    C9    A    
C132  H55   S    
C72   O51   S    
O39   H29   S    
C122  H11   S    
C109  O72   S    
C67   C68   A    
C112  C113  A    
C120  H2    S    
C50   C51   A    
C122  H13   S    
C54   C56   A    
C74   C75   A    
C135  H65   S    
O58   C136  S    
O67   H87   S    
C127  H37   S    
C43   C49   A    
C38   O31   S    
C142  H93   S    
C138  H76   S    
C13   C24   A    
C144  H103  S    
C70   O49   S    
O44   H36   S    
O20   Zn1   S    
C103  O15   A    
O78   H108  S    
C128  H41   S    
C55   O23   A    
C47   C48   A    
C44   O20   A    
O60   C137  S    
C94   C95   A    
C2    O25   S    
C40   O32   S    
C40   C41   A    
C146  H110  S    
C12   C14   A    
O64   C139  S    
C20   O87   S    
C134  H61   S    
C27   C28   A    
O70   H92   S    
O87   H127  S    
C141  H88   S    
C14   C15   A    
C31   C32   A    
C80   C81   A    
C127  H39   S    
C129  H44   S    
O12   Zn2   S    
O53   H57   S    
C23   H4    S    
C33   O18   A    
C43   O34   S    
O11   Zn5   S    
C139  H80   S    
C66   O36   S    
C140  H84   S    
O89   C151  S    
C74   O53   S    
O46   C128  S    
C67   O48   S    
C23   C25   A    
C94   O66   S    
O73   H97   S    
C19   C25   A    
C124  H23   S    
C3    C120  A    
C79   C80   A    
C145  H106  S    
O79   C146  S    
C142  H95   S    
C12   C18   A    
C130  H47   S    
O81   H113  S    
C65   C75   S    
