data_mof_unit_18227.cif
_audit_creation_date              2012-12-11T15:23:35-0500
_audit_creation_method            fapswitch 2.2
_symmetry_space_group_name_H-M    P1
_symmetry_Int_Tables_number       1
_space_group_crystal_system       triclinic
_cell_length_a                    17.359224
_cell_length_b                    24.382728
_cell_length_c                    15.122797
_cell_angle_alpha                 89.622024
_cell_angle_beta                  125.790641
_cell_angle_gamma                 90.916301
_cell_volume                      5191.50002465

loop_
_atom_site_label
_atom_site_type_symbol
_atom_type_description
_atom_site_fract_x
_atom_site_fract_y
_atom_site_fract_z
_atom_type_partial_charge
C1    C     C_R   0.310502 0.374965 0.911662 -0.090856
C2    C     C_R   0.639253 0.346520 0.090652 -0.088643
C3    C     C_R   0.810502 0.874965 0.911661 -0.090834
C4    C     C_R   0.139254 0.846520 0.090652 -0.088676
C5    C     C_R   0.325300 0.650246 0.998159 0.061445
C6    C     C_R   0.613571 0.685250 0.001185 0.087266
C7    C     C_R   0.825292 0.150240 0.998158 0.061431
C8    C     C_R   0.113570 0.185250 0.001186 0.087274
C9    C     C_R   0.562374 0.501596 0.362141 0.129083
C10   C     C_R   0.531177 0.504470 0.706359 0.063501
C11   C     C_R   0.062366 0.001595 0.362138 0.129071
C12   C     C_R   0.031204 0.004470 0.706385 0.063535
C13   C     C_R   0.188822 0.500017 0.643883 0.057584
C14   C     C_R   0.824184 0.503304 0.272511 0.072530
C15   C     C_R   0.688822 0.000016 0.643883 0.057586
C16   C     C_R   0.324184 0.003303 0.272513 0.072504
C17   C     C_2   0.985261 0.470177 0.351602 -0.040452
C18   C     C_2   0.082605 0.474368 0.450866 -0.070283
C19   C     C_2   0.485260 0.970174 0.351604 -0.040448
C20   C     C_2   0.582604 0.974366 0.450866 -0.070284
C21   C     C_2   0.925684 0.510999 0.326860 -0.181836
C22   C     C_2   0.099545 0.502056 0.537294 -0.134233
C23   C     C_2   0.425684 0.010997 0.326861 -0.181829
C24   C     C_2   0.599546 0.002055 0.537294 -0.134235
C25   C     C_R   0.171062 0.682373 0.942397 -0.191450
C26   C     C_R   0.717779 0.763880 0.104107 -0.159428
C27   C     C_R   0.671054 0.182369 0.942395 -0.191443
C28   C     C_R   0.217779 0.263878 0.104102 -0.159471
C29   C     C_R   0.616306 0.222000 0.945199 -0.142972
C30   C     C_R   0.268302 0.308325 0.105498 -0.149456
C31   C     C_R   0.116311 0.722002 0.945201 -0.142968
C32   C     C_R   0.768301 0.808328 0.105502 -0.149453
C33   C     C_R   0.661077 0.269294 0.006849 0.071945
C34   C     C_R   0.241669 0.332342 0.007182 0.077733
C35   C     C_R   0.161079 0.769296 0.006847 0.071942
C36   C     C_R   0.741666 0.832346 0.007184 0.077734
C37   C     C_R   0.758772 0.278248 0.062775 -0.188741
C38   C     C_R   0.151993 0.320072 0.911710 -0.197602
C39   C     C_R   0.258773 0.778253 0.062769 -0.188747
C40   C     C_R   0.651988 0.820075 0.911707 -0.197590
C41   C     C_R   0.313059 0.740037 0.057833 0.337682
C42   C     C_R   0.598224 0.776636 0.910622 0.339097
C43   C     C_R   0.813056 0.240031 0.057839 0.337674
C44   C     C_R   0.098226 0.276634 0.910627 0.339091
C45   C     C_R   0.407879 0.630811 0.090368 -0.059337
C46   C     C_R   0.557627 0.651845 0.910742 -0.072212
C47   C     C_R   0.907874 0.130806 0.090367 -0.059329
C48   C     C_R   0.057625 0.151846 0.910742 -0.072249
C49   C     C_R   0.268993 0.691424 0.999387 0.009503
C50   C     C_R   0.638519 0.743564 0.004799 0.050204
C51   C     C_R   0.768987 0.191418 0.999388 0.009506
C52   C     C_R   0.138520 0.243563 0.004802 0.050212
C53   C     C_R   0.630027 0.524295 0.641841 0.293358
C54   C     C_R   0.638704 0.522432 0.555894 0.264161
C55   C     C_R   0.130063 0.024269 0.641871 0.293332
C56   C     C_R   0.138726 0.022409 0.555911 0.264159
C57   C     C_R   0.560768 0.503140 0.454404 -0.038856
C58   C     C_R   0.542846 0.508538 0.621227 -0.052742
C59   C     C_R   0.060766 0.003140 0.454406 -0.038809
C60   C     C_R   0.042871 0.008537 0.621250 -0.052777
C61   C     C_R   0.474104 0.489307 0.434982 -0.207878
C62   C     C_R   0.464514 0.493176 0.517962 -0.186713
C63   C     C_R   0.974093 0.989325 0.434981 -0.207865
C64   C     C_R   0.964519 0.993193 0.517974 -0.186689
C65   C     C_R   0.551953 0.455101 0.304647 0.180473
C66   C     C_R   0.508105 0.456476 0.736361 0.237850
C67   C     C_R   0.051948 0.955100 0.304645 0.180455
C68   C     C_R   0.008120 0.956476 0.736376 0.237850
C69   C     C_R   0.239843 0.545441 0.704221 -0.206368
C70   C     C_R   0.766176 0.547265 0.245022 -0.151885
C71   C     C_R   0.739843 0.045441 0.704220 -0.206367
C72   C     C_R   0.266177 0.047265 0.245023 -0.151892
C73   C     C_R   0.544576 0.546276 0.298794 -0.163850
C74   C     C_R   0.508492 0.548270 0.741676 -0.125519
C75   C     C_R   0.044571 0.046275 0.298793 -0.163881
C76   C     C_R   0.008509 0.048270 0.741692 -0.125557
C77   C     C_R   0.240667 0.454130 0.700133 0.297220
C78   C     C_R   0.770168 0.455670 0.253396 0.306252
C79   C     C_R   0.740667 0.954130 0.700133 0.297215
C80   C     C_R   0.270167 0.955669 0.253399 0.306329
C81   C     C_R   0.317255 0.632544 0.906527 -0.079910
C82   C     C_R   0.644051 0.652674 0.091184 -0.119201
C83   C     C_R   0.817250 0.132540 0.906527 -0.079902
C84   C     C_R   0.144051 0.152673 0.091185 -0.119196
C85   C     C_R   0.402624 0.376202 0.092737 -0.142503
C86   C     C_R   0.549686 0.344968 0.912168 -0.120712
C87   C     C_R   0.902624 0.876204 0.092736 -0.142502
C88   C     C_R   0.049684 0.844968 0.912167 -0.120709
C89   C     C_R   0.313185 0.362402 0.003217 0.057737
C90   C     C_R   0.607667 0.314100 0.002976 0.029042
C91   C     C_R   0.813184 0.862403 0.003217 0.057731
C92   C     C_R   0.107667 0.814100 0.002976 0.029059
H1    H     H_    0.250000 0.369355 0.829422 0.162015
H2    H     H_    0.670977 0.331349 0.171882 0.164545
H3    H     H_    0.749996 0.869358 0.829420 0.162010
H4    H     H_    0.170982 0.831350 0.171883 0.164544
H5    H     H_    0.954054 0.551769 0.359905 0.133544
H6    H     H_    0.045179 0.526038 0.532672 0.149661
H7    H     H_    0.454055 0.051768 0.359904 0.133544
H8    H     H_    0.545180 0.026038 0.532673 0.149664
H9    H     H_    0.137663 0.644960 0.896177 0.155338
H10   H     H_    0.748205 0.742445 0.180195 0.128848
H11   H     H_    0.637653 0.144956 0.896171 0.155337
H12   H     H_    0.248195 0.242447 0.180188 0.128861
H13   H     H_    0.540107 0.216193 0.899591 0.151041
H14   H     H_    0.333791 0.318860 0.182778 0.116619
H15   H     H_    0.040113 0.716193 0.899595 0.151047
H16   H     H_    0.833798 0.818856 0.182782 0.116612
H17   H     H_    0.792210 0.316443 0.105763 0.184752
H18   H     H_    0.125488 0.342298 0.837103 0.171744
H19   H     H_    0.292208 0.816448 0.105754 0.184743
H20   H     H_    0.625483 0.842300 0.837098 0.171746
H21   H     H_    0.413587 0.476229 0.354959 0.146628
H22   H     H_    0.396881 0.482535 0.502836 0.152696
H23   H     H_    0.913560 0.976263 0.354949 0.146625
H24   H     H_    0.896880 0.982566 0.502847 0.152690
H25   H     H_    0.436770 0.639461 0.174439 0.128260
H26   H     H_    0.515963 0.663571 0.826437 0.147277
H27   H     H_    0.936762 0.139454 0.174438 0.128258
H28   H     H_    0.015960 0.163573 0.826438 0.147283
H29   H     H_    0.225593 0.587539 0.676847 0.131286
H30   H     H_    0.785837 0.590132 0.252352 0.121371
H31   H     H_    0.725593 0.087539 0.676846 0.131285
H32   H     H_    0.285838 0.090132 0.252352 0.121372
H33   H     H_    0.554563 0.588858 0.323242 0.146726
H34   H     H_    0.510278 0.591094 0.724124 0.140338
H35   H     H_    0.054558 0.088857 0.323243 0.146716
H36   H     H_    0.010299 0.091094 0.724143 0.140328
H37   H     H_    0.263889 0.643445 0.822653 0.111145
H38   H     H_    0.677469 0.666530 0.173930 0.111420
H39   H     H_    0.763884 0.143441 0.822653 0.111143
H40   H     H_    0.177472 0.166528 0.173932 0.111414
H41   H     H_    0.428129 0.373731 0.176418 0.096394
H42   H     H_    0.501798 0.327694 0.832045 0.134032
H43   H     H_    0.928127 0.873736 0.176416 0.096395
H44   H     H_    0.001794 0.827695 0.832044 0.134035
H45   H     H_    0.960522 0.431028 0.309695 0.191871
H46   H     H_    0.137232 0.450036 0.456894 0.172248
H47   H     H_    0.460519 0.931024 0.309699 0.191864
H48   H     H_    0.637230 0.950033 0.456894 0.172252
N1    N     N_R   0.395440 0.396300 0.944370 -0.039731
N2    N     N_R   0.604560 0.396300 0.055630 -0.048722
N3    N     N_R   0.895440 0.896300 0.944370 -0.039732
N4    N     N_R   0.104560 0.896300 0.055630 -0.048728
N5    N     N_R   0.449890 0.602500 0.055780 -0.046524
N6    N     N_R   0.550110 0.602500 0.944220 -0.048588
N7    N     N_R   0.949890 0.102500 0.055780 -0.046520
N8    N     N_R   0.050110 0.102500 0.944220 -0.048586
N9    N     N_R   0.525090 0.470990 0.205640 -0.071674
N10   N     N_R   0.474910 0.470990 0.794360 -0.062619
N11   N     N_R   0.025090 0.970990 0.205640 -0.071680
N12   N     N_R   0.974910 0.970990 0.794360 -0.062621
N13   N     N_R   0.320240 0.527820 0.794510 -0.059247
N14   N     N_R   0.679760 0.527820 0.205490 -0.055917
N15   N     N_R   0.820240 0.027820 0.794510 -0.059246
N16   N     N_R   0.179760 0.027820 0.205490 -0.055920
N17   N     N_R   0.524580 0.527810 0.205160 -0.063972
N18   N     N_R   0.475420 0.527810 0.794840 -0.067704
N19   N     N_R   0.024580 0.027810 0.205160 -0.063967
N20   N     N_R   0.975420 0.027810 0.794840 -0.067701
N21   N     N_R   0.320750 0.470990 0.794990 -0.079625
N22   N     N_R   0.679250 0.470990 0.205010 -0.075638
N23   N     N_R   0.820750 0.970990 0.794990 -0.079626
N24   N     N_R   0.179250 0.970990 0.205010 -0.075637
N25   N     N_R   0.393580 0.602500 0.942610 -0.044886
N26   N     N_R   0.606420 0.602500 0.057390 -0.045116
N27   N     N_R   0.893580 0.102500 0.942610 -0.044884
N28   N     N_R   0.106420 0.102500 0.057390 -0.045115
N29   N     N_R   0.451750 0.396300 0.057540 -0.048222
N30   N     N_R   0.548250 0.396300 0.942460 -0.043200
N31   N     N_R   0.951750 0.896300 0.057540 -0.048225
N32   N     N_R   0.048250 0.896300 0.942460 -0.043201
Ni1   Ni    Ni4+2 0.435420 0.434250 0.870220 0.239522
Ni2   Ni    Ni4+2 0.564580 0.434250 0.129780 0.224458
Ni3   Ni    Ni4+2 0.935420 0.934250 0.870220 0.239523
Ni4   Ni    Ni4+2 0.064580 0.934250 0.129780 0.224465
Ni5   Ni    Ni4+2 0.563400 0.564580 0.128670 0.239703
Ni6   Ni    Ni4+2 0.436600 0.564580 0.871330 0.230514
Ni7   Ni    Ni4+2 0.063400 0.064580 0.128670 0.239700
Ni8   Ni    Ni4+2 0.936600 0.064580 0.871330 0.230514
Br1   Br    Br    0.444090 0.759290 0.123182 -0.526322
Br2   Br    Br    0.470748 0.768026 0.781731 -0.527698
Br3   Br    Br    0.944089 0.259283 0.123194 -0.526332
Br4   Br    Br    0.970748 0.268025 0.781733 -0.527719
Br5   Br    Br    0.735639 0.546381 0.785921 -0.463677
Br6   Br    Br    0.755216 0.544502 0.576269 -0.487069
Br7   Br    Br    0.235713 0.046313 0.785975 -0.463646
Br8   Br    Br    0.255248 0.044445 0.576291 -0.487100
C93   C     C_3   0.591264 0.399425 0.353100 -0.492632
C94   C     C_3   0.693690 0.402763 0.454897 -0.639299
H49   H     H_    0.724599 0.361132 0.476308 0.261053
H50   H     H_    0.737440 0.429752 0.440489 0.281819
H51   H     H_    0.696157 0.418790 0.524992 0.247599
H52   H     H_    0.546088 0.379274 0.374095 0.194753
H53   H     H_    0.590511 0.373589 0.292356 0.213425
C95   C     C_3   0.513544 0.400118 0.699718 -0.433375
C96   C     C_3   0.416956 0.371446 0.631627 -0.813869
H54   H     H_    0.388021 0.366871 0.679556 0.286431
H55   H     H_    0.366575 0.395418 0.557070 0.260657
H56   H     H_    0.424270 0.330103 0.607198 0.256488
H57   H     H_    0.539834 0.403016 0.648308 0.212050
H58   H     H_    0.568250 0.375572 0.769390 0.202866
C97   C     C_3   0.091248 0.899422 0.353088 -0.492527
C98   C     C_3   0.193649 0.902754 0.454944 -0.639204
H59   H     H_    0.224591 0.861130 0.476285 0.261055
H60   H     H_    0.237420 0.929804 0.440660 0.281828
H61   H     H_    0.196042 0.918705 0.525043 0.247511
H62   H     H_    0.046029 0.879258 0.374013 0.194693
H63   H     H_    0.090537 0.873597 0.292357 0.213417
C99   C     C_3   0.013557 0.900118 0.699728 -0.433358
C100  C     C_3   0.916965 0.871450 0.631626 -0.813855
H64   H     H_    0.888023 0.866878 0.679548 0.286432
H65   H     H_    0.866592 0.895423 0.557066 0.260653
H66   H     H_    0.924278 0.830105 0.607200 0.256487
H67   H     H_    0.039851 0.903016 0.648323 0.212041
H68   H     H_    0.068257 0.875569 0.769398 0.202864
Br9   Br    Br    0.215290 0.381714 0.638636 -0.592721
Br10  Br    Br    0.821942 0.387334 0.326838 -0.583142
Br11  Br    Br    0.715293 0.881713 0.638637 -0.592708
Br12  Br    Br    0.321938 0.887336 0.326851 -0.583082

loop_
_geom_bond_atom_site_label_1
_geom_bond_atom_site_label_2
_ccdc_geom_bond_type
C25   C31   A    
C23   H7    S    
C55   C56   A    
N12   N20   A    
C26   C32   A    
C94   H49   S    
C6    C82   A    
C87   C91   A    
C81   N25   A    
C27   C29   A    
C4    N4    A    
C7    C83   A    
C19   C20   S    
C16   C72   A    
N3    Ni3   S    
C97   C98   S    
C68   C99   S    
C54   C57   A    
C98   H60   S    
C48   H28   S    
N5    N25   A    
C53   C54   A    
C42   Br2   S    
C38   C44   A    
C12   C68   A    
N6    Ni6   S    
C69   H29   S    
C45   N5    A    
C87   N31   A    
C32   C36   A    
C14   C21   S    
C71   H31   S    
C10   C58   S    
C62   H22   S    
C26   C50   A    
N16   Ni7   S    
C99   H68   S    
C70   H30   S    
C96   H54   S    
C75   N19   A    
C99   H67   S    
C73   N17   A    
N21   Ni1   S    
C88   N32   A    
C46   H26   S    
C3    C91   A    
N9    Ni2   S    
C27   H11   S    
C96   H55   S    
C53   Br5   S    
N20   Ni8   S    
C94   H51   S    
C5    C81   A    
C4    H4    S    
N12   Ni3   S    
C79   Br11  S    
C93   H52   S    
C86   H42   S    
C80   N24   A    
C88   C92   A    
C29   C33   A    
C11   C67   A    
C68   N12   A    
C25   C49   A    
C1    C89   A    
N29   Ni2   S    
C95   H57   S    
C55   Br7   S    
C38   H18   S    
C6    C46   A    
C8    C52   S    
C37   H17   S    
N32   Ni3   S    
C28   C52   A    
N2    N30   A    
C63   H23   S    
C35   C92   S    
C44   C52   A    
C47   H27   S    
N27   Ni8   S    
N6    N26   A    
N23   Ni3   S    
C72   N16   A    
N8    Ni8   S    
C24   H8    S    
C55   C60   A    
C72   H32   S    
N1    Ni1   S    
N25   Ni6   S    
C14   C70   A    
C5    C49   S    
C18   H46   S    
C93   C94   S    
C9    C73   A    
C11   C59   S    
C41   C49   A    
C27   C51   A    
C13   C77   A    
C10   C66   A    
C77   N21   A    
C47   N7    A    
C30   C34   A    
C67   N11   A    
C56   Br8   S    
C36   C40   A    
C3    N3    A    
C88   H44   S    
C40   H20   S    
C86   C90   A    
C79   N23   A    
C22   H6    S    
C85   C89   A    
C19   C23   D    
C34   C38   A    
C8    C84   A    
C83   N27   A    
C64   H24   S    
C84   H40   S    
C1    H1    S    
C85   N29   A    
C63   C64   A    
N13   N21   A    
C16   C80   A    
N8    N28   A    
C70   N14   A    
C37   C43   A    
C96   H56   S    
C35   C39   A    
C8    C48   A    
C83   H39   S    
C84   N28   A    
C87   H43   S    
C21   H5    S    
C28   H12   S    
C81   H37   S    
C100  H64   S    
C98   H61   S    
C2    H2    S    
C78   Br10  S    
C43   Br3   S    
C71   N15   A    
N4    Ni4   S    
N1    N29   A    
C17   C18   S    
C32   H16   S    
C74   H34   S    
C5    C45   A    
N26   Ni5   S    
N17   Ni5   S    
C6    C50   S    
C74   N18   A    
C57   C61   A    
C41   Br1   S    
C2    N2    A    
N16   N24   A    
N7    N27   A    
C58   C62   A    
C42   C50   A    
C77   Br9   S    
C36   C91   S    
C19   H47   S    
C15   C24   S    
C100  H65   S    
N30   Ni1   S    
C65   C93   S    
C78   N22   A    
C16   C23   S    
C12   C76   A    
C61   H21   S    
C76   H36   S    
C31   C35   A    
C82   H38   S    
C95   H58   S    
N15   Ni8   S    
C33   C37   A    
C82   N26   A    
C45   H25   S    
C44   Br4   S    
N13   Ni6   S    
C76   N20   A    
C94   H50   S    
N11   Ni4   S    
N10   N18   A    
C18   C22   D    
C31   H15   S    
N14   N22   A    
C7    C47   A    
N19   Ni7   S    
C95   C96   S    
C80   Br12  S    
C66   C95   S    
C53   C58   A    
C56   C59   A    
C66   N10   A    
N22   Ni2   S    
C15   C79   A    
N5    Ni5   S    
N28   Ni7   S    
C15   C71   A    
N31   Ni4   S    
N4    N32   A    
C59   C63   A    
C67   C97   S    
C60   C64   A    
N15   N23   A    
C20   H48   S    
C28   C30   A    
N18   Ni6   S    
C34   C89   S    
N3    N31   A    
C11   C75   A    
C33   C90   S    
C26   H10   S    
C93   H53   S    
C10   C74   A    
C25   H9    S    
C46   N6    A    
C13   C69   A    
C86   N30   A    
C43   C51   A    
C73   H33   S    
C48   N8    A    
C39   H19   S    
C3    H3    S    
N11   N19   A    
C13   C22   S    
N24   Ni4   S    
C97   H62   S    
C9    C57   S    
C14   C78   A    
C65   N9    A    
C61   C62   A    
C9    C65   A    
N2    Ni2   S    
C1    N1    A    
C7    C51   S    
C29   H13   S    
C12   C60   S    
N7    Ni7   S    
N10   Ni1   S    
C98   H59   S    
C39   C41   A    
C2    C90   A    
C99   C100  S    
C54   Br6   S    
N14   Ni5   S    
C69   N13   A    
C40   C42   A    
C97   H63   S    
C17   H45   S    
C100  H66   S    
N9    N17   A    
C20   C24   D    
C30   H14   S    
C85   H41   S    
C4    C92   A    
C75   H35   S    
C17   C21   D    
