data_mof_unit_33543.cif
_audit_creation_date              2012-12-11T15:34:49-0500
_audit_creation_method            fapswitch 2.2
_symmetry_space_group_name_H-M    P1
_symmetry_Int_Tables_number       1
_space_group_crystal_system       triclinic
_cell_length_a                    30.754438
_cell_length_b                    7.242312
_cell_length_c                    25.869031
_cell_angle_alpha                 90.001189
_cell_angle_beta                  111.713168
_cell_angle_gamma                 90.001696
_cell_volume                      5353.07265745

loop_
_atom_site_label
_atom_site_type_symbol
_atom_type_description
_atom_site_fract_x
_atom_site_fract_y
_atom_site_fract_z
_atom_type_partial_charge
O1    O     O_R   0.295360 0.592990 0.320420 -0.537073
O2    O     O_R   0.704640 0.407010 0.679580 -0.542213
O3    O     O_R   0.204640 0.092990 0.179580 -0.537082
O4    O     O_R   0.795360 0.907010 0.820420 -0.542197
O5    O     O_R   0.294060 0.265620 0.213230 -0.514972
O6    O     O_R   0.705940 0.734380 0.786770 -0.515375
O7    O     O_R   0.205940 0.765620 0.286770 -0.514955
O8    O     O_R   0.794060 0.234380 0.713230 -0.515378
C1    C     C_R   0.304648 0.432318 0.200133 0.722268
C2    C     C_R   0.695356 0.567679 0.799870 0.740032
C3    C     C_R   0.195351 0.932316 0.299867 0.722249
C4    C     C_R   0.804645 0.067681 0.700132 0.740065
O9    O     O_R   0.300850 0.263360 0.322080 -0.535065
O10   O     O_R   0.699150 0.736640 0.677920 -0.532072
O11   O     O_R   0.199150 0.763360 0.177920 -0.535072
O12   O     O_R   0.800850 0.236640 0.822080 -0.532109
O13   O     O_R   0.211480 0.091820 0.289210 -0.545952
O14   O     O_R   0.788520 0.908180 0.710790 -0.548123
O15   O     O_R   0.288520 0.591820 0.210790 -0.545950
O16   O     O_R   0.711480 0.408180 0.789210 -0.548127
C5    C     C_R   0.313212 0.431582 0.343038 0.685830
C6    C     C_R   0.686844 0.568405 0.656931 0.733256
C7    C     C_R   0.186787 0.931573 0.156962 0.685811
C8    C     C_R   0.813156 0.068413 0.843069 0.733275
O17   O     O_3   0.220670 0.426670 0.239090 -0.371842
O18   O     O_3   0.779330 0.573330 0.760910 -0.375109
O19   O     O_3   0.279330 0.926670 0.260910 -0.371839
O20   O     O_3   0.720670 0.073330 0.739090 -0.375105
V1    V     V_3+5 0.255440 0.152290 0.252020 1.442300
V2    V     V_3+5 0.744560 0.847710 0.747980 1.459612
V3    V     V_3+5 0.244560 0.652290 0.247980 1.442313
V4    V     V_3+5 0.755440 0.347710 0.752020 1.459561
C9    C     C_R   0.850804 0.062053 0.898593 -0.027049
C10   C     C_R   0.149026 0.937353 0.101481 -0.073811
C11   C     C_R   0.649198 0.562007 0.601407 -0.027025
C12   C     C_R   0.350972 0.437400 0.398518 -0.073789
C13   C     C_R   0.874308 0.125330 0.996635 -0.151602
C14   C     C_R   0.124958 0.864827 0.003911 -0.162694
C15   C     C_R   0.625713 0.624895 0.503347 -0.151596
C16   C     C_R   0.375022 0.365242 0.496108 -0.162678
C17   C     C_R   0.839348 0.102764 0.944638 -0.233653
C18   C     C_R   0.160062 0.887164 0.055802 -0.199456
C19   C     C_R   0.660667 0.602436 0.555354 -0.233665
C20   C     C_R   0.339925 0.387465 0.444208 -0.199477
C21   C     C_R   0.898047 0.034240 0.904909 0.139063
C22   C     C_R   0.101844 0.973587 0.094691 0.130285
C23   C     C_R   0.601949 0.534370 0.595093 0.139062
C24   C     C_R   0.398160 0.473490 0.405304 0.130285
C25   C     C_R   0.934231 0.034530 0.959845 0.038976
C26   C     C_R   0.065630 0.969525 0.040030 0.084876
C27   C     C_R   0.565770 0.534519 0.540154 0.038982
C28   C     C_R   0.434369 0.469562 0.459969 0.084884
C29   C     C_R   0.921336 0.096687 0.004313 0.109738
C30   C     C_R   0.078152 0.900317 0.995983 0.092010
C31   C     C_R   0.578680 0.596401 0.495671 0.109749
C32   C     C_R   0.421833 0.400610 0.504034 0.092013
C33   C     C_R   0.982519 0.982949 0.972941 0.046444
C34   C     C_R   0.017320 0.021442 0.027094 0.072080
C35   C     C_R   0.517476 0.483040 0.527066 0.046448
C36   C     C_R   0.482685 0.521380 0.472896 0.072088
C37   C     C_R   0.002592 0.114896 0.065515 -0.144002
C38   C     C_R   0.996836 0.885565 0.934974 -0.198672
C39   C     C_R   0.497430 0.614593 0.434450 -0.144014
C40   C     C_R   0.503143 0.385892 0.565061 -0.198680
C41   C     C_R   0.955560 0.140241 0.055711 -0.201456
C42   C     C_R   0.043697 0.855764 0.944849 -0.184047
C43   C     C_R   0.544466 0.639821 0.444255 -0.201466
C44   C     C_R   0.456278 0.356193 0.555185 -0.184047
H1    H     H_    0.945955 0.202327 0.088132 0.132341
H2    H     H_    0.052938 0.789322 0.912756 0.130375
H3    H     H_    0.554083 0.701708 0.411816 0.132337
H4    H     H_    0.447026 0.289941 0.587297 0.130375
H5    H     H_    0.195908 0.856089 0.060965 0.119516
H6    H     H_    0.803263 0.127552 0.939669 0.118578
H7    H     H_    0.304072 0.356508 0.439049 0.119520
H8    H     H_    0.696757 0.627083 0.560320 0.118580
H9    H     H_    0.864554 0.168486 0.031000 0.128801
H10   H     H_    0.134392 0.815583 0.969881 0.127923
H11   H     H_    0.635478 0.667835 0.468972 0.128800
H12   H     H_    0.365577 0.316197 0.530151 0.127925
H13   H     H_    0.026526 0.174189 0.103415 0.176392
H14   H     H_    0.972371 0.826557 0.897450 0.140618
H15   H     H_    0.473506 0.673780 0.396527 0.176398
H16   H     H_    0.527599 0.326992 0.602607 0.140615
C45   C     C_R   0.072141 0.831686 0.457685 0.578218
C46   C     C_R   0.927943 0.168510 0.542451 0.578829
C47   C     C_R   0.427866 0.331657 0.042327 0.578246
C48   C     C_R   0.572063 0.668512 0.957559 0.578839
N1    N     N_R   0.072843 0.975187 0.423219 -0.551738
N2    N     N_R   0.927213 0.024937 0.576879 -0.551644
N3    N     N_R   0.427161 0.475169 0.076790 -0.551761
N4    N     N_R   0.572793 0.524937 0.923131 -0.551651
C49   C     C_R   0.045279 0.128394 0.418606 0.582820
C50   C     C_R   0.954756 0.871688 0.581471 0.581461
C51   C     C_R   0.454723 0.628387 0.081401 0.582833
C52   C     C_R   0.545248 0.371683 0.918537 0.581461
C53   C     C_R   0.015964 0.141795 0.449369 -0.028547
C54   C     C_R   0.984090 0.858331 0.550732 -0.028074
C55   C     C_R   0.484040 0.641787 0.050641 -0.028567
C56   C     C_R   0.515914 0.358321 0.949276 -0.028082
C57   C     C_R   0.014758 0.995057 0.484523 -0.018304
C58   C     C_R   0.985309 0.005098 0.515592 -0.018275
C59   C     C_R   0.485248 0.495044 0.015487 -0.018297
C60   C     C_R   0.514697 0.505090 0.984418 -0.018269
C61   C     C_R   0.042932 0.838314 0.488693 -0.032401
C62   C     C_R   0.957143 0.161865 0.511433 -0.032885
C63   C     C_R   0.457073 0.338292 0.011318 -0.032426
C64   C     C_R   0.542863 0.661863 0.988577 -0.032897
C65   C     C_R   0.987720 0.297788 0.445606 -0.149380
C66   C     C_R   0.012339 0.702350 0.554501 -0.150060
C67   C     C_R   0.512286 0.797785 0.054406 -0.149377
C68   C     C_R   0.487665 0.202334 0.945507 -0.150054
C69   C     C_R   0.958666 0.307653 0.476227 -0.156086
C70   C     C_R   0.041409 0.692523 0.523898 -0.156437
C71   C     C_R   0.541341 0.807653 0.023785 -0.156082
C72   C     C_R   0.458596 0.192501 0.976110 -0.156436
O21   O     O_2   0.100017 0.683646 0.462538 -0.522216
O22   O     O_2   0.900102 0.316630 0.537650 -0.521850
O23   O     O_2   0.399995 0.183601 0.037482 -0.522175
O24   O     O_2   0.599903 0.816640 0.962360 -0.521836
O25   O     O_2   0.045734 0.266705 0.383865 -0.524588
O26   O     O_2   0.954257 0.733290 0.616165 -0.525433
O27   O     O_2   0.454263 0.766709 0.116138 -0.524547
O28   O     O_2   0.545748 0.233282 0.883843 -0.525422
H17   H     H_    0.988030 0.413117 0.419084 0.171193
H18   H     H_    0.012024 0.587008 0.581015 0.170876
H19   H     H_    0.511977 0.913116 0.080928 0.171192
H20   H     H_    0.487979 0.086991 0.918990 0.170873
H21   H     H_    0.937493 0.430217 0.472289 0.172376
H22   H     H_    0.062587 0.569971 0.527844 0.172188
H23   H     H_    0.562514 0.930221 0.027725 0.172374
H24   H     H_    0.437418 0.069944 0.972164 0.172184
C73   C     C_R   0.901653 0.181149 0.646023 -0.144941
C74   C     C_R   0.098504 0.818476 0.354226 -0.137065
C75   C     C_R   0.598341 0.681106 0.853970 -0.144943
C76   C     C_R   0.401528 0.318580 0.145823 -0.137032
H25   H     H_    0.928447 0.284812 0.651802 0.155262
H26   H     H_    0.071813 0.714482 0.348599 0.156033
H27   H     H_    0.571540 0.784735 0.848182 0.155231
H28   H     H_    0.428245 0.214675 0.151485 0.155947
C77   C     C_R   0.872081 0.194224 0.676355 0.155042
C78   C     C_R   0.128070 0.805312 0.323888 0.151742
C79   C     C_R   0.627911 0.694172 0.823634 0.155033
C80   C     C_R   0.371964 0.305437 0.176164 0.151782
C81   C     C_R   0.837288 0.058321 0.669626 -0.043476
C82   C     C_R   0.162719 0.941672 0.330393 -0.043604
C83   C     C_R   0.662714 0.558316 0.830378 -0.043494
C84   C     C_R   0.337281 0.441676 0.169609 -0.043610
C85   C     C_R   0.833519 0.910948 0.632708 -0.276159
C86   C     C_R   0.166369 0.089480 0.367133 -0.271118
C87   C     C_R   0.666495 0.410991 0.867313 -0.276141
C88   C     C_R   0.333598 0.589365 0.132821 -0.271082
H29   H     H_    0.807206 0.804956 0.626467 0.142273
H30   H     H_    0.192577 0.195807 0.373222 0.143696
H31   H     H_    0.692818 0.305038 0.873566 0.142258
H32   H     H_    0.307363 0.695597 0.126696 0.143669
C89   C     C_R   0.862804 0.900316 0.602352 -0.092608
C90   C     C_R   0.137111 0.100138 0.397522 -0.094372
C91   C     C_R   0.637212 0.400360 0.897671 -0.092589
C92   C     C_R   0.362860 0.600019 0.102437 -0.094320
H33   H     H_    0.858531 0.787194 0.573510 0.156559
H34   H     H_    0.141309 0.213594 0.426236 0.156704
H35   H     H_    0.641493 0.287274 0.926525 0.156535
H36   H     H_    0.358641 0.713386 0.073690 0.156647
C93   C     C_R   0.897094 0.035368 0.608606 0.337448
C94   C     C_R   0.102946 0.964708 0.391466 0.336014
C95   C     C_R   0.602911 0.535370 0.891403 0.337466
C96   C     C_R   0.397056 0.464694 0.108539 0.336036
N5    N     N_3   0.090752 0.990089 0.143689 -0.698153
H37   H     H_    0.109528 0.101236 0.167308 0.226872
H38   H     H_    0.101310 0.869547 0.167293 0.238259
N6    N     N_3   0.907967 0.042478 0.854866 -0.694660
H39   H     H_    0.939809 0.108303 0.861480 0.244502
H40   H     H_    0.906002 0.910506 0.837847 0.224867
N7    N     N_3   0.409259 0.489733 0.356304 -0.698173
H41   H     H_    0.390497 0.600839 0.332652 0.226823
H42   H     H_    0.398688 0.369122 0.332736 0.238336
N8    N     N_3   0.592023 0.542907 0.645128 -0.694609
H43   H     H_    0.560186 0.608802 0.638485 0.244503
H44   H     H_    0.593974 0.411018 0.662195 0.224823
N9    N     N_3   0.878366 0.343327 0.714843 -0.637249
H45   H     H_    0.874486 0.467355 0.692880 0.240907
H46   H     H_    0.912656 0.337621 0.743954 0.229944
N10   N     N_3   0.121941 0.655544 0.285654 -0.652846
H47   H     H_    0.087624 0.660295 0.256585 0.227697
H48   H     H_    0.126015 0.531908 0.307844 0.245292
N11   N     N_3   0.621612 0.843217 0.785127 -0.637236
H49   H     H_    0.625484 0.967276 0.807075 0.240915
H50   H     H_    0.587321 0.837441 0.756019 0.229953
N12   N     N_3   0.378135 0.155840 0.214461 -0.652940
H51   H     H_    0.412447 0.160834 0.243534 0.227688
H52   H     H_    0.374105 0.032103 0.192326 0.245332

loop_
_geom_bond_atom_site_label_1
_geom_bond_atom_site_label_2
_ccdc_geom_bond_type
O17   V3    S    
C55   C59   A    
C88   C92   A    
C73   H25   S    
C57   C58   A    
C54   C66   A    
C47   N3    A    
O19   V1    S    
O13   V1    S    
N5    H37   S    
C78   C82   A    
O3    C7    A    
C10   C18   A    
C56   C60   A    
C76   H28   S    
C11   C23   A    
N8    H43   S    
C25   C33   A    
C33   C38   A    
N7    H42   S    
C5    C12   S    
C71   H23   S    
N9    H45   S    
O1    C5    A    
C6    C11   S    
C35   C40   A    
N12   H51   S    
C69   H21   S    
C36   C39   A    
C92   H36   S    
C64   C71   A    
O9    V1    S    
C49   O25   S    
C14   C18   A    
C23   N8    S    
O16   V4    S    
C48   C64   A    
N11   H50   S    
C51   C55   A    
C43   H3    S    
C50   C54   A    
C60   C64   A    
O1    V3    S    
C9    C21   A    
N10   H47   S    
O2    V4    S    
C78   N10   S    
C89   H33   S    
O3    V1    S    
C85   H29   S    
C40   H16   S    
C28   C36   A    
C17   H6    S    
C82   C86   A    
C1    O15   A    
C15   C31   A    
C48   N4    A    
C2    O16   A    
C16   C32   A    
C72   H24   S    
O2    C6    A    
C74   C94   A    
C58   C62   A    
C10   C22   A    
C87   H31   S    
C48   O24   S    
C11   C19   A    
C66   C70   A    
C77   N9    S    
C65   C69   A    
C2    C83   S    
C24   N7    S    
C13   C29   A    
C34   C37   A    
O11   C7    A    
C38   H14   S    
O15   V3    S    
C35   C36   A    
O12   C8    A    
C13   C17   A    
C70   H22   S    
C47   O23   S    
C46   C62   A    
O10   V2    S    
C45   C61   A    
N6    H40   S    
N2    C50   A    
O5    V1    S    
N9    H46   S    
N4    C52   A    
C57   C61   A    
N1    C94   S    
C39   C43   A    
O7    V3    S    
C38   C42   A    
C62   C69   A    
C26   C34   A    
C88   H32   S    
C61   C70   A    
C46   N2    A    
C89   C93   A    
C45   N1    A    
O18   V4    S    
C15   C19   A    
C76   C96   A    
C32   C44   A    
C13   H9    S    
O4    V2    S    
C39   H15   S    
C44   H4    S    
C87   C91   A    
C4    C81   S    
C20   H7    S    
O7    C3    A    
O5    C1    A    
C73   C93   A    
C74   C78   A    
C53   C65   A    
N3    C96   S    
C49   C53   A    
N8    H44   S    
N7    H41   S    
C14   C30   A    
C21   C25   A    
O8    C4    A    
C7    C10   S    
C55   C67   A    
C16   H12   S    
O9    C5    A    
C46   O22   S    
C26   C30   A    
C45   O21   S    
C66   H18   S    
O14   V2    S    
C23   C27   A    
C50   O26   S    
C52   O28   S    
C65   H17   S    
O6    V2    S    
C56   C68   A    
N2    C93   S    
C67   H19   S    
C91   H35   S    
C12   C20   A    
C27   C35   A    
C21   N6    S    
C40   C44   A    
C79   C83   A    
C68   C72   A    
C29   C41   A    
N6    H39   S    
C90   C94   A    
C59   C63   A    
N5    H38   S    
C51   O27   S    
C19   H8    S    
C3    O13   A    
C18   H5    S    
N12   H52   S    
C86   C90   A    
C79   N11   S    
C84   C88   A    
C74   H26   S    
C31   C43   A    
C3    C82   S    
O11   V3    S    
C30   C42   A    
C77   C81   A    
O12   V4    S    
C14   H10   S    
C22   C26   A    
C1    C84   S    
C73   C77   A    
C8    C9    S    
C22   N5    S    
C75   H27   S    
C9    C17   A    
C91   C95   A    
O10   C6    A    
O20   V2    S    
N11   H49   S    
C76   C80   A    
C54   C58   A    
N4    C95   S    
C33   C34   A    
C42   H2    S    
O8    V4    S    
C80   N12   S    
O4    C8    A    
C41   H1    S    
C83   C87   A    
C52   C56   A    
C75   C79   A    
N10   H48   S    
C12   C24   A    
C27   C31   A    
C92   C96   A    
N1    C49   A    
C81   C85   A    
C63   C72   A    
C68   H20   S    
C25   C29   A    
O6    C2    A    
C90   H34   S    
N3    C51   A    
C37   C41   A    
C16   C20   A    
C47   C63   A    
C67   C71   A    
C86   H30   S    
C4    O14   A    
C59   C60   A    
C75   C95   A    
C37   H13   S    
C24   C28   A    
C85   C89   A    
C53   C57   A    
C28   C32   A    
C15   H11   S    
C80   C84   A    
