data_mof_unit_66167.cif
_audit_creation_date              2012-12-10T16:43:49-0500
_audit_creation_method            fapswitch 2.2
_symmetry_space_group_name_H-M    P1
_symmetry_Int_Tables_number       1
_space_group_crystal_system       triclinic
_cell_length_a                    23.690553
_cell_length_b                    31.519083
_cell_length_c                    19.245035
_cell_angle_alpha                 89.999828
_cell_angle_beta                  127.243177
_cell_angle_gamma                 90.000368
_cell_volume                      11439.8665909

loop_
_atom_site_label
_atom_site_type_symbol
_atom_type_description
_atom_site_fract_x
_atom_site_fract_y
_atom_site_fract_z
_atom_type_partial_charge
C1    C     C_R   0.808442 0.191820 0.118527 0.786136
C2    C     C_R   0.191559 0.808179 0.881473 0.786122
C3    C     C_R   0.191560 0.191821 0.881473 0.786121
C4    C     C_R   0.808442 0.808179 0.118526 0.786125
C5    C     C_R   0.308440 0.691821 0.118526 0.786140
C6    C     C_R   0.691559 0.308179 0.881474 0.786120
C7    C     C_R   0.691557 0.691821 0.881473 0.786121
C8    C     C_R   0.308442 0.308179 0.118526 0.786135
C9    C     C_R   0.641968 0.250171 0.000166 0.815427
C10   C     C_R   0.358032 0.749828 0.999834 0.815442
C11   C     C_R   0.358032 0.250171 0.999834 0.815430
C12   C     C_R   0.641968 0.749828 0.000166 0.815426
C13   C     C_R   0.141968 0.750171 0.000165 0.815449
C14   C     C_R   0.858032 0.249829 0.999834 0.815422
C15   C     C_R   0.858032 0.750171 0.999834 0.815430
C16   C     C_R   0.141968 0.249829 0.000166 0.815442
C17   C     C_1   0.581172 0.250514 0.000320 -0.164083
C18   C     C_1   0.418828 0.749486 0.999680 -0.164072
C19   C     C_1   0.418828 0.250514 0.999679 -0.164074
C20   C     C_1   0.581172 0.749486 0.000321 -0.164066
C21   C     C_1   0.081172 0.750514 0.000320 -0.164063
C22   C     C_1   0.918828 0.249486 0.999680 -0.164059
C23   C     C_1   0.918827 0.750514 0.999679 -0.164065
C24   C     C_1   0.081172 0.249486 0.000321 -0.164071
C25   C     C_1   0.530022 0.250651 0.000155 0.006223
C26   C     C_1   0.469978 0.749349 0.999845 0.006244
C27   C     C_1   0.469978 0.250651 0.999844 0.006233
C28   C     C_1   0.530022 0.749349 0.000156 0.006242
C29   C     C_1   0.030022 0.750651 0.000155 0.006249
C30   C     C_1   0.969978 0.249349 0.999845 0.006249
C31   C     C_1   0.969977 0.750651 0.999844 0.006246
C32   C     C_1   0.030022 0.249349 0.000156 0.006243
C33   C     C_2   0.837800 0.097990 0.261513 -0.219069
C34   C     C_2   0.162212 0.902045 0.738564 -0.218768
C35   C     C_2   0.162211 0.097956 0.738561 -0.218761
C36   C     C_2   0.837793 0.902029 0.261469 -0.218902
C37   C     C_2   0.337790 0.597955 0.261438 -0.218731
C38   C     C_2   0.662209 0.402041 0.738555 -0.218775
C39   C     C_2   0.662207 0.597972 0.738530 -0.218912
C40   C     C_2   0.337794 0.402028 0.261470 -0.218896
C41   C     C_2   0.904840 0.084986 0.303646 -0.308013
C42   C     C_2   0.095144 0.915009 0.696343 -0.308283
C43   C     C_2   0.095144 0.084991 0.696342 -0.308287
C44   C     C_2   0.904849 0.915010 0.303653 -0.308159
C45   C     C_2   0.404856 0.584990 0.303657 -0.308310
C46   C     C_2   0.595145 0.415009 0.696343 -0.308273
C47   C     C_2   0.595152 0.584990 0.696348 -0.308161
C48   C     C_2   0.404849 0.415010 0.303653 -0.308171
C49   C     C_2   0.804767 0.126729 0.184743 0.403740
C50   C     C_2   0.195211 0.873294 0.815302 0.403617
C51   C     C_2   0.195210 0.126706 0.815300 0.403608
C52   C     C_2   0.804780 0.873283 0.184718 0.403665
C53   C     C_2   0.304791 0.626707 0.184702 0.403586
C54   C     C_2   0.695210 0.373290 0.815294 0.403609
C55   C     C_2   0.695221 0.626718 0.815282 0.403672
C56   C     C_2   0.304780 0.373283 0.184718 0.403663
C57   C     C_2   0.842124 0.160637 0.189594 0.252045
C58   C     C_2   0.157880 0.839361 0.810405 0.251984
C59   C     C_2   0.157880 0.160638 0.810406 0.251990
C60   C     C_2   0.842123 0.839362 0.189594 0.252017
C61   C     C_2   0.342123 0.660638 0.189593 0.251991
C62   C     C_2   0.657878 0.339361 0.810406 0.252000
C63   C     C_2   0.657877 0.660639 0.810405 0.252014
C64   C     C_2   0.342123 0.339362 0.189594 0.252016
C65   C     C_R   0.439990 0.442912 0.379096 0.871461
C66   C     C_R   0.560010 0.557088 0.620904 0.871458
C67   C     C_R   0.560009 0.442913 0.620904 0.871476
C68   C     C_R   0.439990 0.557086 0.379095 0.871484
C69   C     C_R   0.939990 0.942912 0.379096 0.871472
C70   C     C_R   0.060009 0.057087 0.620904 0.871472
C71   C     C_R   0.060010 0.942913 0.620905 0.871475
C72   C     C_R   0.939990 0.057088 0.379097 0.871451
Cu1   Cu    Cu3+1 0.780520 0.280530 0.061040 0.990839
Cu2   Cu    Cu3+1 0.219480 0.719470 0.938960 0.990815
Cu3   Cu    Cu3+1 0.219480 0.280530 0.938960 0.990889
Cu4   Cu    Cu3+1 0.780520 0.719470 0.061040 0.990897
Cu5   Cu    Cu3+1 0.280520 0.780530 0.061040 0.990837
Cu6   Cu    Cu3+1 0.719480 0.219470 0.938960 0.990974
Cu7   Cu    Cu3+1 0.719480 0.780530 0.938960 0.990907
Cu8   Cu    Cu3+1 0.280520 0.219470 0.061040 0.990821
Cu9   Cu    Cu3+1 0.944230 0.000000 0.500020 0.951738
Cu10  Cu    Cu3+1 0.055770 0.000000 0.499980 0.951849
Cu11  Cu    Cu3+1 0.444230 0.500000 0.500020 0.951810
Cu12  Cu    Cu3+1 0.555770 0.500000 0.499980 0.951797
H1    H     H_    0.806173 0.086899 0.281466 0.167506
H2    H     H_    0.193894 0.913185 0.718725 0.167642
H3    H     H_    0.193892 0.086818 0.718720 0.167647
H4    H     H_    0.806135 0.913148 0.281356 0.167582
H5    H     H_    0.306107 0.586817 0.281279 0.167664
H6    H     H_    0.693887 0.413177 0.718707 0.167641
H7    H     H_    0.693863 0.586854 0.718639 0.167579
H8    H     H_    0.306136 0.413146 0.281361 0.167587
H9    H     H_    0.934494 0.093666 0.279499 0.168783
H10   H     H_    0.065446 0.906293 0.720413 0.168819
H11   H     H_    0.065447 0.093705 0.720414 0.168823
H12   H     H_    0.934529 0.906311 0.279551 0.168814
H13   H     H_    0.434553 0.593704 0.279585 0.168837
H14   H     H_    0.565450 0.406297 0.720420 0.168828
H15   H     H_    0.565472 0.593688 0.720452 0.168801
H16   H     H_    0.434528 0.406312 0.279548 0.168805
O1    O     O_R   0.820280 0.231270 0.140580 -0.574208
O2    O     O_R   0.179720 0.768730 0.859420 -0.574179
O3    O     O_R   0.179720 0.231270 0.859420 -0.574180
O4    O     O_R   0.820280 0.768730 0.140580 -0.574195
O5    O     O_R   0.320280 0.731270 0.140580 -0.574176
O6    O     O_R   0.679720 0.268730 0.859420 -0.574183
O7    O     O_R   0.679720 0.731270 0.859420 -0.574192
O8    O     O_R   0.320280 0.268730 0.140580 -0.574190
O9    O     O_R   0.768770 0.179750 0.037530 -0.567650
O10   O     O_R   0.231230 0.820250 0.962470 -0.567750
O11   O     O_R   0.231230 0.179750 0.962470 -0.567758
O12   O     O_R   0.768770 0.820250 0.037530 -0.567709
O13   O     O_R   0.268770 0.679750 0.037530 -0.567782
O14   O     O_R   0.731230 0.320250 0.962470 -0.567761
O15   O     O_R   0.731230 0.679750 0.962470 -0.567705
O16   O     O_R   0.268770 0.320250 0.037530 -0.567712
O17   O     O_R   0.694370 0.275780 0.051550 -0.583691
O18   O     O_R   0.305630 0.724220 0.948450 -0.583677
O19   O     O_R   0.305630 0.275780 0.948450 -0.583673
O20   O     O_R   0.694370 0.724220 0.051550 -0.583684
O21   O     O_R   0.194370 0.775780 0.051550 -0.583677
O22   O     O_R   0.805630 0.224220 0.948450 -0.583669
O23   O     O_R   0.805630 0.775780 0.948450 -0.583679
O24   O     O_R   0.194370 0.224220 0.051550 -0.583683
O25   O     O_R   0.642860 0.224260 0.948500 -0.571437
O26   O     O_R   0.357140 0.775740 0.051500 -0.571458
O27   O     O_R   0.357140 0.224260 0.051500 -0.571467
O28   O     O_R   0.642860 0.775740 0.948500 -0.571444
O29   O     O_R   0.142860 0.724260 0.948500 -0.571462
O30   O     O_R   0.857140 0.275740 0.051500 -0.571456
O31   O     O_R   0.857140 0.724260 0.051500 -0.571443
O32   O     O_R   0.142860 0.275740 0.948500 -0.571446
O33   O     O_R   0.502640 0.455510 0.411000 -0.590899
O34   O     O_R   0.497360 0.544490 0.589000 -0.590895
O35   O     O_R   0.497360 0.455510 0.589000 -0.590906
O36   O     O_R   0.502640 0.544490 0.411000 -0.590908
O37   O     O_R   0.002640 0.955510 0.411000 -0.590889
O38   O     O_R   0.997360 0.044490 0.589000 -0.590917
O39   O     O_R   0.997360 0.955510 0.589000 -0.590911
O40   O     O_R   0.002640 0.044490 0.411000 -0.590879
O41   O     O_R   0.408410 0.455510 0.411000 -0.586764
O42   O     O_R   0.591590 0.544490 0.589000 -0.586764
O43   O     O_R   0.591590 0.455510 0.589000 -0.586746
O44   O     O_R   0.408410 0.544490 0.411000 -0.586742
O45   O     O_R   0.908410 0.955510 0.411000 -0.586769
O46   O     O_R   0.091590 0.044490 0.589000 -0.586739
O47   O     O_R   0.091590 0.955510 0.589000 -0.586739
O48   O     O_R   0.908410 0.044490 0.411000 -0.586798
O49   O     O_3   0.733768 0.122691 0.112305 -0.584271
C73   C     C_3   0.711668 0.079916 0.095598 -0.307418
H17   H     H_    0.702035 0.068499 0.142211 0.160310
H18   H     H_    0.750267 0.059043 0.096941 0.150127
H19   H     H_    0.660616 0.077764 0.029161 0.193542
O50   O     O_3   0.266201 0.877347 0.887720 -0.584201
C74   C     C_3   0.287966 0.920179 0.904953 -0.307324
H20   H     H_    0.249264 0.940743 0.904015 0.150015
H21   H     H_    0.297382 0.932017 0.858387 0.160167
H22   H     H_    0.339064 0.922272 0.971356 0.193524
O51   O     O_3   0.266200 0.122653 0.887716 -0.584205
C75   C     C_3   0.287960 0.079821 0.904957 -0.307342
H23   H     H_    0.297374 0.067976 0.858393 0.160169
H24   H     H_    0.249255 0.059261 0.904023 0.150019
H25   H     H_    0.339058 0.077728 0.971361 0.193516
O52   O     O_3   0.733784 0.877327 0.112295 -0.584236
C76   C     C_3   0.711882 0.920136 0.095271 -0.307316
H26   H     H_    0.750536 0.940825 0.096354 0.150089
H27   H     H_    0.702390 0.931808 0.141864 0.160198
H28   H     H_    0.660797 0.922250 0.028860 0.193545
O53   O     O_3   0.233795 0.622659 0.112302 -0.584210
C77   C     C_3   0.212058 0.579823 0.094997 -0.307287
H29   H     H_    0.202686 0.567932 0.141571 0.160142
H30   H     H_    0.250757 0.559296 0.095856 0.150025
H31   H     H_    0.160943 0.577744 0.028607 0.193535
O54   O     O_3   0.766204 0.377340 0.887704 -0.584215
C78   C     C_3   0.787978 0.420170 0.904933 -0.307299
H32   H     H_    0.749283 0.440739 0.904001 0.150032
H33   H     H_    0.797388 0.432004 0.858359 0.160160
H34   H     H_    0.839080 0.422261 0.971332 0.193537
O55   O     O_3   0.766216 0.622674 0.887709 -0.584232
C79   C     C_3   0.788134 0.579868 0.904705 -0.307334
H35   H     H_    0.797633 0.568217 0.858106 0.160225
H36   H     H_    0.749487 0.559163 0.903604 0.150053
H37   H     H_    0.839218 0.577750 0.971116 0.193536
O56   O     O_3   0.233784 0.377327 0.112294 -0.584232
C80   C     C_3   0.211875 0.420134 0.095284 -0.307348
H38   H     H_    0.250525 0.440831 0.096376 0.150051
H39   H     H_    0.202379 0.431796 0.141879 0.160230
H40   H     H_    0.160790 0.422250 0.028872 0.193534
O57   O     O_3   0.906940 0.170559 0.268636 -0.574698
C81   C     C_3   0.958028 0.179809 0.255172 -0.326738
H41   H     H_    0.951266 0.212549 0.229900 0.188121
H42   H     H_    0.956928 0.156450 0.210884 0.124635
H43   H     H_    0.011401 0.178034 0.318974 0.204173
O58   O     O_3   0.093096 0.829425 0.731335 -0.574659
C82   C     C_3   0.041975 0.820156 0.744733 -0.326780
H44   H     H_    0.043036 0.843503 0.789010 0.124577
H45   H     H_    0.048733 0.787411 0.769981 0.188191
H46   H     H_    0.988620 0.821933 0.680907 0.204169
O59   O     O_3   0.093092 0.170573 0.731340 -0.574661
C83   C     C_3   0.041976 0.179839 0.744748 -0.326783
H47   H     H_    0.048732 0.212584 0.769994 0.188192
H48   H     H_    0.043046 0.156492 0.789032 0.124576
H49   H     H_    0.988618 0.178060 0.680927 0.204163
O60   O     O_3   0.906922 0.829433 0.268651 -0.574681
C84   C     C_3   0.958026 0.820172 0.255219 -0.326760
H50   H     H_    0.956941 0.843521 0.210928 0.124601
H51   H     H_    0.951269 0.787427 0.229969 0.188171
H52   H     H_    0.011390 0.821952 0.319031 0.204175
O61   O     O_3   0.406917 0.670570 0.268654 -0.574662
C85   C     C_3   0.458025 0.679836 0.255234 -0.326782
H53   H     H_    0.451268 0.712581 0.229988 0.188184
H54   H     H_    0.456948 0.656490 0.210945 0.124574
H55   H     H_    0.511387 0.678056 0.319050 0.204165
O62   O     O_3   0.593085 0.329428 0.731344 -0.574666
C86   C     C_3   0.541975 0.320163 0.744762 -0.326782
H56   H     H_    0.543051 0.343510 0.789050 0.124579
H57   H     H_    0.548732 0.287418 0.770008 0.188190
H58   H     H_    0.488614 0.321943 0.680946 0.204172
O63   O     O_3   0.593080 0.670569 0.731347 -0.574674
C87   C     C_3   0.541974 0.679829 0.744774 -0.326769
H59   H     H_    0.548731 0.712573 0.770025 0.188174
H60   H     H_    0.543056 0.656480 0.789062 0.124596
H61   H     H_    0.488611 0.678049 0.680960 0.204179
O64   O     O_3   0.406922 0.329433 0.268650 -0.574673
C88   C     C_3   0.458026 0.320174 0.255218 -0.326782
H62   H     H_    0.456942 0.343524 0.210930 0.124599
H63   H     H_    0.451269 0.287430 0.229964 0.188163
H64   H     H_    0.511390 0.321953 0.319031 0.204173

loop_
_geom_bond_atom_site_label_1
_geom_bond_atom_site_label_2
_ccdc_geom_bond_type
Cu4   O4    S    
C71   O47   A    
Cu7   O28   S    
C81   H41   S    
C14   O22   A    
C74   H21   S    
C9    O17   A    
O53   C77   S    
C11   O27   A    
C18   C26   T    
Cu4   Cu7   S    
C11   O19   A    
O64   C88   S    
C88   H64   S    
C87   H60   S    
Cu9   Cu10  S    
Cu7   O7    S    
C78   H33   S    
C5    O5    A    
C84   H50   S    
C36   H4    S    
C11   C19   S    
C76   H26   S    
C15   O23   A    
Cu7   O12   S    
C44   H12   S    
O52   C76   S    
C10   C18   S    
Cu10  O37   S    
C86   H57   S    
C14   O30   A    
Cu11  O44   S    
Cu4   O31   S    
C80   H39   S    
C77   H29   S    
C2    O2    A    
C33   C49   S    
Cu4   O20   S    
Cu4   O15   S    
C49   C57   D    
O56   C80   S    
C64   O64   S    
C40   C48   D    
C34   H2    S    
C7    O15   A    
C33   H1    S    
O54   C78   S    
C6    O14   A    
Cu11  O34   S    
Cu10  O40   S    
C52   C60   D    
C81   H43   S    
C1    O9    A    
C66   O34   A    
C35   H3    S    
C60   O60   S    
C39   C55   S    
O51   C75   S    
C3    O11   A    
C34   C42   D    
C40   C56   S    
Cu2   Cu5   S    
C55   C63   D    
C47   H15   S    
C43   H11   S    
Cu1   Cu6   S    
C56   C64   D    
C70   O46   A    
C48   C65   S    
C19   C27   T    
Cu3   Cu8   S    
C47   C66   S    
Cu11  O35   S    
C36   C52   S    
C79   H37   S    
C53   O53   S    
Cu2   O2    S    
C82   H46   S    
C37   C53   S    
C15   C23   S    
Cu1   O1    S    
O58   C82   S    
C4    O12   A    
C67   O43   A    
O59   C83   S    
C16   C24   S    
C12   O20   A    
C74   H22   S    
Cu3   O3    S    
C62   O62   S    
C12   C20   S    
Cu5   O10   S    
C53   C61   D    
C48   H16   S    
C8    O8    A    
C39   H7    S    
C87   H59   S    
Cu10  O46   S    
C79   H36   S    
Cu10  O47   S    
C78   H34   S    
C84   H51   S    
C69   O37   A    
Cu9   O38   S    
Cu2   O18   S    
C41   H9    S    
Cu12  O33   S    
C34   C50   S    
Cu1   O17   S    
C5    C61   S    
C50   C58   D    
C75   H25   S    
C68   O36   A    
Cu3   O19   S    
O61   C85   S    
C65   O41   A    
C86   H58   S    
C59   O59   S    
O63   C87   S    
Cu11  O41   S    
O62   C86   S    
C83   H47   S    
C80   H40   S    
C71   O39   A    
C56   O56   S    
Cu12  O43   S    
C72   O48   A    
Cu2   O13   S    
C21   C29   T    
C58   O58   S    
C9    O25   A    
Cu1   O14   S    
C82   H44   S    
C23   C31   T    
C16   O32   A    
C67   O35   A    
C86   H56   S    
C24   C32   T    
C57   O57   S    
C69   O45   A    
C10   O18   A    
C1    C57   S    
C13   O21   A    
Cu11  Cu12  S    
C38   C54   S    
Cu12  O42   S    
Cu9   O48   S    
C4    C60   S    
C45   C68   S    
C88   H62   S    
C6    O6    A    
C26   C28   S    
C13   C21   S    
C44   C69   S    
C61   O61   S    
C40   H8    S    
C73   H19   S    
C7    C63   S    
O50   C74   S    
C8    C64   S    
C41   C72   S    
C12   O28   A    
C9    C17   S    
C52   O52   S    
C70   O38   A    
C76   H28   S    
Cu9   O45   S    
C35   C51   S    
C25   C27   S    
C73   H18   S    
C36   C44   D    
C51   C59   D    
C37   C45   D    
C1    O1    A    
C35   C43   D    
C79   H35   S    
C39   C47   D    
Cu8   O24   S    
C84   H52   S    
C3    O3    A    
Cu9   O39   S    
Cu8   O8    S    
Cu1   O30   S    
C2    O10   A    
C81   H42   S    
C22   C30   T    
C5    O13   A    
C42   H10   S    
C55   O55   S    
C2    C58   S    
C66   O42   A    
Cu8   O27   S    
C37   H5    S    
C43   C70   S    
C85   H55   S    
C20   C28   T    
C38   H6    S    
C85   H54   S    
Cu3   O32   S    
C49   O49   S    
Cu6   O6    S    
C17   C25   T    
C75   H23   S    
C6    C62   S    
Cu5   O5    S    
C16   O24   A    
C33   C41   D    
C46   C67   S    
C29   C31   S    
C78   H32   S    
C45   H13   S    
O49   C73   S    
C30   C32   S    
C14   C22   S    
C80   H38   S    
Cu7   O23   S    
C63   O63   S    
C50   O50   S    
C83   H49   S    
C54   O54   S    
C4    O4    A    
Cu8   O11   S    
C51   O51   S    
C42   C71   S    
C88   H63   S    
C68   O44   A    
Cu6   O9    S    
C7    O7    A    
C87   H61   S    
C46   H14   S    
O57   C81   S    
Cu6   O22   S    
C38   C46   D    
Cu5   O21   S    
C8    O16   A    
O55   C79   S    
C72   O40   A    
C15   O31   A    
O60   C84   S    
C76   H27   S    
C85   H53   S    
Cu2   O29   S    
C74   H20   S    
C13   O29   A    
C73   H17   S    
C54   C62   D    
Cu3   O16   S    
C77   H30   S    
C82   H45   S    
C10   O26   A    
Cu6   O25   S    
C83   H48   S    
C65   O33   A    
Cu5   O26   S    
C75   H24   S    
Cu12  O36   S    
C77   H31   S    
C3    C59   S    
