data_mof_unit_37986.cif
_audit_creation_date              2012-12-11T16:58:15-0500
_audit_creation_method            fapswitch 2.2
_symmetry_space_group_name_H-M    P1
_symmetry_Int_Tables_number       1
_space_group_crystal_system       triclinic
_cell_length_a                    16.921588
_cell_length_b                    7.25571
_cell_length_c                    16.852538
_cell_angle_alpha                 91.291706
_cell_angle_beta                  100.443628
_cell_angle_gamma                 88.523954
_cell_volume                      2033.83413197

loop_
_atom_site_label
_atom_site_type_symbol
_atom_type_description
_atom_site_fract_x
_atom_site_fract_y
_atom_site_fract_z
_atom_type_partial_charge
O1    O     O_R   0.413450 0.494370 0.415710 -0.534940
O2    O     O_R   0.586550 0.994370 0.584290 -0.530595
O3    O     O_R   0.578420 0.819350 0.429360 -0.510351
O4    O     O_R   0.421580 0.319350 0.570640 -0.554819
C1    C     C_R   0.603695 0.651623 0.412674 0.729776
C2    C     C_R   0.395787 0.158334 0.587182 0.741180
O5    O     O_R   0.413570 0.823780 0.406240 -0.546592
O6    O     O_R   0.586430 0.323780 0.593760 -0.544274
O7    O     O_R   0.420530 0.998740 0.561000 -0.522893
O8    O     O_R   0.579470 0.498740 0.439000 -0.543287
C3    C     C_R   0.386345 0.655554 0.383795 0.669347
C4    C     C_R   0.613815 0.155203 0.616465 0.700773
O9    O     O_3   0.502480 0.662320 0.550800 -0.379230
O10   O     O_3   0.497520 0.162320 0.449200 -0.371352
V1    V     V_3+5 0.499540 0.935370 0.490580 1.443932
V2    V     V_3+5 0.500460 0.435370 0.509420 1.387029
C5    C     C_R   0.693566 0.995284 0.737989 0.040172
C6    C     C_R   0.300394 0.488695 0.268049 0.019255
C7    C     C_R   0.680747 0.147234 0.686898 -0.094506
C8    C     C_R   0.317360 0.646922 0.316003 -0.076578
C9    C     C_R   0.732977 0.296456 0.706956 -0.167527
C10   C     C_R   0.262823 0.797744 0.297096 -0.184139
H1    H     H_    0.725004 0.418893 0.670698 0.125257
H2    H     H_    0.270657 0.923819 0.332844 0.116168
C11   C     C_R   0.799573 0.284387 0.770717 -0.097642
C12   C     C_R   0.195920 0.785371 0.232786 -0.154176
H3    H     H_    0.840435 0.398231 0.781457 0.144995
H4    H     H_    0.155032 0.902780 0.221292 0.124809
C13   C     C_R   0.815702 0.123409 0.816959 -0.151243
C14   C     C_R   0.181330 0.621967 0.185123 -0.120591
C15   C     C_R   0.758683 0.984756 0.801597 0.009891
C16   C     C_R   0.236306 0.477299 0.206007 0.001784
C17   C     C_3   0.768323 0.780251 0.788740 0.333869
C18   C     C_3   0.258332 0.282894 0.184735 0.353941
C19   C     C_3   0.696384 0.793064 0.719632 -0.438610
C20   C     C_3   0.331099 0.298118 0.254573 -0.443682
H5    H     H_    0.825231 0.743937 0.767273 0.063093
H6    H     H_    0.213146 0.184551 0.197086 0.069155
H7    H     H_    0.642035 0.722792 0.731034 0.195756
H8    H     H_    0.390534 0.297271 0.235320 0.174524
H9    H     H_    0.712402 0.762396 0.659497 0.129920
H10   H     H_    0.327757 0.207586 0.306013 0.145978
C21   C     C_R   0.333619 0.162145 0.639850 -0.144899
C22   C     C_R   0.662648 0.626302 0.357279 -0.164662
C23   C     C_R   0.167721 0.105329 0.863224 -0.048574
C24   C     C_R   0.833604 0.643526 0.137436 -0.061099
C25   C     C_R   0.282491 0.941898 0.822987 -0.177248
C26   C     C_R   0.733896 0.846283 0.185232 -0.176337
C27   C     C_R   0.226527 0.963286 0.874365 -0.157339
C28   C     C_R   0.787992 0.809547 0.133286 -0.189537
C29   C     C_R   0.167129 0.229267 0.800180 -0.223815
C30   C     C_R   0.822865 0.513061 0.194588 -0.212140
C31   C     C_R   0.222339 0.206037 0.746811 0.108168
C32   C     C_R   0.769066 0.550419 0.248099 0.095391
C33   C     C_R   0.279988 0.059116 0.757182 0.058742
C34   C     C_R   0.723712 0.718235 0.243444 0.060820
C35   C     C_R   0.334098 0.033445 0.701951 0.379047
C36   C     C_R   0.668984 0.754496 0.296806 0.384425
C37   C     C_R   0.275587 0.306055 0.630743 -0.270471
C38   C     C_R   0.709155 0.461556 0.361162 -0.216199
C39   C     C_R   0.220380 0.326908 0.682887 -0.198484
C40   C     C_R   0.761035 0.423577 0.307111 -0.184090
H11   H     H_    0.273267 0.404508 0.582949 0.137217
H12   H     H_    0.705184 0.359876 0.406286 0.159524
H13   H     H_    0.327066 0.831483 0.834670 0.153824
H14   H     H_    0.700870 0.976620 0.180129 0.158412
H15   H     H_    0.176755 0.439927 0.673825 0.126020
H16   H     H_    0.795326 0.294791 0.311863 0.135269
H17   H     H_    0.228939 0.867127 0.923065 0.126618
H18   H     H_    0.794621 0.913608 0.090048 0.128283
H19   H     H_    0.122017 0.339290 0.790911 0.114464
H20   H     H_    0.858163 0.385648 0.199289 0.120510
O11   O     O_R   0.920630 0.775410 0.061150 -0.537659
O12   O     O_R   0.079370 0.275410 0.938850 -0.531868
O13   O     O_R   0.086500 0.441450 0.093690 -0.536919
O14   O     O_R   0.913500 0.941450 0.906310 -0.535525
C41   C     C_R   0.113528 0.610038 0.116271 0.681314
C42   C     C_R   0.886069 0.110391 0.883717 0.681077
O15   O     O_R   0.921670 0.445960 0.070740 -0.540098
O16   O     O_R   0.078330 0.945960 0.929260 -0.545439
O17   O     O_R   0.913380 0.271130 0.915780 -0.527906
O18   O     O_R   0.086620 0.771130 0.084220 -0.536092
C43   C     C_R   0.895855 0.617899 0.085886 0.702615
C44   C     C_R   0.104249 0.111049 0.913919 0.703914
O19   O     O_3   0.997500 0.603030 0.949220 -0.374843
O20   O     O_3   0.002500 0.103030 0.050780 -0.380824
V3    V     V_3+5 0.000470 0.329940 0.009420 1.430891
V4    V     V_3+5 0.999530 0.829940 0.990580 1.421782
O21   O     O_3   0.755958 0.661162 0.851513 -0.541120
C45   C     C_3   0.710257 0.741703 0.906134 -0.177635
H21   H     H_    0.650799 0.794112 0.874588 0.134345
H22   H     H_    0.744069 0.853099 0.942706 0.121945
H23   H     H_    0.699196 0.634455 0.948466 0.147428
O22   O     O_3   0.280031 0.246263 0.107789 -0.543698
C46   C     C_3   0.308272 0.400951 0.072639 -0.190451
H24   H     H_    0.357334 0.470603 0.114459 0.125328
H25   H     H_    0.258071 0.499566 0.051228 0.126944
H26   H     H_    0.333094 0.353004 0.019003 0.153095
O23   O     O_3   0.392132 0.893939 0.713053 -0.561557
C47   C     C_3   0.358162 0.731128 0.675747 -0.198874
H27   H     H_    0.308628 0.683318 0.704821 0.118653
H28   H     H_    0.405370 0.620813 0.682453 0.176785
H29   H     H_    0.335738 0.749100 0.610062 0.129290
O24   O     O_3   0.623505 0.916631 0.291008 -0.551789
C48   C     C_3   0.549860 0.885273 0.238553 -0.214772
H30   H     H_    0.514848 0.777347 0.261760 0.114839
H31   H     H_    0.559320 0.846987 0.176593 0.117806
H32   H     H_    0.513171 0.014803 0.234441 0.163606

loop_
_geom_bond_atom_site_label_1
_geom_bond_atom_site_label_2
_ccdc_geom_bond_type
C14   C16   A    
C20   H10   S    
C46   H24   S    
O1    C3    A    
O16   C44   A    
O2    C4    A    
C2    O7    A    
O15   V3    S    
C46   H26   S    
C25   C27   A    
O5    C3    A    
C48   H31   S    
C25   H13   S    
C7    C9    A    
O14   C42   A    
C23   C29   A    
C35   O23   S    
C24   C30   A    
C38   C40   A    
C17   C19   S    
C14   C41   S    
C31   C39   A    
C13   C42   S    
C22   C36   A    
C15   C17   S    
O12   V3    S    
O14   V4    S    
C18   C20   S    
C21   C37   A    
C26   C28   A    
O6    V2    S    
C27   H17   S    
C29   H19   S    
O24   C48   S    
C30   C32   A    
C31   C33   A    
C11   C13   A    
C48   H32   S    
C32   C34   A    
C3    C8    S    
C37   C39   A    
C20   H8    S    
O4    C2    A    
O20   V3    S    
C32   C40   A    
C47   H29   S    
C17   H5    S    
C29   C31   A    
C16   C18   S    
O4    V2    S    
C19   H7    S    
O11   V4    S    
C30   H20   S    
C17   O21   S    
C39   H15   S    
C45   H22   S    
O23   C47   S    
C23   C27   A    
O6    C4    A    
C47   H28   S    
O1    V2    S    
O2    V1    S    
O13   C41   A    
O17   V3    S    
O13   V3    S    
C1    C22   S    
C8    C10   A    
C12   C14   A    
C2    C21   S    
C33   C35   A    
C5    C15   A    
C10   H2    S    
C23   C44   S    
C6    C16   A    
O3    V1    S    
C45   H23   S    
C25   C33   A    
O19   V4    S    
C26   C34   A    
C9    C11   A    
C18   H6    S    
C37   H11   S    
C18   O22   S    
O12   C44   A    
O3    C1    A    
C46   H25   S    
C11   H3    S    
C48   H30   S    
C24   C28   A    
C12   H4    S    
C40   H16   S    
C38   H12   S    
C9    H1    S    
C28   H18   S    
C1    O8    A    
C13   C15   A    
O8    V2    S    
O15   C43   A    
C42   O17   A    
C45   H21   S    
C41   O18   A    
C22   C38   A    
O18   V4    S    
C4    C7    S    
O5    V1    S    
C47   H27   S    
C5    C7    A    
C34   C36   A    
C6    C8    A    
O7    V1    S    
O22   C46   S    
C19   H9    S    
C21   C35   A    
C24   C43   S    
C36   O24   S    
O16   V4    S    
C10   C12   A    
O9    V2    S    
O10   V1    S    
C5    C19   S    
C26   H14   S    
O21   C45   S    
C6    C20   S    
O11   C43   A    
