data_mof_unit_40743.cif
_audit_creation_date              2012-12-11T14:24:41-0500
_audit_creation_method            fapswitch 2.2
_symmetry_space_group_name_H-M    P1
_symmetry_Int_Tables_number       1
_space_group_crystal_system       triclinic
_cell_length_a                    19.270128
_cell_length_b                    10.857696
_cell_length_c                    18.57601
_cell_angle_alpha                 90.462598
_cell_angle_beta                  90.459989
_cell_angle_gamma                 89.757843
_cell_volume                      3886.35796973

loop_
_atom_site_label
_atom_site_type_symbol
_atom_type_description
_atom_site_fract_x
_atom_site_fract_y
_atom_site_fract_z
_atom_type_partial_charge
C1    C     C_R   0.728935 0.372779 0.144639 0.529172
C2    C     C_R   0.271215 0.373085 0.855448 0.532703
C3    C     C_R   0.228935 0.872778 0.144639 0.529171
C4    C     C_R   0.771215 0.873085 0.855448 0.532701
C5    C     C_3   0.476743 0.060405 0.035092 -0.100778
C6    C     C_3   0.519253 0.057940 0.965406 -0.101521
C7    C     C_3   0.976750 0.560401 0.035090 -0.100778
C8    C     C_3   0.019259 0.557943 0.965403 -0.101520
C9    C     C_R   0.758439 0.895782 0.932168 -0.007494
C10   C     C_R   0.242782 0.897198 0.068464 -0.009374
C11   C     C_R   0.258439 0.395782 0.932168 -0.007501
C12   C     C_R   0.742783 0.397199 0.068465 -0.009376
C13   C     C_R   0.700397 0.846750 0.969176 0.021674
C14   C     C_R   0.299376 0.843501 0.030238 0.021415
C15   C     C_R   0.200397 0.346750 0.969176 0.021675
C16   C     C_R   0.799376 0.343502 0.030238 0.021419
C17   C     C_R   0.703487 0.839326 0.045192 0.026077
C18   C     C_R   0.295958 0.838551 0.954017 0.025249
C19   C     C_R   0.203487 0.339326 0.045192 0.026075
C20   C     C_R   0.795958 0.338552 0.954018 0.025243
C21   C     C_R   0.815377 0.939835 0.045796 -0.158189
C22   C     C_R   0.186691 0.949703 0.956030 -0.155735
C23   C     C_R   0.315377 0.439836 0.045796 -0.158183
C24   C     C_R   0.686692 0.449704 0.956031 -0.155719
C25   C     C_R   0.816122 0.936991 0.972185 -0.149624
C26   C     C_R   0.186597 0.946543 0.029556 -0.150734
C27   C     C_R   0.316122 0.436991 0.972185 -0.149629
C28   C     C_R   0.686597 0.446544 0.029556 -0.150735
C29   C     C_R   0.640058 0.802793 0.933816 -0.096070
C30   C     C_R   0.358494 0.792418 0.064502 -0.094810
C31   C     C_R   0.140058 0.302792 0.933816 -0.096072
C32   C     C_R   0.858495 0.292420 0.064503 -0.094809
C33   C     C_R   0.090174 0.237320 0.971341 -0.140257
C34   C     C_R   0.906351 0.222976 0.025584 -0.136980
C35   C     C_R   0.590174 0.737321 0.971341 -0.140259
C36   C     C_R   0.406351 0.722974 0.025584 -0.136980
C37   C     C_R   0.597870 0.718216 0.044849 -0.129387
C38   C     C_R   0.398494 0.707677 0.951671 -0.128490
C39   C     C_R   0.097870 0.218215 0.044849 -0.129387
C40   C     C_R   0.898494 0.207677 0.951671 -0.128486
C41   C     C_R   0.653567 0.769762 0.081841 -0.078121
C42   C     C_R   0.344260 0.765903 0.915823 -0.077399
C43   C     C_R   0.153567 0.269761 0.081842 -0.078123
C44   C     C_R   0.844260 0.265903 0.915824 -0.077403
C45   C     C_R   0.558030 0.151385 0.136186 0.557421
C46   C     C_R   0.441128 0.152219 0.863833 0.557566
C47   C     C_R   0.058032 0.651384 0.136186 0.557418
C48   C     C_R   0.941129 0.652219 0.863833 0.557567
C49   C     C_R   0.756690 0.902040 0.082586 -0.015118
C50   C     C_R   0.243783 0.905980 0.917973 -0.013272
C51   C     C_R   0.256690 0.402040 0.082586 -0.015113
C52   C     C_R   0.743783 0.405982 0.917974 -0.013290
C53   C     C_R   0.455145 0.152157 0.562602 -0.003498
C54   C     C_R   0.491809 0.167299 0.417699 0.009445
C55   C     C_R   0.955144 0.652156 0.562602 -0.003509
C56   C     C_R   0.991809 0.667295 0.417700 0.009437
C57   C     C_R   0.441568 0.051277 0.515067 0.023203
C58   C     C_R   0.452027 0.066956 0.440626 0.020036
C59   C     C_R   0.941568 0.551274 0.515068 0.023203
C60   C     C_R   0.952029 0.566949 0.440628 0.020037
C61   C     C_R   0.511221 0.258927 0.466393 -0.155908
C62   C     C_R   0.489023 0.255149 0.536590 -0.156862
C63   C     C_R   0.011219 0.758926 0.466393 -0.155909
C64   C     C_R   0.989021 0.755149 0.536589 -0.156876
C65   C     C_R   0.422760 0.932731 0.538230 -0.100361
C66   C     C_R   0.429269 0.974917 0.391605 -0.089736
C67   C     C_R   0.922757 0.432730 0.538233 -0.100362
C68   C     C_R   0.929273 0.474907 0.391607 -0.089739
C69   C     C_R   0.914936 0.336913 0.489094 -0.145567
C70   C     C_R   0.913940 0.358422 0.415925 -0.104773
C71   C     C_R   0.414939 0.836916 0.489089 -0.145568
C72   C     C_R   0.413939 0.858430 0.415920 -0.104767
C73   C     C_R   0.778571 0.852559 0.558933 -0.001527
C74   C     C_R   0.217866 0.847705 0.441712 0.001921
C75   C     C_R   0.278571 0.352558 0.558932 -0.001530
C76   C     C_R   0.717865 0.347704 0.441715 0.001916
C77   C     C_R   0.832755 0.895640 0.513387 -0.008177
C78   C     C_R   0.171961 0.923915 0.482634 -0.012111
C79   C     C_R   0.332755 0.395641 0.513387 -0.008177
C80   C     C_R   0.671960 0.423916 0.482636 -0.012106
C81   C     C_R   0.826089 0.877312 0.438305 0.009055
C82   C     C_R   0.168268 0.901679 0.556754 0.015276
C83   C     C_R   0.326089 0.377313 0.438305 0.009055
C84   C     C_R   0.668263 0.401680 0.556757 0.015274
C85   C     C_R   0.704045 0.837565 0.454314 -0.167379
C86   C     C_R   0.274801 0.792050 0.554383 -0.166161
C87   C     C_R   0.204046 0.337560 0.454313 -0.167377
C88   C     C_R   0.774794 0.292042 0.554388 -0.166150
C89   C     C_R   0.743190 0.963928 0.151102 0.534537
C90   C     C_R   0.256941 0.964677 0.849033 0.530398
C91   C     C_R   0.243191 0.463928 0.151103 0.534538
C92   C     C_R   0.756941 0.464678 0.849033 0.530380
C93   C     C_R   0.715605 0.816353 0.526839 -0.145402
C94   C     C_R   0.263443 0.769634 0.480462 -0.145396
C95   C     C_R   0.215606 0.316349 0.526837 -0.145407
C96   C     C_R   0.763439 0.269630 0.480466 -0.145394
C97   C     C_R   0.886684 0.973957 0.536366 -0.137251
C98   C     C_R   0.136916 0.029590 0.457317 -0.124474
C99   C     C_R   0.386684 0.473958 0.536366 -0.137250
C100  C     C_R   0.636919 0.529594 0.457317 -0.124472
C101  C     C_R   0.933072 0.020282 0.486788 -0.214058
C102  C     C_R   0.094198 0.096621 0.503622 -0.208642
C103  C     C_R   0.433072 0.520282 0.486789 -0.214059
C104  C     C_R   0.594200 0.596630 0.503618 -0.208644
C105  C     C_R   0.933698 0.979926 0.415959 -0.059255
C106  C     C_R   0.078391 0.051200 0.571925 -0.075868
C107  C     C_R   0.433699 0.479926 0.415960 -0.059256
C108  C     C_R   0.578391 0.551216 0.571922 -0.075864
C109  C     C_R   0.883399 0.898390 0.391610 0.308891
C110  C     C_R   0.111157 0.945426 0.597650 0.292610
C111  C     C_R   0.383401 0.398391 0.391610 0.308897
C112  C     C_R   0.611152 0.445441 0.597650 0.292619
C113  C     C_R   0.758436 0.880491 0.412032 -0.018427
C114  C     C_R   0.232347 0.877215 0.588913 -0.017710
C115  C     C_R   0.258437 0.380489 0.412031 -0.018429
C116  C     C_R   0.732341 0.377206 0.588918 -0.017730
C117  C     C_R   0.711976 0.333608 0.362552 0.561817
C118  C     C_R   0.287363 0.334673 0.637200 0.546371
C119  C     C_R   0.211976 0.833608 0.362551 0.561823
C120  C     C_R   0.787363 0.834673 0.637201 0.546371
C121  C     C_R   0.530035 0.158204 0.351091 0.540340
C122  C     C_R   0.436130 0.151368 0.638744 0.536493
C123  C     C_R   0.030034 0.658203 0.351090 0.540344
C124  C     C_R   0.936130 0.651368 0.638744 0.536510
C125  C     C_R   0.742764 0.964997 0.353588 0.547680
C126  C     C_R   0.255527 0.961967 0.647249 0.534884
C127  C     C_R   0.242764 0.464997 0.353588 0.547669
C128  C     C_R   0.755526 0.461968 0.647249 0.534843
C129  C     C_3   0.521411 0.260201 0.965085 -0.119451
C130  C     C_3   0.479240 0.262723 0.035735 -0.118091
C131  C     C_3   0.021412 0.760204 0.965085 -0.119447
C132  C     C_3   0.979241 0.762720 0.035736 -0.118093
C133  C     C_3   0.568702 0.157233 0.995728 -0.142896
C134  C     C_3   0.429576 0.163253 0.004873 -0.143757
C135  C     C_3   0.068706 0.657239 0.995726 -0.142888
C136  C     C_3   0.929580 0.663247 0.004872 -0.143761
C137  C     C_3   0.526017 0.159412 0.064857 0.061646
C138  C     C_3   0.472301 0.160507 0.935713 0.057688
C139  C     C_3   0.026021 0.659412 0.064856 0.061641
C140  C     C_3   0.972304 0.660507 0.935712 0.057692
Cr1   Cr    Cr6+3 0.772820 0.169820 0.252640 1.002970
Cr2   Cr    Cr6+3 0.227180 0.169820 0.747360 1.017352
Cr3   Cr    Cr6+3 0.272820 0.669820 0.252640 1.002966
Cr4   Cr    Cr6+3 0.727180 0.669820 0.747360 1.017356
Cr5   Cr    Cr6+3 0.615040 0.323610 0.249150 0.999178
Cr6   Cr    Cr6+3 0.384960 0.323610 0.750850 0.992868
Cr7   Cr    Cr6+3 0.115040 0.823610 0.249150 0.999173
Cr8   Cr    Cr6+3 0.884960 0.823610 0.750850 0.992873
Cr9   Cr    Cr6+3 0.616720 0.011130 0.250660 0.984511
Cr10  Cr    Cr6+3 0.383280 0.011130 0.749340 0.970503
Cr11  Cr    Cr6+3 0.116720 0.511130 0.250660 0.984510
Cr12  Cr    Cr6+3 0.883280 0.511130 0.749340 0.970506
H1    H     H_    0.626274 0.154471 0.993442 0.114151
H2    H     H_    0.372008 0.165490 0.007203 0.116013
H3    H     H_    0.126278 0.654481 0.993439 0.114155
H4    H     H_    0.872011 0.665479 0.007203 0.116009
H5    H     H_    0.543771 0.334083 0.449985 0.148449
H6    H     H_    0.500241 0.331707 0.571570 0.175080
H7    H     H_    0.043769 0.834082 0.449984 0.148451
H8    H     H_    0.000239 0.831707 0.571569 0.175061
H9    H     H_    0.416801 0.907454 0.593396 0.168541
H10   H     H_    0.428187 0.989672 0.334096 0.120365
H11   H     H_    0.916796 0.407456 0.593399 0.168544
H12   H     H_    0.928194 0.489658 0.334099 0.120370
H13   H     H_    0.903872 0.247291 0.508592 0.102841
H14   H     H_    0.902291 0.284627 0.378266 0.132898
H15   H     H_    0.403878 0.747293 0.508586 0.102841
H16   H     H_    0.402289 0.784636 0.378261 0.132900
H17   H     H_    0.651595 0.831829 0.433253 0.140940
H18   H     H_    0.316697 0.748253 0.583642 0.115638
H19   H     H_    0.151597 0.331821 0.433252 0.140939
H20   H     H_    0.816690 0.248243 0.583646 0.115640
H21   H     H_    0.891406 0.011693 0.589723 0.163487
H22   H     H_    0.146393 0.069389 0.405412 0.161978
H23   H     H_    0.391404 0.511694 0.589722 0.163491
H24   H     H_    0.646399 0.569391 0.405412 0.161979
H25   H     H_    0.672817 0.784382 0.558904 0.157983
H26   H     H_    0.294355 0.700768 0.452906 0.150466
H27   H     H_    0.172819 0.284374 0.558903 0.157980
H28   H     H_    0.794351 0.200765 0.452910 0.150462
H29   H     H_    0.967839 0.090010 0.503543 0.114785
H30   H     H_    0.070990 0.181967 0.485429 0.110081
H31   H     H_    0.467840 0.590008 0.503544 0.114785
H32   H     H_    0.570993 0.681974 0.485422 0.110082
H33   H     H_    0.972864 0.013591 0.379633 0.128766
H34   H     H_    0.041748 0.100147 0.605673 0.117306
H35   H     H_    0.472867 0.513589 0.379635 0.128768
H36   H     H_    0.541747 0.600168 0.605667 0.117308
H37   H     H_    0.538869 0.342010 0.934837 0.109043
H38   H     H_    0.463984 0.346545 0.066363 0.109734
H39   H     H_    0.038866 0.842015 0.934837 0.109050
H40   H     H_    0.963983 0.846539 0.066365 0.109739
H41   H     H_    0.459200 0.978149 0.064714 0.134450
H42   H     H_    0.534767 0.973956 0.935330 0.138898
H43   H     H_    0.959208 0.478142 0.064710 0.134455
H44   H     H_    0.034775 0.473961 0.935325 0.138889
H45   H     H_    0.859364 0.980443 0.073655 0.140736
H46   H     H_    0.143413 0.994670 0.929342 0.144046
H47   H     H_    0.359364 0.480443 0.073655 0.140737
H48   H     H_    0.643413 0.494671 0.929342 0.144052
H49   H     H_    0.629413 0.819952 0.877682 0.135445
H50   H     H_    0.369831 0.806538 0.120882 0.134223
H51   H     H_    0.129414 0.319950 0.877682 0.135439
H52   H     H_    0.869832 0.306541 0.120882 0.134222
H53   H     H_    0.863673 0.965601 0.946940 0.150604
H54   H     H_    0.140422 0.980953 0.055651 0.150620
H55   H     H_    0.363673 0.465601 0.946940 0.150603
H56   H     H_    0.640422 0.480954 0.055651 0.150618
H57   H     H_    0.046279 0.199357 0.942728 0.103964
H58   H     H_    0.948536 0.178239 0.053434 0.098657
H59   H     H_    0.546278 0.699358 0.942728 0.103962
H60   H     H_    0.448536 0.678237 0.053433 0.098658
H61   H     H_    0.061308 0.162350 0.073601 0.094617
H62   H     H_    0.933921 0.149514 0.921868 0.096740
H63   H     H_    0.561307 0.662351 0.073601 0.094617
H64   H     H_    0.433921 0.649514 0.921867 0.096738
H65   H     H_    0.658656 0.751162 0.138805 0.121553
H66   H     H_    0.338839 0.749736 0.858492 0.124922
H67   H     H_    0.158656 0.251162 0.138805 0.121552
H68   H     H_    0.838839 0.249736 0.858493 0.124921
O1    O     O_R   0.788190 0.043000 0.172520 -0.504625
O2    O     O_R   0.211810 0.043000 0.827480 -0.509122
O3    O     O_R   0.288190 0.543000 0.172520 -0.504624
O4    O     O_R   0.711810 0.543000 0.827480 -0.509112
O5    O     O_R   0.556550 0.253260 0.323480 -0.503524
O6    O     O_R   0.443450 0.253260 0.676520 -0.509756
O7    O     O_R   0.056550 0.753260 0.323480 -0.503528
O8    O     O_R   0.943450 0.753260 0.676520 -0.509776
O9    O     O_R   0.545830 0.051610 0.330160 -0.526037
O10   O     O_R   0.454170 0.051610 0.669840 -0.539609
O11   O     O_R   0.045830 0.551610 0.330160 -0.526033
O12   O     O_R   0.954170 0.551610 0.669840 -0.539579
O13   O     O_R   0.681920 0.959720 0.327070 -0.519203
O14   O     O_R   0.318080 0.959720 0.672930 -0.543590
O15   O     O_R   0.181920 0.459720 0.327070 -0.519202
O16   O     O_R   0.818080 0.459720 0.672930 -0.543590
O17   O     O_3   0.668190 0.168190 0.250820 -0.273752
O18   O     O_3   0.331810 0.168190 0.749180 -0.288515
O19   O     O_3   0.168190 0.668190 0.250820 -0.273753
O20   O     O_3   0.831810 0.668190 0.749180 -0.288514
O21   O     O_R   0.766240 0.292300 0.176860 -0.507332
O22   O     O_R   0.233760 0.292300 0.823140 -0.502602
O23   O     O_R   0.266240 0.792300 0.176860 -0.507336
O24   O     O_R   0.733760 0.792300 0.823140 -0.502606
O25   O     O_R   0.670310 0.409160 0.168720 -0.531120
O26   O     O_R   0.329690 0.409160 0.831280 -0.527720
O27   O     O_R   0.170310 0.909160 0.168720 -0.531116
O28   O     O_R   0.829690 0.909160 0.831280 -0.527715
O29   O     O_R   0.556160 0.251900 0.173380 -0.510885
O30   O     O_R   0.443840 0.251900 0.826620 -0.521382
O31   O     O_R   0.056160 0.751900 0.173380 -0.510893
O32   O     O_R   0.943840 0.751900 0.826620 -0.521390
O33   O     O_R   0.545410 0.050140 0.168240 -0.533813
O34   O     O_R   0.454590 0.050140 0.831760 -0.526531
O35   O     O_R   0.045410 0.550140 0.168240 -0.533810
O36   O     O_R   0.954590 0.550140 0.831760 -0.526515
O37   O     O_R   0.681530 0.958350 0.176970 -0.519741
O38   O     O_R   0.318470 0.958350 0.823030 -0.518798
O39   O     O_R   0.181530 0.458350 0.176970 -0.519745
O40   O     O_R   0.818470 0.458350 0.823030 -0.518802
O41   O     O_R   0.788610 0.044480 0.334450 -0.492415
O42   O     O_R   0.211390 0.044480 0.665550 -0.478272
O43   O     O_R   0.288610 0.544480 0.334450 -0.492422
O44   O     O_R   0.711390 0.544480 0.665550 -0.478291
O45   O     O_R   0.766630 0.293670 0.326970 -0.513044
O46   O     O_R   0.233370 0.293670 0.673030 -0.501916
O47   O     O_R   0.266630 0.793670 0.326970 -0.513050
O48   O     O_R   0.733370 0.793670 0.673030 -0.501908
O49   O     O_R   0.670730 0.410640 0.330640 -0.537419
O50   O     O_R   0.329270 0.410640 0.669360 -0.537115
O51   O     O_R   0.170730 0.910640 0.330640 -0.537421
O52   O     O_R   0.829270 0.910640 0.669360 -0.537119
O53   O     O_3   0.885026 0.867942 0.318375 -0.560774
C141  C     C_3   0.851846 0.755280 0.301178 0.006175
H69   H     H_    0.795474 0.770541 0.293017 0.142001
H70   H     H_    0.859668 0.685067 0.343655 0.116376
C142  C     C_3   0.880601 0.706293 0.229912 -0.255003
H71   H     H_    0.879473 0.780744 0.189140 0.180843
H72   H     H_    0.935220 0.676739 0.237770 0.199177
C143  C     C_3   0.838432 0.597679 0.201150 -0.472699
H73   H     H_    0.862092 0.562293 0.150744 0.142782
H74   H     H_    0.784361 0.627281 0.188997 0.148752
H75   H     H_    0.837548 0.522170 0.241081 0.163036
O54   O     O_3   0.095469 0.907482 0.667943 -0.561774
C144  C     C_3   0.120920 0.787899 0.685298 0.016810
H76   H     H_    0.177701 0.788448 0.692057 0.138549
H77   H     H_    0.105856 0.718863 0.643399 0.131858
C145  C     C_3   0.093835 0.747263 0.758555 -0.235764
H78   H     H_    0.090085 0.827631 0.795825 0.184007
H79   H     H_    0.042180 0.706592 0.750920 0.236764
C146  C     C_3   0.140231 0.649030 0.793061 -0.477879
H80   H     H_    0.146115 0.568671 0.756172 0.165927
H81   H     H_    0.116516 0.617120 0.843807 0.154584
H82   H     H_    0.192241 0.687513 0.805970 0.141257
O55   O     O_3   0.385031 0.367937 0.318376 -0.560777
C147  C     C_3   0.351844 0.255284 0.301177 0.006174
H83   H     H_    0.295475 0.270566 0.293000 0.142017
H84   H     H_    0.359646 0.185075 0.343661 0.116368
C148  C     C_3   0.380612 0.206272 0.229922 -0.254988
H85   H     H_    0.379522 0.280722 0.189148 0.180869
H86   H     H_    0.435220 0.176669 0.237803 0.199143
C149  C     C_3   0.338422 0.097691 0.201146 -0.472727
H87   H     H_    0.362096 0.062267 0.150759 0.142784
H88   H     H_    0.284369 0.127342 0.188958 0.148738
H89   H     H_    0.337494 0.022197 0.241081 0.163058
O56   O     O_3   0.595449 0.407500 0.667942 -0.561796
C150  C     C_3   0.620921 0.287941 0.685319 0.016838
H90   H     H_    0.677698 0.288553 0.692116 0.138588
H91   H     H_    0.605908 0.218887 0.643410 0.131796
C151  C     C_3   0.593794 0.247280 0.758557 -0.235619
H92   H     H_    0.589902 0.327681 0.795797 0.184105
H93   H     H_    0.542189 0.206395 0.750872 0.236672
C152  C     C_3   0.640272 0.149254 0.793162 -0.477922
H94   H     H_    0.646307 0.068873 0.756309 0.165865
H95   H     H_    0.616531 0.117304 0.843885 0.154598
H96   H     H_    0.692221 0.187957 0.806134 0.141232

loop_
_geom_bond_atom_site_label_1
_geom_bond_atom_site_label_2
_ccdc_geom_bond_type
C128  O16   A    
C99   C103  A    
C133  C137  S    
C55   C59   A    
Cr8   O52   S    
C146  H80   S    
C73   C93   A    
C136  C140  S    
C75   C95   A    
C135  C139  S    
C84   C112  A    
C103  H31   S    
C79   C99   A    
O54   C144  S    
C5    C6    S    
Cr10  O34   S    
C123  O7    A    
C100  C104  A    
C121  O5    A    
C141  H69   S    
C94   H26   S    
C9    C13   A    
C46   O30   A    
C131  C140  S    
C92   O40   A    
C55   C124  S    
C11   C15   A    
C50   C90   S    
C66   C72   A    
C12   C16   A    
Cr9   O17   S    
C87   C115  A    
C59   C60   A    
C8    C135  S    
C26   H54   S    
C68   H12   S    
C30   H50   S    
C151  H93   S    
Cr8   O32   S    
C97   H21   S    
C102  H30   S    
C145  C146  S    
Cr3   O19   S    
C92   O4    A    
C121  O9    A    
C106  H34   S    
Cr12  O36   S    
C48   C140  S    
C98   C102  A    
Cr5   O5    S    
C85   H17   S    
C32   C34   A    
C48   O32   A    
C78   C82   A    
C11   C27   A    
C16   C20   A    
C87   H19   S    
O56   C150  S    
C96   H28   S    
C124  O12   A    
C36   H60   S    
C129  C133  S    
C147  H83   S    
C28   H56   S    
C90   O38   A    
C6    H42   S    
Cr7   O7    S    
Cr8   O20   S    
Cr1   O41   S    
C108  H36   S    
C21   H45   S    
C42   H66   S    
Cr10  O10   S    
C117  O49   A    
C5    C137  S    
Cr12  O16   S    
C54   C61   A    
C30   C36   A    
C119  O51   A    
C29   C35   A    
C127  O15   A    
C120  O52   A    
Cr5   O25   S    
C8    C140  S    
C144  H77   S    
C1    O25   A    
C76   C96   A    
Cr4   O24   S    
C69   C70   A    
C24   H48   S    
C65   H9    S    
C73   C77   A    
C103  C107  A    
C67   C69   A    
C75   C79   A    
C130  H38   S    
Cr1   O1    S    
C88   C116  A    
Cr8   O8    S    
C63   H7    S    
C21   C49   A    
Cr11  O39   S    
C7    C8    S    
C132  C139  S    
Cr5   O29   S    
C146  H81   S    
C53   C122  S    
C18   C42   A    
C89   O1    A    
C114  C126  S    
C152  H95   S    
C110  O54   S    
Cr9   O33   S    
Cr4   O20   S    
Cr3   O47   S    
C34   H58   S    
C59   C67   A    
C85   C93   A    
C147  C148  S    
Cr11  O11   S    
Cr6   O18   S    
C129  H37   S    
Cr7   O51   S    
C77   C97   A    
C24   C28   A    
C132  H40   S    
C47   O31   A    
C84   C116  A    
C71   H15   S    
C142  H71   S    
C72   H16   S    
C1    C12   S    
C2    C11   S    
C20   C44   A    
C149  H88   S    
C111  O55   S    
C39   H61   S    
C83   C115  A    
C143  H73   S    
C10   C14   A    
C17   C49   A    
C93   H25   S    
Cr2   O22   S    
Cr9   O13   S    
C145  H79   S    
C132  C136  S    
Cr11  O15   S    
C2    O22   A    
Cr9   O37   S    
C54   C121  S    
C74   C78   A    
Cr3   O23   S    
C47   C139  S    
C101  H29   S    
C129  C130  S    
C105  C109  A    
C40   H62   S    
C86   H18   S    
C107  C111  A    
Cr2   O46   S    
C41   H65   S    
C15   C31   A    
Cr7   O19   S    
C16   C32   A    
C13   C17   A    
C150  C151  S    
Cr9   O9    S    
C85   C113  A    
C71   C72   A    
C57   C58   A    
C46   O34   A    
C141  H70   S    
C37   C41   A    
C61   C62   A    
C126  O14   A    
C148  C149  S    
C69   H13   S    
C91   O39   A    
C63   C64   A    
C67   H11   S    
C40   C44   A    
C99   H23   S    
C142  C143  S    
C125  O41   A    
C4    C9    S    
C4    O24   A    
C117  O45   A    
Cr12  O12   S    
C24   C52   A    
C88   C96   A    
C120  O48   A    
C141  C142  S    
C74   C94   A    
C143  H75   S    
C80   C84   A    
C9    C25   A    
C130  C134  S    
C15   C19   A    
Cr7   O31   S    
C12   C28   A    
C13   C29   A    
C6    C133  S    
C106  C110  A    
C122  O6    A    
C66   H10   S    
C21   C25   A    
C51   C91   S    
C44   H68   S    
C100  H24   S    
C62   H6    S    
C22   C50   A    
C147  H84   S    
C73   C120  S    
Cr4   O48   S    
C75   C118  S    
C3    O27   A    
C25   H53   S    
C19   C43   A    
C29   H49   S    
C150  H90   S    
C76   C80   A    
C49   C89   S    
O55   C147  S    
C53   C57   A    
Cr6   O6    S    
Cr1   O21   S    
C56   C60   A    
C32   H52   S    
C148  H85   S    
C56   C123  S    
C47   O35   A    
C144  H76   S    
C61   H5    S    
Cr6   O50   S    
C64   H8    S    
C104  H32   S    
C81   C109  A    
C83   C111  A    
C52   C92   S    
Cr3   O43   S    
C7    H43   S    
C131  C132  S    
Cr4   O44   S    
C104  C108  A    
C18   C50   A    
C5    H41   S    
Cr2   O18   S    
C151  H92   S    
C22   H46   S    
C43   H67   S    
C57   C65   A    
C38   C42   A    
Cr11  O19   S    
Cr6   O26   S    
C76   C117  S    
C36   C38   A    
C2    O26   A    
Cr10  O14   S    
C79   C83   A    
C152  H94   S    
C134  H2    S    
C136  H4    S    
C127  O43   A    
C8    H44   S    
C128  O44   A    
C108  C112  A    
C7    C136  S    
C123  O11   A    
C60   C68   A    
C77   C81   A    
C22   C26   A    
C81   C113  A    
Cr2   O42   S    
C130  C137  S    
C37   H63   S    
C109  O53   S    
C151  C152  S    
C88   H20   S    
C107  H35   S    
C14   C18   A    
C135  H3    S    
C74   C119  S    
C149  H89   S    
C33   C39   A    
Cr6   O30   S    
C133  H1    S    
C82   C110  A    
C35   C37   A    
C143  H74   S    
C90   O2    A    
C144  C145  S    
C131  C135  S    
C70   H14   S    
Cr3   O3    S    
C98   H22   S    
C113  C125  S    
C23   H47   S    
Cr8   O28   S    
C115  C127  S    
C126  O42   A    
Cr5   O49   S    
C105  H33   S    
C35   H59   S    
C4    O28   A    
C86   C94   A    
C118  O46   A    
C33   H57   S    
C58   C66   A    
C129  C138  S    
Cr10  O18   S    
Cr5   O17   S    
C78   C98   A    
C31   C33   A    
C23   C27   A    
C48   O36   A    
C31   H51   S    
C46   C138  S    
C45   O29   A    
C10   C26   A    
Cr7   O27   S    
C80   C100  A    
C14   C30   A    
C124  O8    A    
C101  C105  A    
C5    C134  S    
C122  O10   A    
C146  H82   S    
C89   O37   A    
C82   C114  A    
C152  H96   S    
C39   C43   A    
C65   C71   A    
C87   C95   A    
C150  H91   S    
Cr1   O45   S    
C6    C138  S    
C53   C62   A    
Cr12  O40   S    
C23   C51   A    
Cr12  O20   S    
C119  O47   A    
C55   C64   A    
C45   C137  S    
O53   C141  S    
C56   C63   A    
C3    O23   A    
C148  H86   S    
C1    O21   A    
C95   H27   S    
C142  H72   S    
Cr11  O35   S    
C54   C58   A    
C149  H87   S    
Cr1   O17   S    
C38   H64   S    
C134  C138  S    
C131  H39   S    
C86   C114  A    
C145  H78   S    
C20   C52   A    
C3    C10   S    
Cr10  O38   S    
C7    C139  S    
C102  C106  A    
C27   H55   S    
C17   C41   A    
Cr4   O4    S    
C125  O13   A    
C19   C51   A    
C112  O56   S    
C116  C128  S    
C68   C70   A    
C34   C40   A    
C118  O50   A    
C91   O3    A    
Cr2   O2    S    
C97   C101  A    
C45   O33   A    
