data_mof_unit_20244.cif
_audit_creation_date              2012-10-26T19:35:15-0400
_audit_creation_method            fapswitch 2.2
_symmetry_space_group_name_H-M    P1
_symmetry_Int_Tables_number       1
_space_group_crystal_system       triclinic
_cell_length_a                    10.743788
_cell_length_b                    10.867849
_cell_length_c                    9.584373
_cell_angle_alpha                 89.401757
_cell_angle_beta                  89.522455
_cell_angle_gamma                 90.947909
_cell_volume                      1118.83462535

loop_
_atom_site_label
_atom_site_type_symbol
_atom_type_description
_atom_site_fract_x
_atom_site_fract_y
_atom_site_fract_z
_atom_type_partial_charge
C1    C     C_R   0.504373 0.262478 0.499876 0.541014
C2    C     C_R   0.513662 0.936226 0.369777 -0.129475
C3    C     C_R   0.512620 0.870467 0.496809 -0.043194
C4    C     C_R   0.263104 0.480670 0.501085 0.547231
C5    C     C_R   0.534276 0.935578 0.618436 -0.090935
C6    C     C_3   0.483878 0.925333 0.763819 -0.188635
C7    C     C_3   0.492901 0.066780 0.767040 0.552736
C8    C     C_R   0.609592 0.509803 0.071619 0.220445
C9    C     C_R   0.392307 0.493450 0.074879 -0.028561
C10   C     C_R   0.392243 0.494517 0.927387 -0.018177
C11   C     C_R   0.608942 0.508011 0.924257 0.077286
C12   C     C_R   0.064096 0.412494 0.629163 -0.014438
C13   C     C_3   0.698701 0.612558 0.911177 -0.227533
C14   C     C_3   0.701576 0.616581 0.070703 0.515180
C15   C     C_R   0.500886 0.737472 0.499295 0.566848
C16   C     C_R   0.736460 0.482060 0.500928 0.536518
C17   C     C_R   0.125983 0.366817 0.747741 -0.110734
C18   C     C_R   0.061318 0.339434 0.870684 -0.123708
C19   C     C_R   0.932780 0.345108 0.874500 -0.122493
C20   C     C_R   0.868286 0.376523 0.754423 -0.118225
C21   C     C_R   0.931858 0.415293 0.630982 0.007234
C22   C     C_3   0.158655 0.285177 0.250416 -0.119561
C23   C     C_R   0.129086 0.443828 0.503889 -0.012878
C24   C     C_3   0.330462 0.119911 0.914979 -0.081590
C25   C     C_3   0.705859 0.092997 0.834064 -0.156348
C26   C     C_3   0.916183 0.657089 0.105923 -0.117653
C27   C     C_3   0.700164 0.833481 0.092686 -0.143528
C28   C     C_3   0.645589 0.162273 0.205020 -0.073458
C29   C     C_R   0.063414 0.430489 0.378182 0.239908
C30   C     C_R   0.934303 0.435032 0.379902 -0.125093
C31   C     C_R   0.869013 0.446841 0.505389 -0.069057
C32   C     C_R   0.538270 0.061597 0.618229 0.004747
C33   C     C_R   0.520438 0.129713 0.496215 -0.004458
C34   C     C_R   0.523451 0.064977 0.367735 0.220025
Cu1   Cu    Cu3+1 0.499990 0.499980 0.640670 0.943908
Cu2   Cu    Cu3+1 0.500010 0.500020 0.359330 1.022705
H1    H     H_    0.547482 0.877758 0.835830 0.103869
H2    H     H_    0.350161 0.032264 0.971245 0.127755
H3    H     H_    0.228022 0.129348 0.914038 0.091760
H4    H     H_    0.737106 0.145178 0.739650 0.123255
H5    H     H_    0.723666 0.993636 0.820553 0.094589
H6    H     H_    0.763865 0.124437 0.922159 0.109486
H7    H     H_    0.304289 0.495969 0.875268 0.123915
H8    H     H_    0.787270 0.584602 0.862096 0.121394
H9    H     H_    0.655708 0.693158 0.859921 0.121648
H10   H     H_    0.917637 0.733167 0.182069 0.132732
H11   H     H_    0.920697 0.693121 0.997229 0.083791
H12   H     H_    0.304503 0.492121 0.128775 0.182089
H13   H     H_    0.002575 0.604576 0.121957 0.172826
H14   H     H_    0.624183 0.897466 0.067552 0.151552
H15   H     H_    0.761625 0.830596 0.999256 0.069032
H16   H     H_    0.753533 0.872645 0.180694 0.125351
H17   H     H_    0.769114 0.362542 0.759909 0.158301
H18   H     H_    0.885299 0.425541 0.283137 0.193378
H19   H     H_    0.692931 0.212959 0.290510 0.101308
H20   H     H_    0.642570 0.225744 0.113830 0.169444
H21   H     H_    0.702198 0.082176 0.175972 0.081828
H22   H     H_    0.502049 0.888791 0.272164 0.176753
H23   H     H_    0.223099 0.343514 0.744505 0.167597
H24   H     H_    0.386781 0.888158 0.765992 0.128765
H25   H     H_    0.110586 0.307964 0.961305 0.112623
H26   H     H_    0.882468 0.318649 0.968776 0.112131
H27   H     H_    0.075439 0.224312 0.237045 0.096763
H28   H     H_    0.211019 0.256818 0.344988 0.137432
H29   H     H_    0.222225 0.271519 0.160608 0.119569
H30   H     H_    0.371043 0.198944 0.972625 0.177806
N1    N     N_R   0.500790 0.500930 0.147930 -0.232074
N2    N     N_R   0.500790 0.500890 0.852020 -0.232332
O1    O     O_R   0.500000 0.319640 0.618810 -0.471454
O2    O     O_3   0.374536 0.121766 0.775665 -0.561118
O3    O     O_3   0.579413 0.116489 0.865597 -0.557669
O4    O     O_3   0.813528 0.577324 0.132782 -0.579096
O5    O     O_3   0.646536 0.719494 0.135586 -0.530499
O6    O     O_3   0.522445 0.125056 0.239866 -0.555639
O7    O     O_R   0.500010 0.319680 0.381230 -0.482755
O8    O     O_R   0.319640 0.499980 0.618820 -0.531528
O9    O     O_R   0.319650 0.500020 0.381230 -0.473703
O10   O     O_R   0.499990 0.680320 0.618770 -0.503068
O11   O     O_R   0.500000 0.680360 0.381190 -0.456557
O12   O     O_R   0.680350 0.499980 0.618770 -0.524778
O13   O     O_R   0.680360 0.500020 0.381180 -0.461544
O14   O     O_3   0.123636 0.409972 0.253187 -0.590981

loop_
_geom_bond_atom_site_label_1
_geom_bond_atom_site_label_2
_ccdc_geom_bond_type
C26   O4    S    
Cu1   Cu2   S    
C28   O6    S    
C7    O2    S    
C28   H20   S    
Cu2   N1    S    
C24   O2    S    
C28   H21   S    
C27   H16   S    
C16   C31   S    
C21   C31   A    
C12   C23   A    
C23   C29   A    
Cu2   O9    S    
C25   H4    S    
C7    O3    S    
C5    C6    S    
C15   O10   A    
C19   H26   S    
Cu1   O12   S    
C24   H3    S    
C18   C19   A    
C22   H27   S    
C15   O11   A    
C19   C20   A    
C12   C17   A    
C24   H2    S    
C25   O3    S    
C9    C10   A    
C27   H14   S    
C24   H30   S    
C5    C32   A    
C2    C34   A    
C13   C14   S    
C28   H19   S    
C27   H15   S    
C33   C34   A    
Cu1   O8    S    
C1    C33   S    
C1    O7    A    
C14   O5    S    
C6    H24   S    
C26   H13   S    
C25   H5    S    
C4    C23   S    
C12   C21   A    
C1    O1    A    
C16   O12   A    
C9    N1    A    
C22   H29   S    
C29   C30   A    
Cu2   O7    S    
C30   H18   S    
Cu2   O13   S    
C17   C18   A    
C6    H1    S    
C26   H11   S    
C17   H23   S    
C34   O6    S    
C22   O14   S    
C9    H12   S    
C3    C15   S    
C11   N2    A    
C8    C14   S    
C7    C32   S    
C10   H7    S    
C14   O4    S    
C20   H17   S    
C3    C5    A    
Cu2   O11   S    
C25   H6    S    
C2    H22   S    
C18   H25   S    
C6    C7    S    
C10   N2    A    
Cu1   O10   S    
C32   C33   A    
C2    C3    A    
C29   O14   S    
C13   H9    S    
C11   C13   S    
C30   C31   A    
Cu1   N2    S    
C8    C11   A    
C16   O13   A    
C4    O8    A    
C26   H10   S    
C22   H28   S    
C4    O9    A    
C20   C21   A    
Cu1   O1    S    
C8    N1    A    
C27   O5    S    
C13   H8    S    
