data_mof_unit_20963.cif
_audit_creation_date              2012-10-26T19:23:04-0400
_audit_creation_method            fapswitch 2.2
_symmetry_space_group_name_H-M    P1
_symmetry_Int_Tables_number       1
_space_group_crystal_system       triclinic
_cell_length_a                    17.368458
_cell_length_b                    13.026967
_cell_length_c                    11.660303
_cell_angle_alpha                 101.077839
_cell_angle_beta                  90.171515
_cell_angle_gamma                 91.212062
_cell_volume                      2588.43620647

loop_
_atom_site_label
_atom_site_type_symbol
_atom_type_description
_atom_site_fract_x
_atom_site_fract_y
_atom_site_fract_z
_atom_type_partial_charge
C1    C     C_R   0.499917 0.298534 0.477059 0.620119
C2    C     C_R   0.504414 0.860000 0.434858 0.386500
C3    C     C_R   0.469614 0.030088 0.545422 -0.079723
C4    C     C_R   0.491829 0.966313 0.438403 -0.078740
C5    C     C_R   0.423617 0.406479 0.027152 0.429847
C6    C     C_R   0.576933 0.591697 0.972811 0.457236
C7    C     C_R   0.432466 0.413360 0.148549 0.604289
C8    C     C_R   0.571287 0.580263 0.850660 0.620485
C9    C     C_R   0.531333 0.542087 0.155464 0.083458
C10   C     C_R   0.465276 0.462381 0.845280 0.075759
C11   C     C_R   0.526637 0.534946 0.032678 -0.104791
C12   C     C_R   0.502571 0.702020 0.522513 0.608026
C13   C     C_R   0.471097 0.467490 0.967846 -0.111798
C14   C     C_R   0.350743 0.501230 0.514976 0.612254
C15   C     C_R   0.649324 0.497084 0.484909 0.628354
C16   C     C_R   0.266458 0.501180 0.519275 -0.078001
C17   C     C_R   0.732885 0.482298 0.478169 -0.060195
C18   C     C_R   0.227076 0.436778 0.426062 0.350069
C19   C     C_R   0.765770 0.424224 0.555554 0.368534
C20   C     C_R   0.148687 0.447644 0.408216 0.147557
C21   C     C_R   0.845276 0.411905 0.560335 0.217178
C22   C     C_R   0.106823 0.514427 0.494563 -0.033079
C23   C     C_R   0.498632 0.817195 0.536078 -0.018128
C24   C     C_R   0.892111 0.450925 0.479374 -0.029603
C25   C     C_R   0.145006 0.574608 0.591790 0.397888
C26   C     C_R   0.859007 0.503247 0.397184 0.376503
C27   C     C_R   0.225277 0.571573 0.603350 0.134318
C28   C     C_R   0.780309 0.523880 0.399209 0.141737
C29   C     C_2   0.023107 0.523786 0.487105 0.519607
C30   C     C_2   0.976123 0.439796 0.480737 0.473977
C31   C     C_R   0.496815 0.183807 0.460505 -0.012125
C32   C     C_R   0.504395 0.011265 0.338434 0.206190
C33   C     C_R   0.456152 0.984207 0.644926 0.216685
C34   C     C_R   0.519809 0.119356 0.354603 0.117608
C35   C     C_R   0.483944 0.883668 0.644504 0.148494
C36   C     C_R   0.467495 0.138671 0.551825 0.383134
Cu1   Cu    Cu3+1 0.505800 0.507690 0.615350 1.246682
Cu2   Cu    Cu3+1 0.494200 0.492310 0.384650 1.219486
F1    F     F_    0.266125 0.364401 0.349896 -0.492150
F2    F     F_    0.904177 0.534543 0.314881 -0.497973
F3    F     F_    0.534067 0.800586 0.337152 -0.531567
F4    F     F_    0.444713 0.202888 0.650921 -0.546813
F5    F     F_    0.719627 0.378011 0.625770 -0.524645
F6    F     F_    0.624763 0.628235 0.794151 -0.496457
F7    F     F_    0.387835 0.351443 0.203226 -0.479480
F8    F     F_    0.369709 0.339445 0.968128 -0.514184
F9    F     F_    0.632858 0.655495 0.031325 -0.490288
F10   F     F_    0.005546 0.344244 0.483260 -0.549257
F11   F     F_    0.993682 0.621474 0.500312 -0.505873
F12   F     F_    0.103186 0.637128 0.674393 -0.477137
H1    H     H_    0.422075 0.411876 0.794696 0.238149
H2    H     H_    0.321375 0.916185 0.790649 0.389339
H3    H     H_    0.571659 0.596611 0.206651 0.275773
H4    H     H_    0.752240 0.480803 0.149146 0.384342
H5    H     H_    0.268606 0.551653 0.836504 0.366866
H6    H     H_    0.847978 0.312668 0.834685 0.388694
H7    H     H_    0.188128 0.450071 0.163938 0.359933
H8    H     H_    0.575291 0.949749 0.932873 0.422745
H9    H     H_    0.667270 0.052141 0.233722 0.375808
H10   H     H_    0.407602 0.046085 0.138932 0.383649
N1    N     N_R   0.514530 0.519260 0.788680 -0.284673
N2    N     N_R   0.485470 0.480740 0.211320 -0.303275
O1    O     O_R   0.504120 0.354440 0.581590 -0.459424
O2    O     O_2   0.807194 0.670169 0.266358 -0.075153
O3    O     O_3   0.708179 0.522767 0.183564 -0.469023
O4    O     O_2   0.336056 0.717487 0.666688 -0.280347
O5    O     O_2   0.218871 0.739343 0.782817 -0.120264
O6    O     O_3   0.311845 0.593654 0.812884 -0.465512
O7    O     O_2   0.902243 0.238927 0.616610 -0.137444
O8    O     O_2   0.957389 0.406382 0.719262 -0.189430
O9    O     O_3   0.821968 0.350676 0.780249 -0.387916
O10   O     O_2   0.083835 0.273618 0.281347 -0.080709
O11   O     O_2   0.039625 0.439645 0.238748 -0.191683
O12   O     O_R   0.495880 0.645560 0.418410 -0.471669
O13   O     O_3   0.174156 0.376340 0.166066 -0.347659
O14   O     O_2   0.473521 0.782777 0.825887 -0.166223
O15   O     O_2   0.601991 0.810322 0.747388 -0.188268
O16   O     O_3   0.537910 0.967822 0.876002 -0.383340
O17   O     O_2   0.530397 0.214297 0.169086 -0.157249
O18   O     O_2   0.633298 0.253563 0.315425 -0.279952
O19   O     O_3   0.633290 0.074621 0.175200 -0.403547
O20   O     O_2   0.557271 0.883766 0.145602 -0.106607
O21   O     O_2   0.423343 0.857009 0.198416 -0.200275
O22   O     O_3   0.456573 0.016851 0.105215 -0.371378
O23   O     O_R   0.494320 0.341440 0.386760 -0.432703
O24   O     O_2   0.441708 0.126563 0.844917 -0.060230
O25   O     O_2   0.328686 0.092386 0.716548 -0.166870
O26   O     O_3   0.363870 0.953970 0.838949 -0.382444
O27   O     O_R   0.505680 0.658560 0.613240 -0.433686
O28   O     O_R   0.391870 0.507230 0.608700 -0.478735
O29   O     O_R   0.608130 0.492770 0.391300 -0.474470
O30   O     O_R   0.382070 0.494240 0.413880 -0.444722
O31   O     O_R   0.617930 0.505760 0.586120 -0.410105
O32   O     O_2   0.682340 0.672248 0.361243 -0.209265
S1    S     S_3+6 0.744374 0.602386 0.303021 0.169993
S2    S     S_3+6 0.272906 0.660302 0.717953 0.125339
S3    S     S_3+6 0.884504 0.350189 0.670242 0.195563
S4    S     S_3+6 0.108097 0.383139 0.272349 0.190843
S5    S     S_3+6 0.524556 0.857455 0.775778 0.155445
S6    S     S_3+6 0.579607 0.169151 0.252397 0.115422
S7    S     S_3+6 0.485721 0.938111 0.194636 0.176030
S8    S     S_3+6 0.396692 0.043248 0.763169 0.220348

loop_
_geom_bond_atom_site_label_1
_geom_bond_atom_site_label_2
_ccdc_geom_bond_type
C22   C29   S    
C12   O12   A    
C11   C13   A    
C36   F4    S    
H5    O6    S    
H4    O3    S    
O10   S4    D    
O14   S5    D    
O9    S3    S    
C12   C23   S    
O6    S2    S    
Cu1   O28   S    
C28   S1    S    
C7    F7    S    
C30   F10   S    
C19   C21   A    
Cu1   Cu2   S    
C24   C26   A    
C3    C33   A    
C2    F3    S    
Cu2   O30   S    
C1    C31   S    
C25   F12   S    
C14   O28   A    
C17   C19   A    
C22   C25   A    
C34   S6    S    
C5    C13   A    
O8    S3    D    
C8    N1    A    
C16   C27   A    
O18   S6    D    
O22   S7    S    
C27   S2    S    
C35   S5    S    
C10   H1    S    
C1    O1    A    
Cu1   O1    S    
C19   F5    S    
C1    O23   A    
O11   S4    D    
C6    F9    S    
Cu2   O23   S    
C9    N2    A    
C8    F6    S    
C12   O27   A    
H2    O26   S    
C6    C11   A    
C5    C7    A    
C29   F11   S    
Cu2   O29   S    
O13   S4    S    
C33   S8    S    
C32   C34   A    
C2    C4    A    
C18   F1    S    
C7    N2    A    
C29   C30   D    
O25   S8    D    
C21   S3    S    
O17   S6    D    
O26   S8    S    
H6    O9    S    
C31   C34   A    
Cu1   O31   S    
C9    C11   A    
C14   O30   A    
C4    C32   A    
C20   C22   A    
C23   C35   A    
O5    S2    D    
C14   C16   S    
C10   N1    A    
C9    H3    S    
C3    C4    A    
O24   S8    D    
O16   S5    S    
Cu1   N1    S    
O4    S2    D    
Cu2   O12   S    
C15   C17   S    
O21   S7    D    
C32   S7    S    
C17   C28   A    
H9    O19   S    
O2    S1    D    
C10   C13   A    
C15   O31   A    
C6    C8    A    
O19   S6    S    
C25   C27   A    
C5    F8    S    
C26   C28   A    
Cu1   O27   S    
H7    O13   S    
H10   O22   S    
C26   F2    S    
C3    C36   A    
C33   C35   A    
O20   S7    D    
O15   S5    D    
C18   C20   A    
O32   S1    D    
C24   C30   S    
H8    O16   S    
C15   O29   A    
O3    S1    S    
C20   S4    S    
C16   C18   A    
C21   C24   A    
C2    C23   A    
C31   C36   A    
Cu2   N2    S    
O7    S3    D    
