data_mof_unit_60303.cif
_audit_creation_date              2012-12-10T16:51:54-0500
_audit_creation_method            fapswitch 2.2
_symmetry_space_group_name_H-M    P1
_symmetry_Int_Tables_number       1
_space_group_crystal_system       triclinic
_cell_length_a                    30.134692
_cell_length_b                    30.729661
_cell_length_c                    21.730502
_cell_angle_alpha                 90.000031
_cell_angle_beta                  134.916917
_cell_angle_gamma                 89.999948
_cell_volume                      14249.7791506

loop_
_atom_site_label
_atom_site_type_symbol
_atom_type_description
_atom_site_fract_x
_atom_site_fract_y
_atom_site_fract_z
_atom_type_partial_charge
C1    C     C_R   0.688959 0.809692 0.881074 0.931595
C2    C     C_R   0.311269 0.809460 0.119392 0.931099
C3    C     C_R   0.188733 0.309460 0.880608 0.931074
C4    C     C_R   0.811040 0.309691 0.118926 0.931600
C5    C     C_R   0.452861 0.786780 0.998254 0.124177
C6    C     C_R   0.547160 0.786777 0.001796 0.123401
C7    C     C_R   0.952800 0.286777 0.998122 0.123391
C8    C     C_R   0.047099 0.286782 0.001663 0.124191
C9    C     C_R   0.476856 0.667458 0.999773 -0.220962
C10   C     C_R   0.523068 0.667457 0.000087 -0.221597
C11   C     C_R   0.977013 0.167456 0.000065 -0.221598
C12   C     C_R   0.023225 0.167457 0.000379 -0.220953
C13   C     C_R   0.523592 0.826210 0.001101 -0.208034
C14   C     C_R   0.476462 0.826211 0.999012 -0.208366
C15   C     C_R   0.023457 0.326213 0.000827 -0.208356
C16   C     C_R   0.976327 0.326210 0.998738 -0.208037
C17   C     C_2   0.559627 0.873302 0.678603 -0.156610
C18   C     C_2   0.402765 0.910605 0.247041 -0.152751
C19   C     C_2   0.097198 0.410588 0.752928 -0.152746
C20   C     C_2   0.940374 0.373306 0.321389 -0.156607
C21   C     C_2   0.590345 0.903221 0.675753 -0.332320
C22   C     C_2   0.400545 0.912226 0.306309 -0.333558
C23   C     C_2   0.099462 0.412234 0.693706 -0.333591
C24   C     C_2   0.909657 0.403219 0.324250 -0.332332
C25   C     C_2   0.594319 0.837159 0.740075 -0.158174
C26   C     C_2   0.362654 0.879879 0.174745 -0.158284
C27   C     C_2   0.137307 0.379863 0.825227 -0.158294
C28   C     C_2   0.905683 0.337162 0.259919 -0.158167
C29   C     C_2   0.652695 0.843737 0.817454 -0.337160
C30   C     C_2   0.349733 0.841290 0.187450 -0.334192
C31   C     C_2   0.150279 0.341290 0.812550 -0.334151
C32   C     C_2   0.847303 0.343737 0.182546 -0.337151
C33   C     C_R   0.132704 0.749965 0.078853 -0.256591
C34   C     C_R   0.867295 0.749733 0.921123 -0.256705
C35   C     C_R   0.632705 0.249733 0.078877 -0.256705
C36   C     C_R   0.367296 0.249965 0.921147 -0.256595
C37   C     C_R   0.115169 0.750965 0.999743 -0.059087
C38   C     C_R   0.884822 0.750973 0.000223 -0.061730
C39   C     C_R   0.615178 0.250973 0.999777 -0.061731
C40   C     C_R   0.384831 0.250965 0.000257 -0.059083
C41   C     C_R   0.052161 0.752513 0.920717 -0.258698
C42   C     C_R   0.947823 0.752761 0.079224 -0.258733
C43   C     C_R   0.552177 0.252761 0.920776 -0.258731
C44   C     C_R   0.447838 0.252513 0.079283 -0.258697
C45   C     C_R   0.663437 0.749322 0.000498 0.926167
C46   C     C_R   0.336562 0.749323 0.999503 0.926773
C47   C     C_R   0.163437 0.249325 0.000495 0.926787
C48   C     C_R   0.836562 0.249320 0.999500 0.926150
C49   C     C_R   0.005718 0.752115 0.920146 0.122741
C50   C     C_R   0.994266 0.752363 0.079796 0.121871
C51   C     C_R   0.505734 0.252363 0.920204 0.121871
C52   C     C_R   0.494282 0.252115 0.079854 0.122740
C53   C     C_R   0.023168 0.751652 0.999926 0.057274
C54   C     C_R   0.976819 0.751654 0.000023 0.057456
C55   C     C_R   0.523181 0.251654 0.999977 0.057456
C56   C     C_R   0.476832 0.251652 0.000074 0.057274
C57   C     C_R   0.086963 0.751010 0.079609 0.121197
C58   C     C_R   0.913029 0.750772 0.920351 0.120617
C59   C     C_R   0.586971 0.250771 0.079649 0.120617
C60   C     C_R   0.413037 0.251011 0.920391 0.121198
C61   C     C_R   0.942296 0.751890 0.841398 -0.217475
C62   C     C_R   0.057689 0.752377 0.158545 -0.216626
C63   C     C_R   0.442311 0.252377 0.841455 -0.216627
C64   C     C_R   0.557704 0.251890 0.158602 -0.217475
C65   C     C_R   0.896127 0.750899 0.841502 -0.216958
C66   C     C_R   0.103863 0.751382 0.158454 -0.217676
C67   C     C_R   0.396137 0.251382 0.841545 -0.217677
C68   C     C_R   0.603872 0.250899 0.158498 -0.216958
C69   C     C_2   0.902711 0.589366 0.247007 -0.153634
C70   C     C_2   0.059618 0.626606 0.678806 -0.155036
C71   C     C_2   0.440382 0.126606 0.321194 -0.155035
C72   C     C_2   0.597290 0.089365 0.752994 -0.153637
C73   C     C_2   0.900611 0.587794 0.306396 -0.334106
C74   C     C_2   0.090294 0.596770 0.675729 -0.331495
C75   C     C_2   0.409706 0.096770 0.324272 -0.331501
C76   C     C_2   0.599388 0.087794 0.693603 -0.334105
C77   C     C_2   0.862549 0.620077 0.174689 -0.157690
C78   C     C_2   0.094312 0.662754 0.740276 -0.159738
C79   C     C_2   0.405689 0.162753 0.259723 -0.159741
C80   C     C_2   0.637452 0.120077 0.825312 -0.157687
C81   C     C_2   0.849676 0.658686 0.187404 -0.337465
C82   C     C_2   0.152796 0.656238 0.817503 -0.333352
C83   C     C_2   0.347204 0.156238 0.182497 -0.333354
C84   C     C_2   0.650324 0.158686 0.812596 -0.337464
C85   C     C_R   0.058668 0.560572 0.616579 0.928635
C86   C     C_R   0.939016 0.558290 0.378872 0.929335
C87   C     C_R   0.560983 0.058290 0.621128 0.929334
C88   C     C_R   0.441332 0.060572 0.383421 0.928632
C89   C     C_R   0.811222 0.690517 0.119344 0.940216
C90   C     C_R   0.189013 0.690286 0.881124 0.939805
C91   C     C_R   0.310987 0.190286 0.118876 0.939819
C92   C     C_R   0.688778 0.190517 0.880656 0.940201
C93   C     C_R   0.558711 0.939415 0.616610 0.928875
C94   C     C_R   0.438969 0.941705 0.378826 0.929147
C95   C     C_R   0.061033 0.441707 0.621177 0.929165
C96   C     C_R   0.941289 0.439415 0.383391 0.928888
C97   C     C_R   0.836996 0.750237 0.000191 0.891876
C98   C     C_R   0.163001 0.750232 0.999795 0.891559
C99   C     C_R   0.336999 0.250232 0.000205 0.891551
C100  C     C_R   0.663004 0.250237 0.999809 0.891874
C101  C     C_R   0.406203 0.786885 0.996865 -0.310697
C102  C     C_R   0.593821 0.786881 0.003193 -0.311400
C103  C     C_R   0.906140 0.286879 0.996728 -0.311382
C104  C     C_R   0.093758 0.286888 0.003056 -0.310710
C105  C     C_R   0.383761 0.747700 0.998384 -0.067000
C106  C     C_R   0.616234 0.747696 0.001611 -0.069037
C107  C     C_R   0.883766 0.247695 0.998387 -0.069085
C108  C     C_R   0.116239 0.247702 0.001613 -0.066960
C109  C     C_R   0.406252 0.707449 0.999184 0.033119
C110  C     C_R   0.593706 0.707447 0.000742 0.031249
C111  C     C_R   0.906333 0.207445 0.999330 0.031270
C112  C     C_R   0.093787 0.207450 0.000888 0.033106
C113  C     C_R   0.453019 0.706812 0.999462 0.078601
C114  C     C_R   0.546936 0.706810 0.000459 0.078271
C115  C     C_R   0.953104 0.206809 0.999615 0.078262
C116  C     C_R   0.047021 0.206812 0.000611 0.078610
C117  C     C_R   0.476461 0.746719 0.999446 0.045202
C118  C     C_R   0.523526 0.746718 0.000537 0.045619
C119  C     C_R   0.976474 0.246717 0.999459 0.045618
C120  C     C_R   0.023539 0.246719 0.000550 0.045192
H1    H     H_    0.388057 0.817527 0.996422 0.155843
H2    H     H_    0.611996 0.817523 0.003694 0.158815
H3    H     H_    0.887936 0.317521 0.996169 0.158847
H4    H     H_    0.111875 0.317531 0.003441 0.155802
H5    H     H_    0.039510 0.752970 0.859973 0.145372
H6    H     H_    0.960479 0.753406 0.139965 0.149128
H7    H     H_    0.539520 0.253406 0.860035 0.149128
H8    H     H_    0.460490 0.252970 0.140027 0.145371
H9    H     H_    0.928471 0.752133 0.779876 0.147086
H10   H     H_    0.071513 0.752810 0.220062 0.148551
H11   H     H_    0.428487 0.252810 0.779937 0.148551
H12   H     H_    0.571529 0.252132 0.220123 0.147086
H13   H     H_    0.847280 0.750376 0.780055 0.148488
H14   H     H_    0.152714 0.751045 0.219907 0.147454
H15   H     H_    0.347286 0.251045 0.780093 0.147454
H16   H     H_    0.652720 0.250376 0.219945 0.148488
H17   H     H_    0.932152 0.567189 0.249754 0.166972
H18   H     H_    0.009000 0.625379 0.634323 0.164773
H19   H     H_    0.491000 0.125378 0.365674 0.164775
H20   H     H_    0.567851 0.067188 0.750249 0.166971
H21   H     H_    0.865951 0.606349 0.298057 0.156352
H22   H     H_    0.139638 0.600807 0.713008 0.157328
H23   H     H_    0.360363 0.100808 0.286994 0.157328
H24   H     H_    0.634047 0.106350 0.701940 0.156354
H25   H     H_    0.845904 0.611788 0.112620 0.166722
H26   H     H_    0.071111 0.693923 0.723711 0.162985
H27   H     H_    0.428889 0.193923 0.276289 0.162984
H28   H     H_    0.654098 0.111788 0.887381 0.166722
H29   H     H_    0.872212 0.668886 0.251949 0.157473
H30   H     H_    0.173266 0.623847 0.837913 0.157482
H31   H     H_    0.326734 0.123847 0.162087 0.157482
H32   H     H_    0.627787 0.168886 0.748050 0.157473
H33   H     H_    0.460154 0.636288 0.999714 0.143582
H34   H     H_    0.539747 0.636286 0.000101 0.143717
H35   H     H_    0.960367 0.136285 0.000114 0.143714
H36   H     H_    0.039960 0.136287 0.000501 0.143582
H37   H     H_    0.541478 0.857027 0.001877 0.146826
H38   H     H_    0.458602 0.857029 0.998287 0.145855
H39   H     H_    0.041286 0.357032 0.001491 0.145850
H40   H     H_    0.958409 0.357027 0.997901 0.146822
H41   H     H_    0.508989 0.874462 0.633936 0.165330
H42   H     H_    0.432287 0.932741 0.249886 0.166416
H43   H     H_    0.067633 0.432698 0.750039 0.166441
H44   H     H_    0.991010 0.374470 0.366044 0.165339
H45   H     H_    0.639732 0.899255 0.713212 0.157635
H46   H     H_    0.365821 0.893707 0.297873 0.155933
H47   H     H_    0.134221 0.393739 0.702187 0.155951
H48   H     H_    0.860273 0.399248 0.286803 0.157640
H49   H     H_    0.571209 0.805936 0.723355 0.165937
H50   H     H_    0.346079 0.888139 0.112710 0.163658
H51   H     H_    0.153831 0.388107 0.887236 0.163626
H52   H     H_    0.928798 0.305941 0.276634 0.165931
H53   H     H_    0.673036 0.876166 0.837940 0.157880
H54   H     H_    0.372217 0.831113 0.251982 0.156558
H55   H     H_    0.127840 0.331122 0.748035 0.156538
H56   H     H_    0.826957 0.376165 0.162063 0.157875
H57   H     H_    0.181914 0.749149 0.139550 0.147593
H58   H     H_    0.818091 0.748735 0.860435 0.149997
H59   H     H_    0.681909 0.248735 0.139565 0.149997
H60   H     H_    0.318086 0.249150 0.860450 0.147591
O1    O     O_R   0.679230 0.769690 0.858450 -0.620580
O2    O     O_R   0.320770 0.769690 0.141550 -0.627929
O3    O     O_R   0.179230 0.269690 0.858450 -0.627924
O4    O     O_R   0.820770 0.269690 0.141550 -0.620577
O5    O     O_R   0.082500 0.545230 0.590410 -0.622195
O6    O     O_R   0.917500 0.545230 0.409590 -0.626926
O7    O     O_R   0.582500 0.045230 0.590410 -0.626925
O8    O     O_R   0.417500 0.045230 0.409590 -0.622194
O9    O     O_R   0.507930 0.954750 0.590450 -0.619560
O10   O     O_R   0.492070 0.954750 0.409550 -0.614945
O11   O     O_R   0.007930 0.454750 0.590450 -0.614961
O12   O     O_R   0.992070 0.454750 0.409550 -0.619560
O13   O     O_R   0.582530 0.954770 0.590430 -0.622068
O14   O     O_R   0.417470 0.954770 0.409570 -0.626837
O15   O     O_R   0.082530 0.454770 0.590430 -0.626842
O16   O     O_R   0.917470 0.454770 0.409570 -0.622070
O17   O     O_R   0.730270 0.820760 0.960570 -0.625312
O18   O     O_R   0.269730 0.820760 0.039430 -0.618081
O19   O     O_R   0.230270 0.320760 0.960570 -0.618069
O20   O     O_R   0.769730 0.320760 0.039430 -0.625309
O21   O     O_R   0.658400 0.724440 0.948940 -0.606599
O22   O     O_R   0.341600 0.724440 0.051060 -0.604458
O23   O     O_R   0.158400 0.224440 0.948940 -0.604475
O24   O     O_R   0.841600 0.224440 0.051060 -0.606580
O25   O     O_R   0.709450 0.775510 0.051050 -0.632041
O26   O     O_R   0.290550 0.775510 0.948950 -0.633596
O27   O     O_R   0.209450 0.275510 0.051050 -0.633583
O28   O     O_R   0.790550 0.275510 0.948950 -0.632052
O29   O     O_R   0.769710 0.679220 0.039380 -0.613046
O30   O     O_R   0.230290 0.679220 0.960620 -0.620040
O31   O     O_R   0.269710 0.179220 0.039380 -0.620038
O32   O     O_R   0.730290 0.179220 0.960620 -0.613048
O33   O     O_R   0.820750 0.730290 0.141500 -0.626969
O34   O     O_R   0.179250 0.730290 0.858500 -0.619402
O35   O     O_R   0.320750 0.230290 0.141500 -0.619402
O36   O     O_R   0.679250 0.230290 0.858500 -0.626967
O37   O     O_R   0.790530 0.724470 0.948890 -0.626509
O38   O     O_R   0.209470 0.724470 0.051110 -0.624728
O39   O     O_R   0.290530 0.224470 0.948890 -0.624731
O40   O     O_R   0.709470 0.224470 0.051110 -0.626509
O41   O     O_R   0.841580 0.775540 0.051010 -0.623764
O42   O     O_R   0.158420 0.775540 0.948990 -0.625525
O43   O     O_R   0.341580 0.275540 0.051010 -0.625527
O44   O     O_R   0.658420 0.275540 0.948990 -0.623763
O45   O     O_R   0.007900 0.545210 0.590430 -0.619428
O46   O     O_R   0.992100 0.545210 0.409570 -0.614931
O47   O     O_R   0.507900 0.045210 0.590430 -0.614931
O48   O     O_R   0.492100 0.045210 0.409570 -0.619429
Zn1   Zn    Zn3+2 0.715910 0.715890 0.931790 0.957735
Zn2   Zn    Zn3+2 0.284090 0.715890 0.068210 0.961362
Zn3   Zn    Zn3+2 0.215910 0.215890 0.931790 0.961360
Zn4   Zn    Zn3+2 0.784090 0.215890 0.068210 0.957739
Zn5   Zn    Zn3+2 0.784070 0.784090 0.068160 0.953218
Zn6   Zn    Zn3+2 0.215930 0.784090 0.931840 0.951081
Zn7   Zn    Zn3+2 0.284070 0.284090 0.068160 0.951094
Zn8   Zn    Zn3+2 0.715930 0.284090 0.931840 0.953210
Zn9   Zn    Zn3+2 0.450180 0.999980 0.499990 0.951186
Zn10  Zn    Zn3+2 0.549820 0.999980 0.500010 0.951329
Zn11  Zn    Zn3+2 0.950180 0.499980 0.499990 0.951318
Zn12  Zn    Zn3+2 0.049820 0.499980 0.500010 0.951188
N1    N     N_3   0.379870 0.667911 0.997382 -0.447374
H61   H     H_    0.415616 0.649544 0.052570 0.188455
H62   H     H_    0.360017 0.650263 0.941727 0.176158
N2    N     N_3   0.620058 0.667907 0.002486 -0.444576
H63   H     H_    0.584299 0.649562 0.947271 0.188334
H64   H     H_    0.639896 0.650239 0.058113 0.177892
N3    N     N_3   0.880020 0.167903 0.997660 -0.444539
H65   H     H_    0.915798 0.149583 0.052911 0.188323
H66   H     H_    0.860199 0.150208 0.942064 0.177895
N4    N     N_3   0.120209 0.167914 0.002762 -0.447410
H67   H     H_    0.084480 0.149520 0.947611 0.188459
H68   H     H_    0.140081 0.150292 0.058452 0.176158

loop_
_geom_bond_atom_site_label_1
_geom_bond_atom_site_label_2
_ccdc_geom_bond_type
C71   C75   D    
C55   C56   A    
C29   H53   S    
C75   H23   S    
C55   C59   A    
C16   H40   S    
C62   H10   S    
C69   C77   S    
O10   Zn10  S    
C104  C108  A    
C57   C66   A    
C72   C76   D    
O20   Zn8   S    
O9    Zn9   S    
C10   H34   S    
C40   C99   S    
C71   C79   S    
O27   Zn7   S    
C31   H55   S    
C53   C54   A    
C15   H39   S    
C32   H56   S    
C50   C54   A    
O31   Zn3   S    
C14   H38   S    
C64   C68   A    
C24   H48   S    
C41   H5    S    
C2    O18   A    
C38   C42   A    
O19   Zn7   S    
C24   C96   S    
C54   C58   A    
C35   C39   A    
O32   Zn4   S    
C116  C120  A    
O12   Zn12  S    
C48   C107  S    
C70   C78   S    
C100  O44   A    
N4    H68   S    
C15   C16   A    
C20   H44   S    
C46   C105  S    
C92   O36   A    
C21   H45   S    
N2    H63   S    
C35   C59   A    
N1    H61   S    
C2    O2    A    
C41   C49   A    
C97   O41   A    
O38   Zn2   S    
C91   O35   A    
O8    Zn9   S    
O37   Zn1   S    
C66   H14   S    
O2    Zn2   S    
C44   H8    S    
C64   H12   S    
C60   C67   A    
O1    Zn1   S    
C36   H60   S    
C70   C74   D    
O11   Zn11  S    
C3    O19   A    
C81   H29   S    
C101  H1    S    
C69   C73   D    
C22   H46   S    
C63   H11   S    
C19   C27   S    
C9    C10   A    
C110  C114  A    
C40   C44   A    
C51   C55   A    
C10   C114  A    
C11   H35   S    
O22   Zn2   S    
C81   C89   S    
C44   C52   A    
O21   Zn1   S    
C109  N1    S    
C74   H22   S    
C46   O22   A    
C103  H3    S    
O14   Zn9   S    
C94   O14   A    
C13   C14   A    
C25   C29   D    
C22   C94   S    
O34   Zn6   S    
C88   O8    A    
C12   H36   S    
C38   C97   S    
O33   Zn5   S    
C35   H59   S    
C28   C32   D    
C13   H37   S    
C37   C98   S    
C93   O9    A    
C28   H52   S    
C83   H31   S    
N3    H66   S    
C69   H17   S    
O13   Zn10  S    
C99   O43   A    
C101  C105  A    
O46   Zn12  S    
O40   Zn4   S    
C27   C31   D    
C80   C84   D    
C20   C24   D    
O15   Zn12  S    
C36   C40   A    
C62   C66   A    
C51   C63   A    
O4    Zn4   S    
C47   C108  S    
C73   H21   S    
C52   C64   A    
C43   H7    S    
C90   O30   A    
C1    O1    A    
C71   H19   S    
C20   C28   S    
C87   O7    A    
C36   C60   A    
N4    H67   S    
C19   H43   S    
C33   H57   S    
C33   C37   A    
C108  C112  A    
C5    C117  A    
N1    H62   S    
C34   C38   A    
O24   Zn4   S    
C80   H28   S    
C19   C23   D    
C112  N4    S    
C94   O10   A    
C63   C67   A    
O48   Zn10  S    
C67   H15   S    
C7    C119  A    
C59   C68   A    
C111  N3    S    
C78   C82   D    
C58   C65   A    
C114  C118  A    
C96   O16   A    
N3    H65   S    
C18   C26   S    
C48   O28   A    
C1    C29   S    
O30   Zn2   S    
O35   Zn7   S    
O29   Zn1   S    
C4    O4    A    
C68   H16   S    
C3    C31   S    
C109  C113  A    
C8    C104  A    
C76   C87   S    
C26   H50   S    
C5    C14   A    
C4    C32   S    
C17   H41   S    
C42   C50   A    
C61   H9    S    
C113  C117  A    
C76   H24   S    
C111  C115  A    
C91   O31   A    
C7    C16   A    
C99   O39   A    
C70   H18   S    
C8    C15   A    
C115  C119  A    
C98   O38   A    
O18   Zn6   S    
O45   Zn11  S    
C23   H47   S    
C34   H58   S    
C50   C62   A    
C85   O45   A    
C2    C30   S    
C72   H20   S    
C27   H51   S    
C90   O34   A    
O7    Zn10  S    
C11   C115  A    
C45   C106  S    
C8    C120  A    
C89   O33   A    
C106  C110  A    
C25   H49   S    
C46   O26   A    
O28   Zn8   S    
O42   Zn6   S    
C95   O15   A    
C95   O11   A    
C47   O23   A    
C85   O5    A    
O41   Zn5   S    
C18   C22   D    
C107  C111  A    
C84   H32   S    
C1    O17   A    
O43   Zn7   S    
O39   Zn3   S    
C82   H30   S    
C53   C57   A    
C86   O46   A    
C79   H27   S    
C119  C120  A    
C112  C116  A    
C86   O6    A    
C104  H4    S    
C33   C57   A    
C78   H26   S    
C83   C91   S    
C48   O24   A    
C87   O47   A    
C21   C93   S    
C82   C90   S    
C5    C101  A    
C47   O27   A    
O26   Zn6   S    
C17   C25   S    
C96   O12   A    
O25   Zn5   S    
O44   Zn8   S    
C9    C113  A    
C72   C80   S    
C45   O25   A    
C117  C118  A    
C6    C13   A    
C79   C83   D    
C18   H42   S    
C49   C61   A    
O17   Zn5   S    
C39   C100  S    
C88   O48   A    
C77   H25   S    
C105  C109  A    
C43   C51   A    
C49   C53   A    
C98   O42   A    
C7    C103  A    
O36   Zn8   S    
N2    H64   S    
O23   Zn3   S    
C102  C106  A    
O16   Zn11  S    
C97   O37   A    
C6    C102  A    
C74   C85   S    
C37   C41   A    
C17   C21   D    
C73   C86   S    
C92   O32   A    
C42   H6    S    
C9    H33   S    
O6    Zn11  S    
O5    Zn12  S    
C110  N2    S    
C75   C88   S    
C4    O20   A    
C56   C60   A    
C100  O40   A    
C45   O21   A    
C77   C81   D    
C39   C43   A    
C93   O13   A    
C34   C58   A    
C89   O29   A    
C23   C95   S    
C103  C107  A    
C84   C92   S    
C12   C116  A    
C102  H2    S    
O3    Zn3   S    
C3    O3    A    
C30   H54   S    
C65   H13   S    
C52   C56   A    
C11   C12   A    
C6    C118  A    
C61   C65   A    
C26   C30   D    
O47   Zn9   S    
