data_mof_unit_31130.cif
_audit_creation_date              2012-12-10T20:47:08-0500
_audit_creation_method            fapswitch 2.2
_symmetry_space_group_name_H-M    P1
_symmetry_Int_Tables_number       1
_space_group_crystal_system       triclinic
_cell_length_a                    10.707398
_cell_length_b                    8.936953
_cell_length_c                    8.093752
_cell_angle_alpha                 89.991843
_cell_angle_beta                  91.940391
_cell_angle_gamma                 89.890814
_cell_volume                      774.057845661

loop_
_atom_site_label
_atom_site_type_symbol
_atom_type_description
_atom_site_fract_x
_atom_site_fract_y
_atom_site_fract_z
_atom_type_partial_charge
C1    C     C_R   0.499852 0.217943 0.499976 0.930754
C2    C     C_R   0.067612 0.590679 0.631348 -0.111360
C3    C     C_R   0.127783 0.534364 0.492189 -0.054198
C4    C     C_R   0.875695 0.487788 0.516189 -0.057814
C5    C     C_R   0.061072 0.468293 0.360963 -0.219846
C6    C     C_R   0.934856 0.450419 0.370604 -0.202439
C7    C     C_1   0.499917 0.065166 0.499991 -0.166744
C8    C     C_1   0.500042 0.934820 0.499975 -0.143797
C9    C     C_R   0.500221 0.782057 0.499976 0.965079
C10   C     C_R   0.260167 0.515165 0.497308 0.940992
C11   C     C_R   0.741468 0.493005 0.504641 0.870106
C12   C     C_R   0.127123 0.687855 0.747933 0.637867
C13   C     C_R   0.901196 0.553709 0.821037 0.651521
C14   C     C_R   0.073979 0.714552 0.899738 -0.300578
C15   C     C_R   0.964612 0.641554 0.939098 -0.337102
C16   C     C_R   0.945315 0.542833 0.657102 -0.102119
F1    F     F_    0.233510 0.762053 0.712767 -0.670778
F2    F     F_    0.810571 0.463299 0.877712 -0.654133
H1    H     H_    0.106736 0.427170 0.252370 0.179977
H2    H     H_    0.883570 0.404849 0.264371 0.199088
H3    H     H_    0.120610 0.786626 0.989783 0.201626
H4    H     H_    0.929454 0.651576 0.062454 0.203762
N1    N     N_1   0.500000 0.500000 0.073640 -0.009643
N2    N     N_1   0.500000 0.500000 0.926360 0.016308
O1    O     O_R   0.500000 0.285350 0.636850 -0.607063
O2    O     O_R   0.500000 0.714650 0.636850 -0.579132
O3    O     O_R   0.500000 0.285360 0.363100 -0.619879
O4    O     O_R   0.500000 0.714640 0.363100 -0.629679
O5    O     O_R   0.316770 0.500000 0.636900 -0.592781
O6    O     O_R   0.683230 0.500000 0.636900 -0.558374
O7    O     O_R   0.316780 0.500000 0.363150 -0.646034
O8    O     O_R   0.683220 0.500000 0.363150 -0.624223
Zn1   Zn    Zn3+2 0.500000 0.500000 0.682780 1.076799
Zn2   Zn    Zn3+2 0.500000 0.500000 0.317220 1.013840

loop_
_geom_bond_atom_site_label_1
_geom_bond_atom_site_label_2
_ccdc_geom_bond_type
C12   F1    S    
C4    C16   A    
N1    N2    T    
C5    H1    S    
C9    O2    A    
C6    H2    S    
O2    Zn1   S    
N2    Zn1   S    
N1    Zn2   S    
C2    C12   A    
C2    C3    A    
O7    Zn2   S    
O4    Zn2   S    
C7    C8    T    
C3    C10   S    
C4    C11   S    
C1    O1    A    
C10   O5    A    
C13   F2    S    
C14   H3    S    
C12   C14   A    
C11   O8    A    
C13   C15   A    
O3    Zn2   S    
C5    C6    A    
O5    Zn1   S    
C2    C16   A    
C9    O4    A    
C4    C6    A    
C13   C16   A    
C1    O3    A    
C14   C15   A    
O6    Zn1   S    
C1    C7    S    
C10   O7    A    
C15   H4    S    
C11   O6    A    
O1    Zn1   S    
C8    C9    S    
C3    C5    A    
O8    Zn2   S    
