data_mof_unit_26765.cif
_audit_creation_date              2012-12-10T17:32:14-0500
_audit_creation_method            fapswitch 2.2
_symmetry_space_group_name_H-M    P1
_symmetry_Int_Tables_number       1
_space_group_crystal_system       triclinic
_cell_length_a                    15.455423
_cell_length_b                    15.562859
_cell_length_c                    15.528048
_cell_angle_alpha                 91.615886
_cell_angle_beta                  71.793636
_cell_angle_gamma                 111.632483
_cell_volume                      3282.05449155

loop_
_atom_site_label
_atom_site_type_symbol
_atom_type_description
_atom_site_fract_x
_atom_site_fract_y
_atom_site_fract_z
_atom_type_partial_charge
C1    C     C_R   0.461968 0.258574 0.463740 0.912308
C2    C     C_R   0.386792 0.301442 0.955336 -0.160653
C3    C     C_R   0.430650 0.365888 0.008081 -0.188800
C4    C     C_R   0.473719 0.462234 0.978986 0.118161
C5    C     C_R   0.467882 0.491640 0.895791 0.087922
C6    C     C_R   0.521642 0.530433 0.029823 0.026361
C7    C     C_R   0.558415 0.626518 0.998652 0.039768
C8    C     C_R   0.543083 0.653186 0.921412 -0.217297
C9    C     C_R   0.497148 0.587163 0.871936 -0.201240
C10   C     C_R   0.531812 0.506700 0.112098 -0.260137
C11   C     C_R   0.609043 0.669036 0.131363 -0.292076
C12   C     C_R   0.535661 0.741673 0.535429 0.794466
C13   C     C_R   0.431372 0.424619 0.838913 -0.076121
C14   C     C_R   0.340777 0.010614 0.428387 0.599872
C15   C     C_R   0.445879 0.161733 0.454479 -0.155904
C16   C     C_R   0.658077 0.898391 0.539877 0.506428
C17   C     C_R   0.690794 0.995010 0.527040 -0.311793
C18   C     C_R   0.633875 0.036757 0.505795 -0.195850
C19   C     C_R   0.536920 0.984237 0.506913 0.120146
C20   C     C_R   0.500848 0.886467 0.524373 -0.050181
C21   C     C_R   0.476382 0.025825 0.486901 -0.164394
C22   C     C_R   0.390924 0.968784 0.465123 -0.134854
C23   C     C_R   0.756738 0.551594 0.462601 0.815372
C24   C     C_R   0.356560 0.871495 0.482827 0.525604
C25   C     C_R   0.405111 0.833902 0.523602 -0.304361
C26   C     C_R   0.496128 0.122014 0.490394 0.480961
C27   C     C_R   0.369658 0.107359 0.423581 -0.445982
C28   C     C_R   0.562388 0.843059 0.538749 -0.150837
C29   C     C_R   0.016846 0.598683 0.325021 0.571343
C30   C     C_R   0.860692 0.569887 0.443089 -0.071979
C31   C     C_R   0.070555 0.382684 0.643448 0.352006
C32   C     C_R   0.976121 0.384154 0.674545 0.505488
C33   C     C_R   0.948239 0.432941 0.620919 -0.347901
C34   C     C_R   0.242596 0.448126 0.535658 0.937036
C35   C     C_R   0.008366 0.470380 0.530618 -0.002393
C36   C     C_R   0.100532 0.460140 0.495984 -0.094790
C37   C     C_R   0.979597 0.517243 0.473544 0.071974
C38   C     C_R   0.041705 0.549395 0.382006 -0.038701
C39   C     C_R   0.125323 0.527971 0.346801 -0.335350
C40   C     C_R   0.152875 0.480604 0.401258 0.500636
C41   C     C_R   0.889220 0.529984 0.502988 -0.228306
C42   C     C_R   0.924872 0.605678 0.355216 -0.290724
C43   C     C_R   0.136132 0.427181 0.556746 -0.287629
C44   C     C_R   0.551786 0.551649 0.259090 0.820516
C45   C     C_R   0.448335 0.450074 0.742575 0.792598
C46   C     C_R   0.606224 0.695160 0.047745 0.484390
C47   C     C_R   0.571676 0.575457 0.163456 -0.056409
C48   C     C_R   0.388397 0.330139 0.870884 -0.194520
H1    H     H_    0.637020 0.722256 0.173179 0.153774
H2    H     H_    0.669740 0.110139 0.484624 0.219803
H3    H     H_    0.763154 0.038345 0.529164 0.152442
H4    H     H_    0.368189 0.761940 0.550979 0.173742
H5    H     H_    0.901101 0.634139 0.308030 0.159766
H6    H     H_    0.169031 0.545558 0.275452 0.209779
H7    H     H_    0.565619 0.725771 0.899152 0.185437
H8    H     H_    0.835389 0.502875 0.569190 0.142422
H9    H     H_    0.878788 0.439622 0.652288 0.167854
H10   H     H_    0.503345 0.436013 0.141652 0.137468
H11   H     H_    0.359087 0.277786 0.828998 0.152010
H12   H     H_    0.428466 0.337667 0.071547 0.124439
H13   H     H_    0.354085 0.228178 0.978902 0.140511
H14   H     H_    0.482993 0.612545 0.815774 0.173941
H15   H     H_    0.328537 0.140237 0.401256 0.168857
O1    O     O_3   0.500000 0.500000 0.500000 -0.491150
O2    O     O_R   0.708210 0.582550 0.530770 -0.638029
O3    O     O_R   0.270260 0.395900 0.573760 -0.639501
O4    O     O_R   0.537060 0.322180 0.411040 -0.621616
O5    O     O_R   0.484470 0.699370 0.484430 -0.671292
O6    O     O_R   0.404710 0.279110 0.530840 -0.665670
O7    O     O_R   0.573760 0.699350 0.573690 -0.594747
O8    O     O_R   0.714470 0.499570 0.411000 -0.626123
O9    O     O_R   0.307050 0.521980 0.484470 -0.614649
O10   O     O_R   0.588830 0.499590 0.285390 -0.646040
O11   O     O_R   0.395900 0.395880 0.699370 -0.652323
O12   O     O_R   0.493280 0.582590 0.315890 -0.631391
O13   O     O_R   0.521980 0.521940 0.699340 -0.639119
Zn1   Zn    Zn3+2 0.574690 0.574670 0.574650 0.982584
Zn2   Zn    Zn3+2 0.583640 0.456100 0.403530 0.987991
Zn3   Zn    Zn3+2 0.447120 0.574690 0.447120 0.953523
Zn4   Zn    Zn3+2 0.394550 0.394550 0.574700 0.960413
O14   O     O_3   0.271289 0.814163 0.466306 -0.597196
C49   C     C_3   0.288536 0.746680 0.407073 0.119912
H16   H     H_    0.217647 0.705175 0.396530 0.175927
H17   H     H_    0.308701 0.696949 0.438795 0.162530
C50   C     C_3   0.365775 0.790058 0.313232 -0.414443
H18   H     H_    0.347851 0.843620 0.285004 0.237673
H19   H     H_    0.439882 0.823807 0.320550 0.219504
C51   C     C_3   0.369594 0.717168 0.245904 -0.876521
H20   H     H_    0.378637 0.658200 0.275519 0.304086
H21   H     H_    0.432778 0.748808 0.182707 0.277131
H22   H     H_    0.301147 0.691091 0.227637 0.263835
O15   O     O_3   0.258014 0.955968 0.406293 -0.547049
C52   C     C_3   0.265203 0.984324 0.317833 -0.342776
H23   H     H_    0.214706 0.925873 0.293065 0.183495
H24   H     H_    0.340703 0.002457 0.268221 0.145023
H25   H     H_    0.240843 0.043224 0.319239 0.170784
O16   O     O_3   0.557833 0.177364 0.535573 -0.629334
C53   C     C_3   0.507035 0.160647 0.630209 -0.331467
H26   H     H_    0.489775 0.088395 0.656303 0.176064
H27   H     H_    0.438379 0.174924 0.647854 0.174887
H28   H     H_    0.555091 0.208328 0.665623 0.185481
O17   O     O_3   0.718602 0.857114 0.554944 -0.625379
C54   C     C_3   0.803291 0.873923 0.477303 0.100502
H29   H     H_    0.856980 0.856333 0.499530 0.179482
H30   H     H_    0.841065 0.948216 0.449497 0.117577
C55   C     C_3   0.779265 0.812334 0.402258 -0.357516
H31   H     H_    0.742849 0.738364 0.430530 0.233023
H32   H     H_    0.728239 0.830629 0.376372 0.197424
C56   C     C_3   0.872248 0.824486 0.322809 -0.994842
H33   H     H_    0.908608 0.897542 0.291532 0.271494
H34   H     H_    0.852710 0.778357 0.270267 0.260867
H35   H     H_    0.924406 0.805897 0.346584 0.265995
O18   O     O_3   0.077369 0.629826 0.236002 -0.608633
C57   C     C_3   0.119045 0.727735 0.227489 -0.359903
H36   H     H_    0.156676 0.754299 0.278874 0.170861
H37   H     H_    0.062674 0.757676 0.232672 0.172163
H38   H     H_    0.175437 0.752115 0.159165 0.203092
O19   O     O_3   0.100949 0.343853 0.701825 -0.591809
C58   C     C_3   0.078475 0.248901 0.688172 0.132969
H39   H     H_    0.106938 0.239342 0.614556 0.119691
H40   H     H_    0.997397 0.209715 0.714076 0.139751
C59   C     C_3   0.126488 0.209086 0.740413 -0.295625
H41   H     H_    0.207069 0.250202 0.717892 0.254770
H42   H     H_    0.095658 0.214127 0.814469 0.224598
C60   C     C_3   0.108991 0.107712 0.724404 -0.979642
H43   H     H_    0.028857 0.065090 0.745986 0.263203
H44   H     H_    0.142946 0.080391 0.764723 0.268701
H45   H     H_    0.142864 0.101711 0.651146 0.278084
O20   O     O_3   0.916536 0.346892 0.762689 -0.567013
C61   C     C_3   0.827345 0.277124 0.761246 -0.326802
H46   H     H_    0.839418 0.228611 0.708777 0.134735
H47   H     H_    0.776642 0.308077 0.750871 0.167405
H48   H     H_    0.790518 0.235347 0.828467 0.201375
O21   O     O_3   0.232114 0.455036 0.360486 -0.639705
C62   C     C_3   0.202262 0.372963 0.317277 0.064942
H49   H     H_    0.265846 0.376804 0.256758 0.168537
H50   H     H_    0.140365 0.365331 0.291283 0.137420
C63   C     C_3   0.175389 0.287400 0.381526 -0.366043
H51   H     H_    0.237119 0.296285 0.407682 0.217805
H52   H     H_    0.108904 0.279824 0.440306 0.205476
C64   C     C_3   0.154372 0.198998 0.333190 -0.982931
H53   H     H_    0.092564 0.188341 0.306710 0.270615
H54   H     H_    0.133657 0.138425 0.382061 0.266440
H55   H     H_    0.220832 0.203283 0.275816 0.256974
O22   O     O_3   0.639467 0.788816 0.020365 -0.660440
C65   C     C_3   0.736356 0.818763 0.957841 0.068996
H56   H     H_    0.745513 0.876266 0.910748 0.173237
H57   H     H_    0.750999 0.764050 0.914236 0.132732
C66   C     C_3   0.812074 0.855821 0.007834 -0.355401
H58   H     H_    0.795084 0.908450 0.052614 0.236326
H59   H     H_    0.808298 0.797985 0.051009 0.214463
C67   C     C_3   0.916393 0.900227 0.940905 -0.936739
H60   H     H_    0.935250 0.848676 0.895705 0.271047
H61   H     H_    0.969491 0.925361 0.979112 0.264697
H62   H     H_    0.923088 0.960263 0.898723 0.264133

loop_
_geom_bond_atom_site_label_1
_geom_bond_atom_site_label_2
_ccdc_geom_bond_type
C16   C28   A    
C62   C63   S    
C21   C26   A    
C52   H23   S    
C29   C42   A    
O1    Zn1   S    
C11   C47   A    
C35   C36   A    
C11   C46   A    
C17   H3    S    
C57   H36   S    
C62   H49   S    
C41   H8    S    
C50   H18   S    
C12   O5    A    
C31   C43   A    
C12   C28   S    
C45   O13   A    
C19   C21   A    
C65   H56   S    
O9    Zn3   S    
C56   H34   S    
C42   H5    S    
O22   C65   S    
C38   C39   A    
C50   C51   S    
C46   O22   S    
C55   H31   S    
C18   C19   A    
O19   C58   S    
C29   O18   S    
C1    O4    A    
C19   C20   A    
C8    C9    A    
C29   C38   A    
C60   H45   S    
O10   Zn2   S    
C51   H22   S    
C30   C41   A    
C1    C15   S    
C14   C27   A    
C5    C13   A    
C44   C47   S    
C3    H12   S    
O5    Zn3   S    
C50   H19   S    
C52   H24   S    
O11   Zn4   S    
C21   C22   A    
O7    Zn1   S    
O1    Zn4   S    
C66   H59   S    
C34   O3    A    
C44   O10   A    
O4    Zn2   S    
C8    H7    S    
C32   O20   S    
O16   C53   S    
C65   H57   S    
C58   H40   S    
O2    Zn1   S    
C9    H14   S    
C23   C30   S    
C23   O8    A    
C7    C8    A    
O13   Zn1   S    
C4    C6    A    
C56   H35   S    
C39   C40   A    
C16   C17   A    
C15   C26   A    
C20   C28   A    
C2    C48   A    
C40   O21   S    
C1    O6    A    
C45   O11   A    
C44   O12   A    
C61   H47   S    
C24   O14   S    
C7    C46   A    
C31   O19   S    
C5    C9    A    
C37   C38   A    
C11   H1    S    
C65   C66   S    
C15   C27   A    
C31   C32   A    
C67   H62   S    
C36   C40   A    
C17   C18   A    
C54   H30   S    
C24   C25   A    
C14   O15   S    
O21   C62   S    
C27   H15   S    
C16   O17   S    
C67   H61   S    
C49   H16   S    
C52   H25   S    
C53   H27   S    
C60   H43   S    
O1    Zn3   S    
C22   C24   A    
C66   C67   S    
C61   H48   S    
C59   H42   S    
C3    C4    A    
C63   H52   S    
C34   O9    A    
C10   C47   A    
C18   H2    S    
C48   H11   S    
O18   C57   S    
C58   C59   S    
C35   C37   A    
C62   H50   S    
C12   O7    A    
C33   H9    S    
C10   H10   S    
O1    Zn2   S    
C34   C43   S    
C51   H21   S    
C4    C5    A    
O6    Zn4   S    
C63   C64   S    
C6    C10   A    
C13   C48   A    
C57   H37   S    
C58   H39   S    
C2    H13   S    
C6    C7    A    
C64   H55   S    
C49   C50   S    
O3    Zn4   S    
C49   H17   S    
C53   H28   S    
C32   C33   A    
C14   C22   A    
C59   C60   S    
C64   H54   S    
C2    C3    A    
O20   C61   S    
C25   H4    S    
C66   H58   S    
C13   C45   S    
C23   O2    A    
C55   H32   S    
O15   C52   S    
C33   C35   A    
C61   H46   S    
C54   C55   S    
C37   C41   A    
O17   C54   S    
C57   H38   S    
C63   H51   S    
C26   O16   S    
C39   H6    S    
C51   H20   S    
O14   C49   S    
C53   H26   S    
C20   C25   A    
C56   H33   S    
C54   H29   S    
C60   H44   S    
C30   C42   A    
C36   C43   A    
C67   H60   S    
C59   H41   S    
C64   H53   S    
O12   Zn3   S    
O8    Zn2   S    
C55   C56   S    
