data_mof_unit_11117.cif
_audit_creation_date              2012-12-10T17:56:47-0500
_audit_creation_method            fapswitch 2.2
_symmetry_space_group_name_H-M    P1
_symmetry_Int_Tables_number       1
_space_group_crystal_system       triclinic
_cell_length_a                    10.784545
_cell_length_b                    9.590757
_cell_length_c                    10.866339
_cell_angle_alpha                 88.250946
_cell_angle_beta                  92.901155
_cell_angle_gamma                 89.721331
_cell_volume                      1121.94005024

loop_
_atom_site_label
_atom_site_type_symbol
_atom_type_description
_atom_site_fract_x
_atom_site_fract_y
_atom_site_fract_z
_atom_type_partial_charge
C1    C     C_R   0.262437 0.499848 0.501255 0.770873
C2    C     C_R   0.737697 0.499545 0.501152 0.781178
C3    C     C_R   0.938758 0.599844 0.567462 -0.187050
C4    C     C_R   0.067260 0.598475 0.569367 -0.174840
C5    C     C_R   0.415990 0.079422 0.428469 -0.043235
C6    C     C_R   0.583973 0.073581 0.571758 -0.046870
C7    C     C_R   0.413454 0.931733 0.428364 0.161795
C8    C     C_R   0.583267 0.925622 0.575994 0.196999
C9    C     C_R   0.501491 0.503144 0.261618 0.794819
C10   C     C_R   0.491279 0.498078 0.736535 0.786589
C11   C     C_R   0.443404 0.765019 0.097595 -0.201764
C12   C     C_R   0.351824 0.711617 0.860483 -0.165143
C13   C     C_R   0.379781 0.869070 0.026633 -0.166025
C14   C     C_R   0.327180 0.839391 0.911340 -0.161917
C15   C     C_R   0.427295 0.610886 0.926604 0.110861
C16   C     C_R   0.457103 0.628796 0.052949 0.108175
C17   C     C_R   0.501121 0.510267 0.125998 -0.120781
C18   C     C_R   0.476881 0.494820 0.869112 -0.117062
C19   C     C_R   0.534499 0.388285 0.067352 -0.212984
C20   C     C_R   0.527654 0.382888 0.940153 -0.219481
C21   C     C_R   0.061831 0.394594 0.441845 -0.191244
C22   C     C_R   0.933374 0.394256 0.441960 -0.183968
C23   C     C_R   0.871714 0.498271 0.503139 -0.011324
C24   C     C_R   0.128709 0.498201 0.503878 -0.011154
Cu1   Cu    Cu3+1 0.500000 0.640660 0.500000 0.914994
Cu2   Cu    Cu3+1 0.500000 0.359340 0.500000 0.930052
H1    H     H_    0.570294 0.297720 0.119948 0.163002
H2    H     H_    0.563774 0.291620 0.897320 0.157534
H3    H     H_    0.487231 0.797325 0.182846 0.169090
H4    H     H_    0.313137 0.693245 0.768662 0.144223
H5    H     H_    0.370920 0.973133 0.061073 0.131305
H6    H     H_    0.273580 0.918145 0.858341 0.135927
H7    H     H_    0.108780 0.315522 0.391954 0.135060
H8    H     H_    0.882194 0.314796 0.392426 0.143345
H9    H     H_    0.892120 0.678263 0.617941 0.129302
H10   H     H_    0.118473 0.674447 0.622795 0.121970
H11   H     H_    0.349451 0.140316 0.371110 0.129545
H12   H     H_    0.651214 0.130140 0.627855 0.130627
N1    N     N_R   0.500000 0.852070 0.500000 -0.185260
N2    N     N_R   0.500000 0.147940 0.500000 -0.185528
O1    O     O_R   0.319640 0.618740 0.499990 -0.596066
O2    O     O_R   0.680360 0.618740 0.500010 -0.600782
O3    O     O_R   0.319620 0.381170 0.499990 -0.582805
O4    O     O_R   0.680380 0.381170 0.500010 -0.582933
O5    O     O_R   0.500000 0.618810 0.319650 -0.608964
O6    O     O_R   0.500000 0.618810 0.680350 -0.593537
O7    O     O_R   0.499970 0.381240 0.319640 -0.578206
O8    O     O_R   0.500030 0.381240 0.680360 -0.579300
C25   C     C_3   0.309684 0.871831 0.348033 -0.387309
C26   C     C_3   0.182817 0.895102 0.402247 -0.361086
C27   C     C_3   0.078792 0.829864 0.323117 -0.813602
H13   H     H_    0.072596 0.880843 0.229816 0.245855
H14   H     H_    0.095911 0.716519 0.313947 0.261943
H15   H     H_    0.988854 0.844185 0.366706 0.244373
H16   H     H_    0.183605 0.850267 0.497323 0.232323
H17   H     H_    0.163126 0.008595 0.407270 0.199225
H18   H     H_    0.307700 0.927540 0.257256 0.157624
H19   H     H_    0.323485 0.761694 0.328393 0.257439
C28   C     C_3   0.676859 0.858365 0.668995 -0.398918
C29   C     C_3   0.653036 0.898879 0.801679 -0.382254
C30   C     C_3   0.730430 0.810055 0.896294 -0.825162
H20   H     H_    0.705513 0.698235 0.889156 0.256324
H21   H     H_    0.830912 0.822759 0.881259 0.245897
H22   H     H_    0.711979 0.843454 0.990636 0.247016
H23   H     H_    0.676270 0.010204 0.815373 0.202179
H24   H     H_    0.553605 0.884739 0.818914 0.255807
H25   H     H_    0.677967 0.745194 0.667903 0.265751
H26   H     H_    0.771462 0.892900 0.646157 0.157533

loop_
_geom_bond_atom_site_label_1
_geom_bond_atom_site_label_2
_ccdc_geom_bond_type
Cu1   O2    S    
C10   O6    A    
C15   C18   A    
C2    O4    A    
C4    H10   S    
C9    O5    A    
C27   H13   S    
C8    N1    A    
C5    H11   S    
C28   H26   S    
C30   H22   S    
C19   H1    S    
C11   C16   A    
C3    C23   A    
C26   H16   S    
C12   C15   A    
Cu2   O8    S    
C27   H15   S    
C28   H25   S    
C6    H12   S    
C26   C27   S    
C7    C25   S    
C29   H24   S    
C28   C29   S    
Cu1   O1    S    
C21   C22   A    
Cu1   N1    S    
C11   C13   A    
Cu2   N2    S    
C3    H9    S    
C1    O3    A    
Cu2   O7    S    
C2    O2    A    
C4    C24   A    
C9    C17   S    
Cu2   O3    S    
C17   C19   A    
C10   C18   S    
C29   H23   S    
C9    O7    A    
C18   C20   A    
C8    C28   S    
C10   O8    A    
C30   H20   S    
C22   H8    S    
C6    N2    A    
C21   C24   A    
C21   H7    S    
C25   H19   S    
Cu2   O4    S    
C15   C16   A    
Cu1   O5    S    
C25   H18   S    
C11   H3    S    
C1    C24   S    
C30   H21   S    
C25   C26   S    
C5    N2    A    
C1    O1    A    
C2    C23   S    
C5    C7    A    
C7    N1    A    
C22   C23   A    
C16   C17   A    
C6    C8    A    
C20   H2    S    
C12   H4    S    
Cu1   Cu2   S    
C13   C14   A    
C14   H6    S    
Cu1   O6    S    
C13   H5    S    
C26   H17   S    
C3    C4    A    
C19   C20   A    
C12   C14   A    
C29   C30   S    
C27   H14   S    
