data_mof_unit_43340.cif
_audit_creation_date              2012-12-11T17:39:26-0500
_audit_creation_method            fapswitch 2.2
_symmetry_space_group_name_H-M    P1
_symmetry_Int_Tables_number       1
_space_group_crystal_system       triclinic
_cell_length_a                    24.817203
_cell_length_b                    7.204804
_cell_length_c                    22.618154
_cell_angle_alpha                 89.999946
_cell_angle_beta                  96.274531
_cell_angle_gamma                 89.999983
_cell_volume                      4019.96947328

loop_
_atom_site_label
_atom_site_type_symbol
_atom_type_description
_atom_site_fract_x
_atom_site_fract_y
_atom_site_fract_z
_atom_type_partial_charge
O1    O     O_R   0.801910 0.607900 0.699140 -0.546514
O2    O     O_R   0.198090 0.392100 0.300860 -0.533670
O3    O     O_R   0.698090 0.107900 0.800860 -0.546512
O4    O     O_R   0.301910 0.892100 0.199140 -0.533669
O5    O     O_R   0.692320 0.276320 0.686350 -0.523992
O6    O     O_R   0.307680 0.723680 0.313650 -0.536446
O7    O     O_R   0.807680 0.776320 0.813650 -0.523994
O8    O     O_R   0.192320 0.223680 0.186350 -0.536446
C1    C     C_R   0.673765 0.446657 0.671423 0.757460
C2    C     C_R   0.326144 0.553331 0.328687 0.701389
C3    C     C_R   0.826235 0.946657 0.828577 0.757474
C4    C     C_R   0.173856 0.053331 0.171313 0.701389
O9    O     O_R   0.801140 0.278070 0.692060 -0.521664
O10   O     O_R   0.198860 0.721930 0.307940 -0.536272
O11   O     O_R   0.698860 0.778070 0.807940 -0.521663
O12   O     O_R   0.301140 0.221930 0.192060 -0.536271
O13   O     O_R   0.807690 0.109570 0.806600 -0.540713
O14   O     O_R   0.192310 0.890430 0.193400 -0.529658
O15   O     O_R   0.692310 0.609570 0.693400 -0.540714
O16   O     O_R   0.307690 0.390430 0.306600 -0.529658
C5    C     C_R   0.818242 0.446758 0.678808 0.729691
C6    C     C_R   0.181763 0.553256 0.321172 0.635543
C7    C     C_R   0.681758 0.946758 0.821192 0.729703
C8    C     C_R   0.318237 0.053256 0.178828 0.635543
O17   O     O_3   0.752020 0.441970 0.787570 -0.375880
O18   O     O_3   0.247980 0.558030 0.212430 -0.369640
O19   O     O_3   0.747980 0.941970 0.712430 -0.375882
O20   O     O_3   0.252020 0.058030 0.287570 -0.369640
V1    V     V_3+5 0.749620 0.166420 0.743030 1.491265
V2    V     V_3+5 0.250380 0.833580 0.256970 1.449545
V3    V     V_3+5 0.750380 0.666420 0.756970 1.491262
V4    V     V_3+5 0.249620 0.333580 0.243030 1.449546
C9    C     C_R   0.390725 0.101746 0.038979 -0.085358
C10   C     C_R   0.607570 0.896207 0.959994 -0.203415
C11   C     C_R   0.109275 0.601740 0.461020 -0.085358
C12   C     C_R   0.892435 0.396164 0.540011 -0.203408
H1    H     H_    0.383196 0.155133 0.994027 0.165547
H2    H     H_    0.614745 0.842426 0.004959 0.116477
H3    H     H_    0.116804 0.655124 0.505973 0.165547
H4    H     H_    0.885262 0.342353 0.495049 0.116478
C13   C     C_R   0.350228 0.114515 0.078036 -0.030945
C14   C     C_R   0.648826 0.885950 0.922016 -0.008986
C15   C     C_R   0.149772 0.614510 0.421964 -0.030945
C16   C     C_R   0.851179 0.385911 0.577989 -0.008988
C17   C     C_R   0.360510 0.043143 0.136845 -0.191329
C18   C     C_R   0.639282 0.957052 0.862948 -0.137348
C19   C     C_R   0.139490 0.543142 0.363155 -0.191328
C20   C     C_R   0.860719 0.457053 0.637052 -0.137354
C21   C     C_R   0.411604 0.959382 0.154986 -0.014489
C22   C     C_R   0.588080 0.039268 0.844008 -0.059378
C23   C     C_R   0.088395 0.459384 0.345012 -0.014490
C24   C     C_R   0.911917 0.539305 0.655987 -0.059366
C25   C     C_R   0.450804 0.947184 0.114454 -0.094236
C26   C     C_R   0.548240 0.050426 0.883849 -0.086792
C27   C     C_R   0.049196 0.447184 0.385545 -0.094236
C28   C     C_R   0.951756 0.550462 0.616145 -0.086798
H5    H     H_    0.489840 0.883835 0.127936 0.160185
H6    H     H_    0.509228 0.113152 0.869811 0.164345
H7    H     H_    0.010160 0.383837 0.372062 0.160185
H8    H     H_    0.990764 0.613216 0.630180 0.164343
C29   C     C_R   0.440659 0.017966 0.056819 0.031456
C30   C     C_R   0.557704 0.979217 0.941473 0.076969
C31   C     C_R   0.059341 0.517962 0.443180 0.031455
C32   C     C_R   0.942296 0.479212 0.558526 0.076970
C33   C     C_1   0.481741 0.004332 0.015893 -0.020232
C34   C     C_1   0.516237 0.992723 0.981942 -0.016774
C35   C     C_1   0.018259 0.504327 0.484106 -0.020233
C36   C     C_1   0.983763 0.492718 0.518058 -0.016774
C37   C     C_3   0.976881 0.837827 0.004307 0.419543
C38   C     C_3   0.023263 0.162161 0.995512 0.418126
C39   C     C_3   0.523116 0.337821 0.495696 0.419544
C40   C     C_3   0.476740 0.662167 0.504484 0.418125
C41   C     C_3   0.982990 0.983584 0.054541 -0.235883
C42   C     C_3   0.017153 0.016403 0.945278 -0.233173
C43   C     C_3   0.517009 0.483567 0.445459 -0.235907
C44   C     C_3   0.482847 0.516420 0.554721 -0.233193
H9    H     H_    0.968905 0.966253 0.099134 0.157908
H10   H     H_    0.031238 0.033733 0.900685 0.162722
H11   H     H_    0.531093 0.466221 0.400867 0.157906
H12   H     H_    0.468764 0.533765 0.599315 0.162722
H13   H     H_    0.934787 0.249736 0.013854 0.169052
H14   H     H_    0.065356 0.750249 0.985965 0.171379
H15   H     H_    0.565216 0.749718 0.486139 0.169050
H16   H     H_    0.434640 0.250267 0.514042 0.171378
C45   C     C_1   0.128146 0.043202 0.125454 -0.154777
C46   C     C_1   0.871979 0.956790 0.874394 -0.126707
C47   C     C_1   0.371854 0.543201 0.374546 -0.154776
C48   C     C_1   0.628021 0.456791 0.625606 -0.126712
C49   C     C_3   0.036306 0.864062 0.991961 -0.234811
C50   C     C_3   0.963838 0.135924 0.007858 -0.235847
C51   C     C_3   0.463692 0.364072 0.508042 -0.234781
C52   C     C_3   0.536164 0.635914 0.492138 -0.235819
C53   C     C_3   0.042411 0.013703 0.041503 0.075018
C54   C     C_3   0.957734 0.986285 0.958316 0.073101
C55   C     C_3   0.457589 0.513701 0.458497 0.075015
C56   C     C_3   0.542266 0.486286 0.541683 0.073100
C57   C     C_1   0.089628 0.031275 0.087492 0.048179
C58   C     C_1   0.910510 0.968715 0.912337 0.046825
C59   C     C_1   0.410371 0.531274 0.412508 0.048182
C60   C     C_1   0.589490 0.468716 0.587662 0.046831
C61   C     C_2   0.296816 0.196790 0.055915 0.415536
H17   H     H_    0.263052 0.191474 0.082476 0.041830
O21   O     O_2   0.289619 0.271070 0.007152 -0.512148
C62   C     C_2   0.701393 0.804871 0.947453 0.370037
H18   H     H_    0.703230 0.723763 0.988082 0.056443
O22   O     O_2   0.743361 0.832128 0.925308 -0.531570
C63   C     C_2   0.203185 0.696783 0.444085 0.415531
H19   H     H_    0.236948 0.691474 0.417523 0.041831
O23   O     O_2   0.210382 0.771052 0.492850 -0.512148
C64   C     C_2   0.798615 0.304794 0.552556 0.370057
H20   H     H_    0.796785 0.223623 0.511940 0.056434
O24   O     O_2   0.756644 0.332093 0.574689 -0.531566
C65   C     C_2   0.425429 0.888966 0.216657 0.378243
H21   H     H_    0.398875 0.914378 0.250785 0.051311
O25   O     O_2   0.467177 0.802058 0.230409 -0.527909
C66   C     C_2   0.574771 0.109194 0.782186 0.377293
H22   H     H_    0.601722 0.084078 0.748429 0.036412
O26   O     O_2   0.532990 0.195347 0.767877 -0.521301
C67   C     C_2   0.074571 0.388972 0.283341 0.378242
H23   H     H_    0.101126 0.414383 0.249214 0.051310
O27   O     O_2   0.032822 0.302069 0.269589 -0.527909
C68   C     C_2   0.925222 0.609270 0.717805 0.377293
H24   H     H_    0.898276 0.584134 0.751566 0.036415
O28   O     O_2   0.966995 0.695476 0.732106 -0.521309
O29   O     O_3   0.951565 0.665668 0.008277 -0.635900
H25   H     H_    0.972578 0.600809 0.041917 0.298913
O30   O     O_3   0.048577 0.334322 0.991541 -0.635244
H26   H     H_    0.027564 0.399177 0.957900 0.301229
O31   O     O_3   0.548430 0.165656 0.491731 -0.635898
H27   H     H_    0.527421 0.100807 0.458085 0.298919
O32   O     O_3   0.451428 0.834334 0.508451 -0.635244
H28   H     H_    0.472437 0.899178 0.542098 0.301239

loop_
_geom_bond_atom_site_label_1
_geom_bond_atom_site_label_2
_ccdc_geom_bond_type
C38   O30   S    
O17   V3    S    
C21   C65   S    
C21   C25   A    
O1    C5    A    
C61   H17   S    
C27   H7    S    
O19   V1    S    
O13   V1    S    
C42   C54   S    
O3    C7    A    
C10   C14   A    
C41   C53   S    
C40   C44   S    
O15   V3    S    
C62   O22   D    
C43   C55   S    
O7    C3    A    
H15   C52   S    
C22   C26   A    
H14   C49   S    
C4    C45   S    
C8    C17   S    
C32   C36   S    
C42   C49   S    
O9    V1    S    
C41   C50   S    
C65   H21   S    
C1    C48   S    
C26   H6    S    
C40   C52   S    
C55   C59   S    
C54   C58   S    
C3    C46   S    
C52   C56   S    
C66   H22   S    
O2    V4    S    
C14   C18   A    
O3    V1    S    
C64   H20   S    
C40   C55   S    
C24   C68   S    
C1    O15   A    
C2    O16   A    
C27   C31   A    
C38   C42   S    
C23   C67   S    
C63   H19   S    
C28   C32   A    
C37   C41   S    
O14   V2    S    
H16   C51   S    
C11   C15   A    
C47   C59   T    
C5    C20   S    
O11   C7    A    
C6    C19   S    
C37   O29   S    
O12   C8    A    
C7    C18   S    
C63   O23   D    
C38   C50   S    
C25   C29   A    
O10   V2    S    
C37   C49   S    
C62   H18   S    
C50   C54   S    
O5    V1    S    
C67   O27   D    
O1    V3    S    
C31   C35   S    
C2    C47   S    
O7    V3    S    
C30   C34   S    
C35   C36   T    
O8    V4    S    
C12   H4    S    
C38   C53   S    
C37   C54   S    
C25   H5    S    
O18   V4    S    
C19   C23   A    
C39   C56   S    
C26   C30   A    
C9    H1    S    
C28   H8    S    
C11   H3    S    
O5    C1    A    
C39   O31   S    
C17   C21   A    
O8    C4    A    
C22   C66   S    
O9    C5    A    
C15   C63   S    
C48   C60   T    
C43   C52   S    
C66   O26   D    
H13   C50   S    
C9    C29   A    
O6    V2    S    
O29   H25   S    
C12   C16   A    
C68   O28   D    
O30   H26   S    
C10   C30   A    
C53   C57   S    
C40   O32   S    
O31   H27   S    
O16   V4    S    
C3    O13   A    
C41   H9    S    
C10   H2    S    
C44   H12   S    
C14   C62   S    
O6    C2    A    
C67   H23   S    
O11   V3    S    
O12   V4    S    
C18   C22   A    
C9    C13   A    
O10   C6    A    
O20   V2    S    
C16   C20   A    
O2    C6    A    
C44   C56   S    
C39   C43   S    
C15   C19   A    
O4    C8    A    
C56   C60   S    
C13   C61   S    
C23   C27   A    
C49   C53   S    
O32   H28   S    
C46   C58   T    
C64   O24   D    
C45   C57   T    
C44   C51   S    
C51   C55   S    
C29   C33   S    
C20   C24   A    
C39   C51   S    
C61   O21   D    
C33   C34   T    
C42   H10   S    
C4    O14   A    
C13   C17   A    
C11   C31   A    
C68   H24   S    
C12   C32   A    
C43   H11   S    
O4    V2    S    
C24   C28   A    
C65   O25   D    
C16   C64   S    
