data_mof_unit_54126.cif
_audit_creation_date              2013-03-05T15:54:39-0500
_audit_creation_method            fapswitch 2.2
_symmetry_space_group_name_H-M    P1
_symmetry_Int_Tables_number       1
_space_group_crystal_system       triclinic
_cell_length_a                    14.044135
_cell_length_b                    14.045945
_cell_length_c                    30.062753
_cell_angle_alpha                 97.185694
_cell_angle_beta                  96.872199
_cell_angle_gamma                 61.27534
_cell_volume                      5147.55030508

loop_
_atom_site_label
_atom_site_type_symbol
_atom_site_description
_atom_site_fract_x
_atom_site_fract_y
_atom_site_fract_z
_atom_type_partial_charge
O1    O     O_R   0.688580 0.499770 0.460490 -0.462612
O2    O     O_R   0.480400 0.672610 0.462660 -0.543793
C1    C     C_R   0.386171 0.710681 0.442417 0.760196
O3    O     O_R   0.315310 0.685650 0.451800 -0.551771
O4    O     O_R   0.346220 0.474990 0.446280 -0.531614
C2    C     C_R   0.398804 0.380854 0.426512 0.806096
O5    O     O_R   0.492270 0.312460 0.441630 -0.551345
O6    O     O_R   0.669740 0.350480 0.455640 -0.570847
C3    C     C_R   0.711240 0.404528 0.442690 1.074753
O7    O     O_R   0.691150 0.501150 0.557860 -0.500650
O8    O     O_R   0.482790 0.673890 0.552920 -0.530376
C4    C     C_R   0.389304 0.712000 0.568133 0.794440
O9    O     O_R   0.317880 0.687030 0.549170 -0.545453
O10   O     O_R   0.348600 0.476260 0.536540 -0.534017
C5    C     C_R   0.400848 0.382616 0.551867 0.771124
O11   O     O_R   0.494840 0.313840 0.539010 -0.548201
O12   O     O_R   0.672120 0.351750 0.545910 -0.547429
C6    C     C_R   0.712586 0.407987 0.568630 0.909249
Cr1   Cr    Cr6+3 0.581000 0.584320 0.508140 1.062491
Cr2   Cr    Cr6+3 0.339110 0.576430 0.496080 0.937035
Cr3   Cr    Cr6+3 0.579910 0.339270 0.495810 0.948542
O13   O     O_3   0.500010 0.500010 0.500010 -0.363158
C7    C     C_1   0.365957 0.363875 0.380716 -0.125230
C8    C     C_R   0.246730 0.440071 0.269543 0.020791
C9    C     C_R   0.240686 0.431432 0.222263 -0.184606
C10   C     C_R   0.397508 0.251873 0.221746 -0.166004
C11   C     C_R   0.404651 0.258804 0.268495 -0.178010
C12   C     C_R   0.329780 0.351630 0.292648 0.118190
C13   C     C_R   0.315846 0.338062 0.198626 0.128612
C14   C     C_1   0.303213 0.324895 0.150627 -0.036688
C15   C     C_1   0.345613 0.356143 0.340851 -0.023119
C16   C     C_1   0.291483 0.305462 0.110905 -0.144243
H1    H     H_    0.177136 0.497216 0.203786 0.131608
H2    H     H_    0.454836 0.178558 0.203577 0.114720
H3    H     H_    0.469011 0.191423 0.285910 0.120142
H4    H     H_    0.866063 0.446431 0.189322 0.175995
C17   C     C_R   0.770733 0.361748 0.401362 -0.174445
C18   C     C_R   0.739445 0.297391 0.369880 -0.308635
C19   C     C_R   0.773995 0.272097 0.326764 -0.194745
C20   C     C_R   0.840711 0.310180 0.313921 -0.016928
C21   C     C_R   0.880532 0.368393 0.345573 0.131155
C22   C     C_R   0.847094 0.392351 0.390047 0.465010
C23   C     C_R   0.869629 0.380707 0.165208 -0.207046
C24   C     C_R   0.877434 0.385879 0.119988 0.343293
C25   C     C_R   0.864431 0.217303 0.102059 0.294441
C26   C     C_R   0.860476 0.211420 0.148704 -0.107613
C27   C     C_R   0.867482 0.291911 0.179866 -0.050824
C28   C     C_1   0.865074 0.290387 0.227335 0.019696
C29   C     C_1   0.858375 0.295913 0.267074 0.073896
C30   C     C_R   0.888182 0.296990 0.088843 -0.270511
H5    H     H_    0.682048 0.271917 0.377586 0.173830
H6    H     H_    0.743859 0.227034 0.302589 0.145886
H7    H     H_    0.219971 0.799291 0.169962 0.118333
H8    H     H_    0.160311 0.936266 0.332719 0.131913
H9    H     H_    0.192027 0.864324 0.406583 0.133638
C31   C     C_R   0.366562 0.770798 0.402959 -0.051162
C32   C     C_R   0.455045 0.746437 0.378040 -0.204941
C33   C     C_R   0.438162 0.787891 0.336335 0.027000
C34   C     C_R   0.330797 0.855252 0.319711 0.080516
C35   C     C_R   0.242921 0.885036 0.345643 -0.120532
C36   C     C_R   0.260803 0.843207 0.387313 -0.160816
C37   C     C_R   0.253487 0.845237 0.157351 -0.181744
C38   C     C_R   0.246793 0.854319 0.111113 -0.003394
C39   C     C_R   0.343121 0.961413 0.126029 -0.172536
C40   C     C_R   0.348467 0.952137 0.171836 -0.126067
C41   C     C_R   0.300416 0.897274 0.187438 0.113435
C42   C     C_1   0.303002 0.890649 0.234452 -0.031919
C43   C     C_1   0.310725 0.879604 0.273744 -0.041414
C44   C     C_R   0.288466 0.916868 0.095092 -0.071641
H10   H     H_    0.537179 0.690325 0.389861 0.134429
H11   H     H_    0.387479 0.990322 0.195147 0.118529
H12   H     H_    0.375953 0.009871 0.115251 0.152966
H13   H     H_    0.181091 0.496915 0.824024 0.162658
H14   H     H_    0.159120 0.488245 0.664281 0.125244
C45   C     C_R   0.359355 0.360851 0.590309 -0.089093
C46   C     C_R   0.431142 0.271962 0.615170 -0.172238
C47   C     C_R   0.407326 0.263887 0.657622 -0.077564
C48   C     C_R   0.311334 0.344021 0.675695 0.101768
C49   C     C_R   0.234525 0.427706 0.650150 -0.151220
C50   C     C_R   0.256527 0.436036 0.607016 0.001676
C51   C     C_R   0.231428 0.417586 0.836815 -0.213941
C52   C     C_R   0.231641 0.402986 0.882262 0.384837
C53   C     C_R   0.366106 0.212469 0.868362 -0.220839
C54   C     C_R   0.366268 0.228808 0.823912 -0.122674
C55   C     C_R   0.296438 0.329918 0.807812 0.051781
C56   C     C_1   0.293497 0.341509 0.761202 0.004161
C57   C     C_1   0.297572 0.344689 0.721921 -0.014504
C58   C     C_R   0.295572 0.297233 0.897582 -0.149153
H15   H     H_    0.509359 0.212377 0.603222 0.141191
H16   H     H_    0.418238 0.161176 0.801644 0.172696
H17   H     H_    0.416489 0.130822 0.878904 0.165681
H18   H     H_    0.466669 0.198302 0.677349 0.158879
C59   C     C_1   0.758020 0.378604 0.613141 -0.140480
C60   C     C_R   0.784229 0.432030 0.729859 -0.198204
C61   C     C_R   0.800993 0.421355 0.776302 0.013112
C62   C     C_R   0.858504 0.227547 0.761378 -0.195325
C63   C     C_R   0.838839 0.238873 0.714952 0.013157
C64   C     C_R   0.804398 0.341854 0.699185 0.079508
C65   C     C_R   0.840177 0.317357 0.791993 0.080950
C66   C     C_1   0.868466 0.299493 0.839000 -0.040108
C67   C     C_1   0.783788 0.359234 0.651960 -0.035571
C68   C     C_1   0.900792 0.285071 0.877763 -0.142022
H19   H     H_    0.755145 0.511403 0.717506 0.139642
H20   H     H_    0.886815 0.148434 0.773832 0.136081
C69   C     C_1   0.373546 0.761663 0.613035 -0.122585
C70   C     C_R   0.314899 0.758666 0.721537 -0.243057
C71   C     C_R   0.306229 0.774954 0.767868 -0.132983
C72   C     C_R   0.366738 0.910946 0.771500 -0.249702
C73   C     C_R   0.375299 0.896080 0.724674 0.407039
C74   C     C_R   0.348893 0.818558 0.699651 -0.001285
C75   C     C_R   0.332165 0.850935 0.792914 0.059404
C76   C     C_1   0.314438 0.874708 0.840013 -0.034584
C77   C     C_1   0.361858 0.792336 0.652179 0.052760
C78   C     C_1   0.294025 0.903053 0.878719 -0.145665
H21   H     H_    0.295212 0.698691 0.702631 0.133206
H22   H     H_    0.278232 0.729105 0.784070 0.140272
H23   H     H_    0.384671 0.971157 0.791271 0.156285
O14   O     O_R   0.167510 0.972920 0.030390 -0.542741
O15   O     O_R   0.990840 0.178580 0.027590 -0.517616
C79   C     C_R   0.948036 0.274633 0.047779 0.878776
O16   O     O_R   0.972840 0.345510 0.038590 -0.508006
O17   O     O_R   0.181550 0.320660 0.045200 -0.525152
C80   C     C_R   0.275317 0.270539 0.065337 0.805873
O18   O     O_R   0.346150 0.177650 0.050510 -0.542240
O19   O     O_R   0.314200 0.996600 0.036060 -0.537074
C81   C     C_R   0.259563 0.955867 0.049544 0.770569
O20   O     O_R   0.168690 0.969990 0.933130 -0.531306
O21   O     O_R   0.991920 0.175870 0.937430 -0.525882
C82   C     C_R   0.951570 0.269449 0.922328 0.818345
O22   O     O_R   0.974010 0.342590 0.941330 -0.540188
O23   O     O_R   0.182630 0.317940 0.955040 -0.514738
C83   C     C_R   0.276819 0.266020 0.939484 0.840106
O24   O     O_R   0.347320 0.174720 0.953250 -0.550229
O25   O     O_R   0.315290 0.993890 0.945900 -0.538812
C84   C     C_R   0.261735 0.950708 0.922888 0.808840
Cr4   Cr    Cr6+3 0.082090 0.079210 0.982490 1.011305
Cr5   Cr    Cr6+3 0.082460 0.324610 0.994920 1.026020
Cr6   Cr    Cr6+3 0.323630 0.087860 0.996130 0.960536
O26   O     O_3   0.162730 0.163890 0.991180 -0.359240
C85   C     C_R   0.163961 0.540215 0.293362 0.080990
C86   C     C_R   0.194620 0.596617 0.329280 -0.108162
C87   C     C_R   0.115432 0.688029 0.352296 -0.093933
C88   C     C_R   0.005367 0.726667 0.338772 -0.108530
C89   C     C_R   0.974136 0.673682 0.302233 -0.077191
C90   C     C_R   0.052781 0.580938 0.279620 -0.028293
H24   H     H_    0.279561 0.570364 0.339525 0.106573
H25   H     H_    0.139312 0.728823 0.380724 0.127574
H26   H     H_    0.944317 0.797820 0.356533 0.115557
H27   H     H_    0.888889 0.704119 0.291650 0.118015
H28   H     H_    0.026721 0.540197 0.251715 0.148249
C91   C     C_R   0.852541 0.121281 0.165759 0.188100
C92   C     C_R   0.752790 0.136947 0.178560 -0.081447
C93   C     C_R   0.746852 0.052339 0.196036 -0.126385
C94   C     C_R   0.840330 0.952093 0.200930 -0.073587
C95   C     C_R   0.939995 0.936382 0.188483 -0.103481
C96   C     C_R   0.946297 0.020866 0.171130 -0.100182
H29   H     H_    0.680119 0.214504 0.175130 0.110816
H30   H     H_    0.669898 0.064533 0.205901 0.103099
H31   H     H_    0.835602 0.886748 0.214505 0.108945
H32   H     H_    0.012411 0.858951 0.192459 0.112026
H33   H     H_    0.023956 0.008487 0.162028 0.103052
N1    N     N_R   0.835821 0.151079 0.067965 0.096352
O27   O     O_R   0.792462 0.188366 0.028980 -0.364580
O28   O     O_R   0.835850 0.063065 0.077186 -0.396202
C97   C     C_R   0.196242 0.796729 0.081499 0.058253
C98   C     C_R   0.256381 0.684065 0.071256 -0.152305
C99   C     C_R   0.205277 0.626134 0.048372 -0.052204
C100  C     C_R   0.094108 0.680456 0.035370 -0.022525
C101  C     C_R   0.033843 0.792687 0.045518 -0.093935
C102  C     C_R   0.084544 0.850426 0.068979 -0.063243
H34   H     H_    0.342005 0.640856 0.082007 0.134833
H35   H     H_    0.251648 0.538926 0.041285 0.150486
H36   H     H_    0.054474 0.635494 0.017809 0.162927
H37   H     H_    0.947611 0.834582 0.035828 0.169656
H38   H     H_    0.037232 0.936586 0.077893 0.170385
C103  C     C_R   0.532314 0.752266 0.308850 0.098155
C104  C     C_R   0.597909 0.641046 0.296854 -0.161631
C105  C     C_R   0.681588 0.607971 0.268254 -0.064164
C106  C     C_R   0.701561 0.685140 0.251967 -0.067082
C107  C     C_R   0.638015 0.795792 0.264389 -0.139889
C108  C     C_R   0.553540 0.829437 0.292673 -0.110642
H39   H     H_    0.582489 0.580274 0.308675 0.102624
H40   H     H_    0.730129 0.522597 0.258290 0.136731
H41   H     H_    0.766246 0.659160 0.229708 0.130460
H42   H     H_    0.653651 0.855545 0.251814 0.107245
H43   H     H_    0.503964 0.915534 0.301593 0.113656
N2    N     N_R   0.169751 0.495513 0.912274 0.074876
O29   O     O_R   0.088898 0.582749 0.896565 -0.402110
O30   O     O_R   0.205527 0.500253 0.953987 -0.406395
C109  C     C_R   0.172999 0.526379 0.581214 0.037463
C110  C     C_R   0.148649 0.634382 0.595230 -0.089192
C111  C     C_R   0.076873 0.718737 0.568653 -0.095915
C112  C     C_R   0.027186 0.696225 0.528591 -0.180171
C113  C     C_R   0.049871 0.589071 0.514803 0.045989
C114  C     C_R   0.122834 0.504172 0.540919 0.002141
H44   H     H_    0.187949 0.652670 0.625853 0.094372
H45   H     H_    0.061021 0.801392 0.578753 0.120892
H46   H     H_    0.971725 0.761715 0.508077 0.127496
H47   H     H_    0.011977 0.571715 0.483596 0.246699
H48   H     H_    0.141487 0.421178 0.529501 0.196132
C115  C     C_R   0.774101 0.520428 0.807360 0.079783
C116  C     C_R   0.669198 0.610161 0.804277 -0.120189
C117  C     C_R   0.642580 0.703423 0.833654 -0.094978
C118  C     C_R   0.720166 0.708026 0.866289 -0.097218
C119  C     C_R   0.824833 0.619733 0.869366 -0.064920
C120  C     C_R   0.852287 0.526632 0.839791 -0.099950
H49   H     H_    0.607731 0.607495 0.779440 0.119771
H50   H     H_    0.561699 0.771997 0.831275 0.127415
H51   H     H_    0.699221 0.780077 0.889157 0.128513
H52   H     H_    0.884593 0.623543 0.894735 0.178201
H53   H     H_    0.934352 0.459689 0.842180 0.127116
C121  C     C_R   0.851117 0.142945 0.684262 0.097568
C122  C     C_R   0.948005 0.043720 0.686566 -0.108432
C123  C     C_R   0.957083 0.951464 0.659629 -0.111361
C124  C     C_R   0.869618 0.957442 0.630286 -0.089553
C125  C     C_R   0.773171 0.055709 0.627676 -0.089410
C126  C     C_R   0.763544 0.148056 0.654663 -0.115077
H54   H     H_    0.016214 0.037688 0.709356 0.120521
H55   H     H_    0.031699 0.875191 0.661760 0.110993
H56   H     H_    0.876140 0.885852 0.609750 0.123662
H57   H     H_    0.705429 0.059949 0.605086 0.119390
H58   H     H_    0.687154 0.222816 0.653102 0.106675
N3    N     N_R   0.410076 0.959932 0.703612 0.081695
O31   O     O_R   0.380808 0.981439 0.661789 -0.370106
O32   O     O_R   0.464410 0.004380 0.727248 -0.402401
N4    N     N_R   0.873643 0.482189 0.106339 0.113758
O33   O     O_R   0.919392 0.532421 0.132209 -0.393341
O34   O     O_R   0.809398 0.529716 0.072032 -0.354083
N5    N     N_R   0.954671 0.402629 0.333006 0.080526
O35   O     O_R   0.941063 0.440910 0.294209 -0.413943
O36   O     O_R   0.037052 0.394872 0.360200 -0.332460
N6    N     N_R   0.889262 0.450016 0.422111 0.786579
O37   O     O_R   0.914695 0.426017 0.463776 -1.027197
O38   O     O_R   0.914695 0.426017 0.463776 -1.027197

loop_
_geom_bond_atom_site_label_1
_geom_bond_atom_site_label_2
_geom_bond_distance
_ccdc_geom_bond_type
C48   C57   1.424050 S    
C5    C45   1.479673 S    
C117  C118  1.396439 A    
C47   H18   1.084142 S    
C95   C96   1.398206 A    
C109  C110  1.404188 A    
C63   C121  1.483298 S    
C21   C22   1.416741 A    
C75   C76   1.436833 S    
C68   C82   1.430402 S    
C25   N1    1.448923 S    
O21   C82   1.275422 A    
C76   C78   1.203720 T    
C63   C64   1.412459 A    
C32   C33   1.394979 A    
C80   O18   1.266339 A    
O4    Cr2   1.909670 S    
H8    C35   1.083687 S    
C47   C48   1.394013 A    
C31   C32   1.404435 A    
C4    O9    1.267076 A    
Cr5   O26   1.974924 S    
O8    Cr1   1.910551 S    
C10   C11   1.391448 A    
C37   C38   1.399577 A    
C30   C79   1.492253 S    
C119  H52   1.081051 S    
C69   C77   1.203658 T    
C17   C18   1.405063 A    
O20   C84   1.269241 A    
C114  H48   1.083175 S    
C123  H55   1.082573 S    
O21   Cr4   1.918059 S    
C55   C56   1.424218 S    
C4    C69   1.430125 S    
C61   C65   1.413061 A    
C70   C71   1.393291 A    
C60   C64   1.400113 A    
C24   C30   1.420743 A    
C88   C89   1.395276 A    
C62   C65   1.399556 A    
H9    C36   1.082623 S    
C17   C22   1.420411 A    
C72   C73   1.408048 A    
O23   C83   1.278982 A    
C101  C102  1.397844 A    
O16   Cr5   2.032905 S    
C93   H30   1.082298 S    
C125  H57   1.082081 S    
C110  H44   1.083331 S    
C100  C101  1.397667 A    
C120  H53   1.083075 S    
C10   H2    1.083793 S    
C38   C44   1.419136 A    
C96   H33   1.082535 S    
C83   O24   1.269010 A    
C118  H51   1.082375 S    
C91   C92   1.403791 A    
C8    C9    1.407152 A    
C32   H10   1.084493 S    
C14   C16   1.200932 T    
C8    C12   1.419621 A    
C45   C50   1.424078 A    
C105  H40   1.079672 S    
C73   N3    1.442527 S    
C46   H15   1.082437 S    
C71   C75   1.394844 A    
C39   H12   1.083245 S    
C53   C58   1.408323 A    
O2    Cr1   1.918639 S    
C18   C19   1.382517 A    
C34   C35   1.399372 A    
C121  C122  1.406235 A    
C112  C113  1.397569 A    
Cr3   O13   1.974824 S    
C124  H56   1.081828 S    
C16   C80   1.425959 S    
C98   C99   1.397713 A    
C100  H36   1.082374 S    
C54   H16   1.083818 S    
Cr4   O26   1.977820 S    
C72   H23   1.084017 S    
H13   C51   1.083600 S    
N5    O35   1.300303 A    
C112  H46   1.082314 S    
C51   C52   1.406128 A    
C2    O5    1.267611 A    
N1    O28   1.300134 A    
C102  H38   1.080030 S    
C9    C13   1.398167 A    
C103  C108  1.406214 A    
C71   H22   1.083650 S    
O1    Cr1   2.028001 S    
C116  C117  1.398056 A    
C37   C41   1.393459 A    
C42   C43   1.195886 T    
C27   C28   1.434549 S    
C105  C106  1.396846 A    
Cr1   O13   1.977782 S    
O1    C3    1.276587 A    
O20   Cr4   2.025731 S    
N3    O31   1.301171 A    
Cr6   O26   1.977013 S    
C59   C67   1.204394 T    
C99   C100  1.398594 A    
C123  C124  1.397921 A    
O6    C3    1.273222 A    
C18   H5    1.083574 S    
C11   H3    1.084102 S    
C33   C34   1.408981 A    
C25   C26   1.424198 A    
O12   Cr3   1.913537 S    
C40   H11   1.084192 S    
C35   C36   1.394479 A    
C7    C15   1.202080 T    
C101  H37   1.082242 S    
C45   C46   1.406075 A    
C13   C14   1.432249 S    
O23   Cr5   1.916787 S    
O10   Cr2   1.919877 S    
C34   C43   1.427738 S    
C1    C31   1.464518 S    
C53   C54   1.384321 A    
C122  C123  1.398054 A    
O7    Cr1   2.034307 S    
C78   C84   1.430678 S    
C125  C126  1.397641 A    
C126  H58   1.083176 S    
C62   C63   1.403797 A    
C3    C17   1.477134 S    
O12   C6    1.271646 A    
C31   C36   1.400794 A    
C72   C75   1.401653 A    
C26   C27   1.409044 A    
C111  H45   1.081262 S    
C85   C86   1.407686 A    
O15   C79   1.285636 A    
C104  H39   1.083416 S    
C74   C77   1.439340 S    
C94   C95   1.398451 A    
O25   C84   1.273248 A    
C106  C107  1.397431 A    
C98   H34   1.083244 S    
C86   H24   1.082392 S    
C10   C13   1.396124 A    
C26   C91   1.479848 S    
C109  C114  1.404834 A    
C20   C21   1.415736 A    
C115  C120  1.406548 A    
C66   C68   1.203829 T    
Cr2   O13   1.977063 S    
C44   C81   1.476718 S    
N4    O33   1.301671 A    
N4    O34   1.301560 A    
H14   C49   1.084769 S    
C62   H20   1.084816 S    
C23   C24   1.390472 A    
O19   C81   1.278633 A    
C65   C66   1.440956 S    
C61   C115  1.484945 S    
C58   C83   1.475450 S    
C1    O3    1.273533 A    
C8    C85   1.489318 S    
C19   C20   1.390372 A    
O14   Cr4   2.035819 S    
C79   O16   1.270393 A    
C106  H41   1.082564 S    
C70   C74   1.402920 A    
O18   Cr6   2.026600 S    
C97   C102  1.401360 A    
C119  C120  1.398493 A    
C92   H29   1.083145 S    
C103  C104  1.405148 A    
C89   H27   1.080848 S    
C95   H32   1.082460 S    
C56   C57   1.196514 T    
C50   C109  1.478403 S    
C87   H25   1.079261 S    
O9    Cr2   2.024330 S    
C12   C15   1.437667 S    
C33   C103  1.484459 S    
C54   C55   1.390168 A    
C90   H28   1.083022 S    
O17   Cr5   1.915176 S    
C21   N5    1.441858 S    
C89   C90   1.397921 A    
N6    O38   1.301150 A    
O6    Cr3   1.917770 S    
C85   C90   1.407893 A    
O25   Cr6   1.908861 S    
C108  H43   1.083212 S    
N3    O32   1.301587 A    
O11   Cr3   2.034497 S    
C99   H35   1.082168 S    
O19   Cr6   1.920356 S    
N1    O27   1.301889 A    
C64   C67   1.442032 S    
C39   C44   1.410984 A    
C60   H19   1.085009 S    
C52   N2    1.437745 S    
O15   Cr4   1.910966 S    
C115  C116  1.406908 A    
C70   H21   1.084251 S    
C116  H49   1.083485 S    
C122  H54   1.083372 S    
C111  C112  1.397562 A    
O2    C1    1.271247 A    
C82   O22   1.265849 A    
C41   C42   1.423004 S    
C94   H31   1.082657 S    
N5    O36   1.301371 A    
O5    Cr3   2.030279 S    
C86   C87   1.397685 A    
C39   C40   1.389155 A    
C113  C114  1.398433 A    
C46   C47   1.388650 A    
C48   C49   1.394217 A    
C20   C29   1.431902 S    
O4    C2    1.271505 A    
C23   C27   1.388348 A    
C25   C30   1.422590 A    
O7    C6    1.269568 A    
C28   C29   1.199489 T    
C2    C7    1.427150 S    
C53   H17   1.083302 S    
N6    O37   1.301150 A    
C19   H6    1.084786 S    
C117  H50   1.081332 S    
C40   C41   1.391142 A    
C124  C125  1.396631 A    
C60   C61   1.402532 A    
C110  C111  1.398007 A    
C88   H26   1.082344 S    
N2    O30   1.299972 A    
C107  H42   1.082562 S    
C38   C97   1.473620 S    
C49   C50   1.399744 A    
O3    Cr2   2.036848 S    
C113  H47   1.082057 S    
C91   C96   1.403621 A    
C97   C98   1.402859 A    
O24   Cr6   2.036459 S    
C118  C119  1.396866 A    
H7    C37   1.085231 S    
C104  C105  1.397591 A    
C121  C126  1.406699 A    
C11   C12   1.400333 A    
C87   C88   1.395589 A    
C6    C59   1.431355 S    
C52   C58   1.419491 A    
O10   C5    1.274280 A    
H4    C23   1.084934 S    
N2    O29   1.301103 A    
C92   C93   1.399009 A    
O14   C81   1.272397 A    
O17   C80   1.273177 A    
C73   C74   1.416173 A    
O22   Cr5   2.030749 S    
C24   N4    1.437206 S    
C51   C55   1.396921 A    
C107  C108  1.398513 A    
C5    O11   1.275949 A    
O8    C4    1.275314 A    
C9    H1    1.084426 S    
C93   C94   1.398765 A    
C22   N6    1.437027 S    
