data_mof_unit_22282.cif
_audit_creation_date              2012-12-11T14:49:49-0500
_audit_creation_method            fapswitch 2.2
_symmetry_space_group_name_H-M    P1
_symmetry_Int_Tables_number       1
_space_group_crystal_system       monoclinic
_cell_length_a                    10.894816
_cell_length_b                    10.894816
_cell_length_c                    18.924624
_cell_angle_alpha                 90.0
_cell_angle_beta                  90.0
_cell_angle_gamma                 120.000175
_cell_volume                      1945.34630904

loop_
_atom_site_label
_atom_site_type_symbol
_atom_type_description
_atom_site_fract_x
_atom_site_fract_y
_atom_site_fract_z
_atom_type_partial_charge
Br1   Br    Br    0.238526 0.040664 0.580079 -0.355793
Br2   Br    Br    0.940245 0.209959 0.407096 -0.343491
Br3   Br    Br    0.790041 0.730286 0.092904 -0.343490
Br4   Br    Br    0.269715 0.059756 0.407096 -0.343491
Br5   Br    Br    0.802139 0.761475 0.919920 -0.355793
Br6   Br    Br    0.959336 0.197861 0.580080 -0.355793
Br7   Br    Br    0.238526 0.040664 0.919921 -0.355793
Br8   Br    Br    0.802139 0.761475 0.580079 -0.355793
Br9   Br    Br    0.959336 0.197861 0.919920 -0.355793
Br10  Br    Br    0.940245 0.209959 0.092904 -0.343491
Br11  Br    Br    0.790041 0.730287 0.407096 -0.343490
Br12  Br    Br    0.269716 0.059756 0.092904 -0.343491
C1    C     C_R   0.528906 0.469565 0.646672 0.556624
C2    C     C_R   0.465191 0.530060 0.355040 0.571795
C3    C     C_R   0.469940 0.935131 0.144960 0.571794
C4    C     C_R   0.064869 0.534809 0.355040 0.571794
C5    C     C_R   0.384965 0.015414 0.536261 0.151683
C6    C     C_R   0.630449 0.615036 0.963739 0.151683
C7    C     C_R   0.984587 0.369551 0.536261 0.151683
C8    C     C_R   0.384965 0.015414 0.963739 0.151683
C9    C     C_R   0.630449 0.615036 0.536261 0.151683
C10   C     C_R   0.984587 0.369551 0.963739 0.151683
C11   C     C_R   0.990824 0.378299 0.037745 0.146496
C12   C     C_R   0.940659 0.471094 0.853328 0.556624
C13   C     C_R   0.621701 0.612525 0.462255 0.146496
C14   C     C_R   0.387475 0.009176 0.037746 0.146496
C15   C     C_R   0.990824 0.378299 0.462255 0.146496
C16   C     C_R   0.621701 0.612525 0.037745 0.146496
C17   C     C_R   0.387475 0.009176 0.462254 0.146496
C18   C     C_R   0.480899 0.972440 0.429519 -0.001138
C19   C     C_R   0.491541 0.519101 0.070481 -0.001138
C20   C     C_R   0.027560 0.508459 0.429519 -0.001138
C21   C     C_R   0.480900 0.972440 0.070481 -0.001138
C22   C     C_R   0.491541 0.519101 0.429519 -0.001138
C23   C     C_R   0.530435 0.059341 0.646672 0.556624
C24   C     C_R   0.027560 0.508459 0.070481 -0.001138
C25   C     C_R   0.001527 0.487627 0.923813 -0.013889
C26   C     C_R   0.512373 0.513900 0.576187 -0.013889
C27   C     C_R   0.486100 0.998473 0.923813 -0.013889
C28   C     C_R   0.001527 0.487627 0.576187 -0.013889
C29   C     C_R   0.512373 0.513900 0.923813 -0.013889
C30   C     C_R   0.486100 0.998473 0.576187 -0.013889
C31   C     C_R   0.569197 0.941813 0.470827 -0.136060
C32   C     C_R   0.372616 0.430802 0.029173 -0.136060
C33   C     C_R   0.058186 0.627384 0.470827 -0.136061
C34   C     C_R   0.528906 0.469565 0.853328 0.556624
C35   C     C_R   0.569197 0.941813 0.029173 -0.136060
C36   C     C_R   0.372616 0.430802 0.470827 -0.136060
C37   C     C_R   0.058186 0.627384 0.029173 -0.136061
C38   C     C_R   0.046264 0.617277 0.957076 -0.147690
C39   C     C_R   0.382723 0.428986 0.542924 -0.147689
C40   C     C_R   0.571013 0.953736 0.957076 -0.147689
C41   C     C_R   0.046264 0.617277 0.542924 -0.147690
C42   C     C_R   0.382722 0.428986 0.957076 -0.147689
C43   C     C_R   0.571013 0.953736 0.542924 -0.147689
C44   C     C_R   0.940659 0.471094 0.646672 0.556624
C45   C     C_R   0.530435 0.059341 0.853328 0.556623
C46   C     C_R   0.465191 0.530060 0.144960 0.571795
C47   C     C_R   0.469940 0.935131 0.355040 0.571794
C48   C     C_R   0.064869 0.534809 0.144960 0.571794
Cr1   Cr    Cr6+3 0.776430 0.541680 0.750000 1.141314
Cr2   Cr    Cr6+3 0.765250 0.223570 0.750000 1.141314
Cr3   Cr    Cr6+3 0.458320 0.234750 0.750000 1.141315
Cr4   Cr    Cr6+3 0.541680 0.776430 0.250000 1.148460
Cr5   Cr    Cr6+3 0.223570 0.765250 0.250000 1.148460
Cr6   Cr    Cr6+3 0.234750 0.458320 0.250000 1.148460
H1    H     H_    0.637461 0.906939 0.447630 0.217198
H2    H     H_    0.065135 0.710321 0.572407 0.216252
H3    H     H_    0.289679 0.354814 0.927593 0.216252
H4    H     H_    0.645185 0.934865 0.572408 0.216252
H5    H     H_    0.269477 0.362538 0.052370 0.217198
H6    H     H_    0.093061 0.730522 0.447630 0.217198
H7    H     H_    0.637461 0.906938 0.052370 0.217198
H8    H     H_    0.269477 0.362538 0.447630 0.217198
H9    H     H_    0.093061 0.730522 0.052370 0.217198
H10   H     H_    0.065135 0.710321 0.927593 0.216252
H11   H     H_    0.289679 0.354814 0.572407 0.216252
H12   H     H_    0.645185 0.934865 0.927592 0.216251
O1    O     O_R   0.916700 0.566820 0.669930 -0.485762
O2    O     O_R   0.566820 0.916700 0.330070 -0.483685
O3    O     O_R   0.083300 0.650120 0.169930 -0.483685
O4    O     O_R   0.349880 0.433180 0.330070 -0.483685
O5    O     O_R   0.649840 0.534790 0.674920 -0.463208
O6    O     O_R   0.884950 0.350160 0.825080 -0.463208
O7    O     O_R   0.465210 0.115050 0.674920 -0.463208
O8    O     O_R   0.649840 0.534790 0.825080 -0.463208
O9    O     O_R   0.884950 0.350160 0.674920 -0.463208
O10   O     O_R   0.465210 0.115050 0.825080 -0.463208
O11   O     O_R   0.534790 0.649840 0.174920 -0.470485
O12   O     O_R   0.650120 0.083300 0.830070 -0.485762
O13   O     O_R   0.350160 0.884950 0.325080 -0.470485
O14   O     O_R   0.115050 0.465210 0.174920 -0.470485
O15   O     O_R   0.534790 0.649840 0.325080 -0.470485
O16   O     O_R   0.350160 0.884950 0.174920 -0.470485
O17   O     O_R   0.115050 0.465210 0.325080 -0.470485
O18   O     O_3   0.666667 0.333333 0.750000 -0.297583
O19   O     O_3   0.333333 0.666667 0.250000 -0.324821
O20   O     O_R   0.433180 0.349880 0.669930 -0.485762
O21   O     O_R   0.916700 0.566820 0.830070 -0.485762
O22   O     O_R   0.650120 0.083300 0.669930 -0.485762
O23   O     O_R   0.433180 0.349880 0.830070 -0.485762
O24   O     O_R   0.566820 0.916700 0.169930 -0.483685
O25   O     O_R   0.083300 0.650120 0.330070 -0.483685
O26   O     O_R   0.349880 0.433180 0.169930 -0.483685

loop_
_geom_bond_atom_site_label_1
_geom_bond_atom_site_label_2
_ccdc_geom_bond_type
Cr2   O18   S    
Cr3   O10   S    
C12   O21   A    
C5    C17   A    
C20   C33   A    
Cr3   O23   S    
C3    O16   A    
Cr1   O18   S    
Cr4   O24   S    
Br6   C7    S    
C44   O1    A    
C19   C46   S    
Br3   C16   S    
Cr4   O15   S    
Cr3   O20   S    
Br9   C10   S    
Br11  C13   S    
C27   C45   S    
C32   H5    S    
C1    O20   A    
C41   H2    S    
C23   C30   S    
C5    C30   A    
Cr2   O6    S    
C14   C21   A    
C36   C39   A    
C9    C26   A    
C28   C44   S    
C29   C34   S    
C37   H9    S    
Br2   C15   S    
C7    C15   A    
C2    O15   A    
Br4   C17   S    
C13   C22   A    
C27   C40   A    
C33   C41   A    
Cr3   O7    S    
C33   H6    S    
C45   O12   A    
Cr4   O2    S    
Cr1   O21   S    
Cr4   O11   S    
C40   H12   S    
C36   H8    S    
C12   C25   S    
C7    C28   A    
C48   O14   A    
C34   O23   A    
C19   C32   A    
Cr6   O26   S    
C6    C16   A    
C35   H7    S    
Cr1   O5    S    
C6    C29   A    
C8    C27   A    
C44   O9    A    
Cr6   O14   S    
C26   C39   A    
C10   C25   A    
Cr3   O18   S    
Br7   C8    S    
Br12  C14   S    
C39   H11   S    
C17   C18   A    
C38   H10   S    
C30   C43   A    
Cr6   O4    S    
C48   O3    A    
C4    O25   A    
Cr5   O3    S    
C18   C47   S    
Br8   C9    S    
C47   O13   A    
C1    C26   S    
Cr2   O22   S    
C31   C43   A    
Cr4   O19   S    
C11   C24   A    
C21   C35   A    
C18   C31   A    
C46   O26   A    
Cr5   O25   S    
C23   O22   A    
Cr6   O19   S    
Cr5   O13   S    
C9    C13   A    
Cr5   O16   S    
C4    O17   A    
C15   C20   A    
C16   C19   A    
C24   C48   S    
C47   O2    A    
C2    C22   S    
C28   C41   A    
C35   C40   A    
Br5   C6    S    
Br10  C11   S    
C4    C20   S    
Cr2   O9    S    
C1    O5    A    
Br1   C5    S    
C45   O10   A    
C12   O6    A    
Cr5   O19   S    
C25   C38   A    
C23   O7    A    
C42   H3    S    
C8    C14   A    
Cr1   O1    S    
Cr2   O12   S    
C3    O24   A    
C46   O11   A    
C29   C42   A    
C43   H4    S    
Cr1   O8    S    
C32   C42   A    
C22   C36   A    
C31   H1    S    
C37   C38   A    
C2    O4    A    
C10   C11   A    
C3    C21   S    
C24   C37   A    
Cr6   O17   S    
C34   O8    A    
