data_mof_unit_6462.cif
_audit_creation_date              2012-12-10T17:19:22-0500
_audit_creation_method            fapswitch 2.2
_symmetry_space_group_name_H-M    P1
_symmetry_Int_Tables_number       1
_space_group_crystal_system       triclinic
_cell_length_a                    15.0739
_cell_length_b                    10.864279
_cell_length_c                    9.572626
_cell_angle_alpha                 90.401419
_cell_angle_beta                  90.102619
_cell_angle_gamma                 92.601992
_cell_volume                      1566.02255382

loop_
_atom_site_label
_atom_site_type_symbol
_atom_type_description
_atom_site_fract_x
_atom_site_fract_y
_atom_site_fract_z
_atom_type_partial_charge
C1    C     C_R   0.507093 0.263097 0.500320 0.804925
C2    C     C_R   0.907539 0.532035 0.376258 0.069895
C3    C     C_R   0.952693 0.453133 0.747094 -0.221805
C4    C     C_R   0.045050 0.451975 0.746308 -0.218975
C5    C     C_R   0.092340 0.478783 0.623549 0.130974
C6    C     C_R   0.046695 0.506604 0.499506 0.008683
C7    C     C_R   0.093960 0.533503 0.375016 0.070414
C8    C     C_R   0.047332 0.562558 0.252098 0.249538
C9    C     C_R   0.954364 0.559788 0.253560 -0.289408
C10   C     C_R   0.184620 0.477513 0.622895 -0.239211
C11   C     C_R   0.231851 0.501964 0.499636 -0.095561
C12   C     C_R   0.328685 0.500012 0.499888 0.821082
C13   C     C_R   0.186608 0.529080 0.376318 -0.233190
C14   C     C_R   0.558967 0.122968 0.754461 -0.158429
C15   C     C_R   0.549277 0.065236 0.883322 -0.158277
C16   C     C_R   0.505517 0.950360 0.891069 -0.140302
C17   C     C_R   0.479762 0.887996 0.768802 -0.162842
C18   C     C_R   0.498351 0.939749 0.635585 0.093952
C19   C     C_R   0.524925 0.065613 0.630759 0.097092
C20   C     C_R   0.515112 0.129328 0.502981 -0.120274
C21   C     C_R   0.500793 0.062937 0.378602 -0.211665
C22   C     C_R   0.493251 0.935749 0.380187 -0.215326
C23   C     C_R   0.495188 0.737630 0.501583 0.782614
C24   C     C_R   0.491832 0.872341 0.507148 -0.113907
C25   C     C_R   0.618287 0.663994 0.145700 -0.166565
C26   C     C_R   0.676248 0.743672 0.073997 -0.234069
C27   C     C_R   0.676419 0.743271 0.930095 -0.192954
C28   C     C_R   0.618497 0.663366 0.857085 -0.146325
C29   C     C_R   0.558203 0.580472 0.925839 0.189795
C30   C     C_R   0.558130 0.580596 0.075583 0.211185
C31   C     C_R   0.444856 0.423154 0.073209 -0.070191
C32   C     C_R   0.444864 0.423208 0.925131 -0.068094
C33   C     C_R   0.671315 0.500957 0.500126 0.788679
C34   C     C_R   0.815040 0.529697 0.377045 -0.232931
C35   C     C_R   0.768201 0.503186 0.500430 -0.070386
C36   C     C_R   0.814126 0.479119 0.624055 -0.253794
C37   C     C_R   0.906598 0.479758 0.624566 0.126264
C38   C     C_R   0.953638 0.506444 0.500118 0.059706
Cu1   Cu    Cu3+1 0.499990 0.499990 0.640660 0.919342
Cu2   Cu    Cu3+1 0.500010 0.500010 0.359340 0.929657
H1    H     H_    0.779632 0.549288 0.281639 0.158276
H2    H     H_    0.594857 0.211335 0.753108 0.160945
H3    H     H_    0.573382 0.111296 0.977563 0.136400
H4    H     H_    0.493133 0.908191 0.991746 0.138671
H5    H     H_    0.442503 0.801823 0.782005 0.169725
H6    H     H_    0.486959 0.887119 0.281207 0.164333
H7    H     H_    0.399711 0.360205 0.128020 0.138388
H8    H     H_    0.624025 0.672029 0.255813 0.202150
H9    H     H_    0.721395 0.806242 0.130853 0.154240
H10   H     H_    0.721475 0.805807 0.874274 0.155190
H11   H     H_    0.623645 0.671576 0.747075 0.203987
H12   H     H_    0.777979 0.458369 0.719521 0.156870
H13   H     H_    0.399738 0.360263 0.869016 0.142606
H14   H     H_    0.917313 0.432306 0.843149 0.140629
H15   H     H_    0.079597 0.429372 0.841411 0.141336
H16   H     H_    0.219569 0.456063 0.718193 0.153812
H17   H     H_    0.223993 0.547101 0.281585 0.192397
H18   H     H_    0.918732 0.580813 0.158769 0.147384
H19   H     H_    0.495301 0.109243 0.279286 0.161718
N1    N     N_R   0.500860 0.501210 0.147910 -0.199097
N2    N     N_R   0.500890 0.501290 0.852040 -0.205060
O1    O     O_R   0.499990 0.319640 0.618810 -0.588361
O2    O     O_R   0.500000 0.319660 0.381240 -0.579988
O3    O     O_R   0.370250 0.499960 0.618800 -0.583176
O4    O     O_R   0.370260 0.499980 0.381230 -0.583535
O5    O     O_R   0.500000 0.680340 0.618760 -0.613078
O6    O     O_R   0.500010 0.680360 0.381190 -0.599685
O7    O     O_R   0.629740 0.500020 0.618770 -0.608220
O8    O     O_R   0.629750 0.500040 0.381200 -0.600371
N3    N     N_2   0.093139 0.593696 0.126350 -0.443291
H20   H     H_    0.058807 0.566206 0.037386 0.251460
C39   C     C_3   0.124123 0.721493 0.118917 -0.699282
H21   H     H_    0.066756 0.782287 0.117330 0.228180
H22   H     H_    0.163219 0.736350 0.021777 0.229904
H23   H     H_    0.167527 0.746884 0.209481 0.235229

loop_
_geom_bond_atom_site_label_1
_geom_bond_atom_site_label_2
_ccdc_geom_bond_type
Cu2   N1    S    
Cu1   O7    S    
C35   C36   A    
C1    O1    A    
C7    C8    A    
Cu1   O3    S    
C26   C27   A    
C29   C30   A    
Cu2   O2    S    
C18   C24   A    
C23   O5    A    
C36   C37   A    
C17   H5    S    
C32   N2    A    
C21   H19   S    
C5    C6    A    
C12   O3    A    
C28   H11   S    
C13   H17   S    
C15   C16   A    
C34   C35   A    
C23   O6    A    
C19   C20   A    
C8    C9    A    
Cu2   O6    S    
C30   N1    A    
C23   C24   S    
C6    C38   A    
N3    H20   S    
C10   H16   S    
C16   H4    S    
C36   H12   S    
C27   H10   S    
C33   O8    A    
C14   H2    S    
C2    C34   A    
C31   H7    S    
C21   C22   A    
C34   H1    S    
C39   H23   S    
C1    O2    A    
Cu1   N2    S    
C29   N2    A    
Cu2   O8    S    
C39   H21   S    
C39   H22   S    
C26   H9    S    
Cu1   Cu2   S    
C18   C19   A    
C25   C26   A    
C31   N1    A    
C37   C38   A    
C2    C38   A    
C31   C32   A    
C17   C18   A    
C25   H8    S    
C3    H14   S    
C22   H6    S    
C9    H18   S    
Cu2   O4    S    
C4    H15   S    
Cu1   O5    S    
C22   C24   A    
C3    C4    A    
C32   H13   S    
C25   C30   A    
Cu1   O1    S    
C28   C29   A    
C1    C20   S    
C14   C19   A    
C4    C5    A    
C11   C12   S    
C6    C7    A    
C12   O4    A    
C8    N3    S    
C15   H3    S    
C5    C10   A    
C11   C13   A    
C16   C17   A    
C33   C35   S    
C10   C11   A    
C7    C13   A    
C20   C21   A    
C3    C37   A    
C27   C28   A    
C14   C15   A    
N3    C39   S    
C2    C9    A    
C33   O7    A    
