data_mof_unit_7784.cif
_audit_creation_date              2013-03-05T15:39:32-0500
_audit_creation_method            fapswitch 2.2
_symmetry_space_group_name_H-M    P1
_symmetry_Int_Tables_number       1
_space_group_crystal_system       triclinic
_cell_length_a                    19.947362
_cell_length_b                    17.025232
_cell_length_c                    15.514849
_cell_angle_alpha                 90.210347
_cell_angle_beta                  52.697457
_cell_angle_gamma                 90.044631
_cell_volume                      4191.15225409

loop_
_atom_site_label
_atom_site_type_symbol
_atom_site_description
_atom_site_fract_x
_atom_site_fract_y
_atom_site_fract_z
_atom_type_partial_charge
C1    C     C_R   0.372131 0.196847 0.997958 0.320747
C2    C     C_R   0.370016 0.804442 0.001869 0.364235
C3    C     C_R   0.839994 0.673932 0.050993 0.354386
C4    C     C_R   0.873636 0.302398 0.996109 0.324555
N1    N     N_R   0.408680 0.130160 0.995800 -0.092859
N2    N     N_R   0.408680 0.869840 0.995800 -0.096659
N3    N     N_R   0.908680 0.630160 0.995800 -0.099472
N4    N     N_R   0.908680 0.369840 0.995800 -0.092888
C5    C     C_R   0.401175 0.800618 0.206518 -0.096358
C6    C     C_R   0.347738 0.168588 0.221385 -0.106781
C7    C     C_R   0.848574 0.330474 0.221556 -0.105110
C8    C     C_R   0.907602 0.699949 0.205767 -0.035644
H1    H     H_    0.408165 0.743609 0.172342 0.184486
H2    H     H_    0.327294 0.219266 0.203315 0.171198
H3    H     H_    0.828456 0.279581 0.203127 0.172596
H4    H     H_    0.920733 0.757173 0.169953 0.160411
N5    N     N_R   0.421680 0.867580 0.153120 -0.048308
N6    N     N_R   0.421680 0.132420 0.153120 -0.030843
N7    N     N_R   0.921680 0.367580 0.153120 -0.030983
N8    N     N_R   0.921680 0.632420 0.153120 -0.056963
C9    C     C_R   0.363615 0.890060 0.900246 -0.173049
C10   C     C_R   0.361763 0.108517 0.902179 -0.184780
C11   C     C_R   0.864183 0.389533 0.899300 -0.198341
C12   C     C_R   0.829828 0.587687 0.952423 -0.151423
H5    H     H_    0.359063 0.916172 0.840468 0.148794
H6    H     H_    0.354902 0.080587 0.845160 0.140753
H7    H     H_    0.858787 0.416314 0.840607 0.142605
H8    H     H_    0.809643 0.555071 0.911915 0.145760
N9    N     N_R   0.403730 0.921770 0.935950 -0.068346
N10   N     N_R   0.403730 0.078230 0.935950 -0.066479
N11   N     N_R   0.903730 0.421770 0.935950 -0.066602
N12   N     N_R   0.903730 0.578230 0.935950 -0.068778
C13   C     C_R   0.357963 0.076811 0.314600 -0.123841
C14   C     C_R   0.407873 0.892044 0.302711 -0.147945
C15   C     C_R   0.909886 0.607471 0.302320 -0.148814
C16   C     C_R   0.858792 0.422489 0.315184 -0.121913
H9    H     H_    0.349331 0.041210 0.377871 0.100865
H10   H     H_    0.412336 0.921299 0.361035 0.105263
H11   H     H_    0.914004 0.577004 0.359968 0.107294
H12   H     H_    0.850431 0.458074 0.378605 0.101612
N13   N     N_R   0.426630 0.075970 0.212960 -0.044638
N14   N     N_R   0.426630 0.924030 0.212960 -0.043749
N15   N     N_R   0.926630 0.575970 0.212960 -0.045463
N16   N     N_R   0.926630 0.424030 0.212960 -0.044779
C17   C     C_R   0.342028 0.184715 0.938888 -0.011932
C18   C     C_R   0.343512 0.814494 0.938657 -0.048269
C19   C     C_R   0.788404 0.649599 0.025199 -0.003632
C20   C     C_R   0.845322 0.312962 0.934819 -0.009140
C21   C     C_R   0.390062 0.814733 0.301225 -0.008342
C22   C     C_R   0.306466 0.135326 0.323384 -0.018464
C23   C     C_R   0.807735 0.363428 0.323984 -0.017098
C24   C     C_R   0.896748 0.685712 0.300391 -0.028557
C25   C     C_R   0.662331 0.174123 0.945791 -0.060201
C26   C     C_R   0.629350 0.801880 0.001917 -0.071158
C27   C     C_R   0.152306 0.685230 0.968208 -0.089970
C28   C     C_R   0.161727 0.324983 0.946017 -0.058690
H13   H     H_    0.674895 0.220770 0.891149 0.120325
H14   H     H_    0.628992 0.745604 0.969712 0.126678
H15   H     H_    0.156667 0.740736 0.932506 0.102942
H16   H     H_    0.174693 0.278763 0.890167 0.122030
N17   N     N_R   0.591320 0.134600 0.004200 -0.047255
N18   N     N_R   0.591320 0.865400 0.004200 -0.050209
N19   N     N_R   0.091320 0.634600 0.004200 -0.054916
N20   N     N_R   0.091320 0.365400 0.004200 -0.046498
C29   C     C_R   0.649302 0.827724 0.780100 -0.053445
C30   C     C_R   0.602451 0.198658 0.790904 -0.004135
C31   C     C_R   0.101917 0.301123 0.790735 -0.003818
C32   C     C_R   0.145125 0.676150 0.777463 -0.072259
H17   H     H_    0.665134 0.775191 0.802479 0.162701
H18   H     H_    0.605465 0.254609 0.821210 0.126306
H19   H     H_    0.105004 0.245221 0.820628 0.126823
H20   H     H_    0.158135 0.732245 0.796078 0.139715
N21   N     N_R   0.578320 0.867660 0.846880 -0.047206
N22   N     N_R   0.578320 0.132340 0.846880 -0.044619
N23   N     N_R   0.078320 0.367660 0.846880 -0.044431
N24   N     N_R   0.078320 0.632340 0.846880 -0.049989
C33   C     C_R   0.594281 0.106231 0.695846 -0.134471
C34   C     C_R   0.642071 0.922254 0.685377 -0.101942
C35   C     C_R   0.138911 0.578985 0.684284 -0.103697
C36   C     C_R   0.093680 0.393324 0.696146 -0.131923
H21   H     H_    0.588858 0.076660 0.638653 0.094562
H22   H     H_    0.653261 0.959443 0.621910 0.100446
H23   H     H_    0.148803 0.541657 0.621280 0.098521
H24   H     H_    0.087858 0.422637 0.639397 0.094507
N25   N     N_R   0.573370 0.074390 0.787040 -0.038521
N26   N     N_R   0.573370 0.925610 0.787040 -0.046090
N27   N     N_R   0.073370 0.574390 0.787040 -0.042189
N28   N     N_R   0.073370 0.425610 0.787040 -0.037576
C37   C     C_R   0.640524 0.897217 0.094635 -0.124594
C38   C     C_R   0.672798 0.081258 0.041496 -0.109002
C39   C     C_R   0.170054 0.414024 0.047482 -0.115831
C40   C     C_R   0.163970 0.589723 0.059361 -0.130512
H25   H     H_    0.650178 0.924606 0.149302 0.120929
H26   H     H_    0.696683 0.047678 0.076465 0.128046
H27   H     H_    0.190306 0.440056 0.091448 0.127717
H28   H     H_    0.182170 0.562420 0.104802 0.118729
N29   N     N_R   0.596270 0.927870 0.064040 -0.049174
N30   N     N_R   0.596270 0.072130 0.064040 -0.056792
N31   N     N_R   0.096270 0.427870 0.064040 -0.054546
N32   N     N_R   0.096270 0.572130 0.064040 -0.047699
Ni1   Ni    Ni4+2 0.500000 0.131190 0.000000 0.295057
Ni2   Ni    Ni4+2 0.500000 0.868810 0.000000 0.277244
Ni3   Ni    Ni4+2 0.000000 0.631190 0.000000 0.257158
Ni4   Ni    Ni4+2 0.000000 0.368810 0.000000 0.295437
Ni5   Ni    Ni4+2 0.488650 0.000000 0.862740 0.212316
Ni6   Ni    Ni4+2 0.988650 0.500000 0.862740 0.218697
Ni7   Ni    Ni4+2 0.511350 0.000000 0.137260 0.217579
Ni8   Ni    Ni4+2 0.011350 0.500000 0.137260 0.218076
C41   C     C_R   0.714475 0.143714 0.967761 0.113985
C42   C     C_R   0.661753 0.820697 0.055157 0.080014
C43   C     C_R   0.202621 0.654889 0.992773 0.126826
C44   C     C_R   0.212363 0.353212 0.971217 0.113297
C45   C     C_R   0.691106 0.860538 0.677496 -0.002312
C46   C     C_R   0.612426 0.184194 0.696289 -0.019990
C47   C     C_R   0.111238 0.315255 0.696614 -0.023502
C48   C     C_R   0.185186 0.643058 0.675281 0.016309
C49   C     C_3   0.202692 0.126423 0.525921 -0.380489
C50   C     C_3   0.256049 0.808389 0.476728 -0.363111
C51   C     C_3   0.760108 0.698017 0.473064 -0.351084
C52   C     C_3   0.704485 0.372590 0.526646 -0.375864
H29   H     H_    0.248149 0.094588 0.532146 0.176412
H30   H     H_    0.265505 0.867871 0.497847 0.168732
H31   H     H_    0.764433 0.637293 0.495842 0.171682
H32   H     H_    0.750171 0.404256 0.532709 0.177410
H33   H     H_    0.164286 0.081832 0.521022 0.162745
H34   H     H_    0.223722 0.816427 0.438776 0.169401
H35   H     H_    0.730795 0.693701 0.430771 0.188418
H36   H     H_    0.665946 0.417324 0.522382 0.165806
C53   C     C_3   0.146054 0.175970 0.629305 -0.349051
C54   C     C_3   0.199770 0.761839 0.580216 -0.366310
C55   C     C_3   0.703347 0.746060 0.575915 -0.356918
C56   C     C_3   0.648076 0.323271 0.629720 -0.347934
H37   H     H_    0.647949 0.767068 0.581398 0.176339
H38   H     H_    0.580975 0.340479 0.672754 0.171563
H39   H     H_    0.078943 0.159315 0.671590 0.170442
H40   H     H_    0.140041 0.747204 0.592530 0.174089
H41   H     H_    0.161389 0.161401 0.685096 0.194663
H42   H     H_    0.182090 0.799585 0.649649 0.196479
H43   H     H_    0.677889 0.707658 0.647306 0.204325
H44   H     H_    0.664040 0.337496 0.685063 0.196177
H45   H     H_    0.355536 0.206927 0.427564 0.204889
H46   H     H_    0.398639 0.813237 0.470395 0.203975
H47   H     H_    0.899022 0.679285 0.474719 0.201185
H48   H     H_    0.856880 0.291425 0.427746 0.204852
C57   C     C_3   0.305686 0.239106 0.430303 -0.485201
C58   C     C_3   0.386269 0.754979 0.450093 -0.497870
C59   C     C_3   0.889816 0.739515 0.456142 -0.499033
C60   C     C_3   0.807126 0.259438 0.429995 -0.486573
C61   C     C_3   0.840236 0.820964 0.370213 -0.396161
C62   C     C_3   0.682512 0.273311 0.425679 -0.389615
C63   C     C_3   0.181263 0.225923 0.425395 -0.391348
C64   C     C_3   0.324991 0.683039 0.370448 -0.393154
C65   C     C_3   0.249141 0.180233 0.424342 0.319299
C66   C     C_3   0.341438 0.765487 0.397142 0.318397
C67   C     C_3   0.848854 0.735777 0.397434 0.322176
C68   C     C_3   0.750616 0.318629 0.424674 0.314932
H49   H     H_    0.903238 0.849447 0.317685 0.166651
H50   H     H_    0.711573 0.233955 0.354121 0.181500
H51   H     H_    0.210416 0.265006 0.353982 0.181791
H52   H     H_    0.385452 0.650539 0.315305 0.173671
H53   H     H_    0.812620 0.821315 0.325786 0.218917
H54   H     H_    0.641211 0.315493 0.423048 0.182424
H55   H     H_    0.139780 0.183958 0.422680 0.181628
H56   H     H_    0.294694 0.687987 0.329574 0.206704
C69   C     C_3   0.752185 0.817009 0.575587 0.187683
C70   C     C_3   0.659474 0.234467 0.599741 0.189987
C71   C     C_3   0.158071 0.264722 0.599906 0.192969
C72   C     C_3   0.244952 0.685460 0.573821 0.190968
C73   C     C_3   0.833714 0.789516 0.561281 0.260071
C74   C     C_3   0.753922 0.209086 0.531862 0.261763
C75   C     C_3   0.252604 0.289371 0.532704 0.260048
C76   C     C_3   0.330951 0.703388 0.552689 0.274176
C77   C     C_3   0.782134 0.868317 0.474813 -0.454758
C78   C     C_3   0.629201 0.222639 0.528631 -0.440056
C79   C     C_3   0.128219 0.277064 0.528461 -0.440092
C80   C     C_3   0.265847 0.636958 0.474727 -0.465971
H57   H     H_    0.727759 0.887469 0.477162 0.186428
H58   H     H_    0.561418 0.238632 0.575372 0.201229
H59   H     H_    0.060310 0.261875 0.574884 0.201216
H60   H     H_    0.207487 0.624614 0.482691 0.187433
H61   H     H_    0.815194 0.921857 0.472664 0.179118
H62   H     H_    0.635804 0.160340 0.503014 0.162698
H63   H     H_    0.135525 0.339303 0.502922 0.162536
H64   H     H_    0.295382 0.579722 0.468840 0.176745
H65   H     H_    0.339063 0.278504 0.358434 0.162332
H66   H     H_    0.448687 0.726349 0.391679 0.156611
H67   H     H_    0.953582 0.766316 0.401798 0.150938
H68   H     H_    0.840588 0.220116 0.357618 0.162132
H69   H     H_    0.869731 0.843376 0.550961 0.079222
H70   H     H_    0.758465 0.147163 0.504854 0.064950
H71   H     H_    0.257539 0.351426 0.506444 0.065655
H72   H     H_    0.364138 0.646186 0.535636 0.081844
C81   C     C_2   0.281097 0.688330 0.958608 -0.125309
C82   C     C_2   0.289042 0.314063 0.938256 -0.112856
C83   C     C_2   0.792239 0.182057 0.934265 -0.117873
C84   C     C_2   0.719767 0.772034 0.053140 -0.069128
H73   H     H_    0.315072 0.657035 0.981023 0.198236
H74   H     H_    0.334030 0.346423 0.941407 0.189547
H75   H     H_    0.835037 0.149893 0.941660 0.191016
H76   H     H_    0.772052 0.804259 0.038522 0.195793
C85   C     C_2   0.801051 0.259247 0.912461 -0.153855
C86   C     C_2   0.717928 0.693748 0.047197 -0.152607
C87   C     C_2   0.302621 0.759478 0.914341 -0.078657
C88   C     C_2   0.295047 0.236612 0.920324 -0.155455
H77   H     H_    0.762335 0.289236 0.895658 0.149433
H78   H     H_    0.668540 0.663330 0.050526 0.136286
H79   H     H_    0.274860 0.785512 0.879144 0.177428
H80   H     H_    0.252992 0.205927 0.909540 0.146750
N33   N     N_R   0.386299 0.271446 0.027569 0.201804
O1    O     O_R   0.458189 0.285016 0.008915 -0.443592
O2    O     O_R   0.322421 0.316444 0.096242 -0.457910
N34   N     N_R   0.382586 0.731491 0.034833 0.196394
O3    O     O_R   0.319914 0.698168 0.123416 -0.474023
O4    O     O_R   0.457954 0.701777 0.981943 -0.438765
N35   N     N_R   0.830632 0.742647 0.110222 0.192517
O5    O     O_R   0.884281 0.799855 0.059512 -0.456973
O6    O     O_R   0.761008 0.754584 0.206969 -0.449502
N36   N     N_R   0.888255 0.228332 0.025827 0.200921
O7    O     O_R   0.824616 0.183374 0.094269 -0.458418
O8    O     O_R   0.959996 0.215511 0.007893 -0.447503
N37   N     N_R   0.816297 0.746065 0.654452 0.223370
O9    O     O_R   0.785470 0.675241 0.676049 -0.434344
O10   O     O_R   0.837966 0.776032 0.711605 -0.410518
N38   N     N_R   0.787432 0.211509 0.594156 0.235163
O11   O     O_R   0.798726 0.277879 0.625590 -0.437258
O12   O     O_R   0.809752 0.146540 0.614395 -0.406966
N39   N     N_R   0.285883 0.286031 0.595221 0.235236
O13   O     O_R   0.296729 0.219278 0.625903 -0.437591
O14   O     O_R   0.308569 0.350527 0.616282 -0.403019
N40   N     N_R   0.321627 0.739865 0.645216 0.223146
O15   O     O_R   0.295710 0.812095 0.673728 -0.459379
O16   O     O_R   0.346807 0.701960 0.693550 -0.419503

loop_
_geom_bond_atom_site_label_1
_geom_bond_atom_site_label_2
_geom_bond_distance
_ccdc_geom_bond_type
C35   H23   1.077108 S    
C64   H52   1.113367 S    
C58   C76   1.550054 S    
N12   Ni6   1.895741 S    
C27   H15   1.073659 S    
H46   C58   1.111477 S    
N17   Ni1   1.862657 S    
N17   N30   1.456499 A    
C14   N14   1.322617 A    
C73   H69   1.115014 S    
C4    N4    1.342307 A    
N38   O11   1.301589 A    
C78   H62   1.110853 S    
C35   N27   1.315851 A    
C10   H6    1.082133 S    
N8    Ni3   1.893693 S    
C30   H18   1.078425 S    
C76   H72   1.115134 S    
C24   C67   1.467832 S    
H47   C59   1.111261 S    
N31   Ni8   1.824448 S    
C7    N7    1.334102 A    
N19   N32   1.456499 A    
C1    N1    1.339072 A    
C79   H63   1.110817 S    
C56   C70   1.555991 S    
N1    N10   1.326128 A    
C3    N3    1.319349 A    
N35   O6    1.301800 A    
C45   C69   1.480371 S    
C52   C68   1.555591 S    
C81   H73   1.073165 S    
C60   C74   1.527936 S    
C22   C65   1.472153 S    
C3    N35   1.425630 S    
C30   N22   1.326805 A    
C61   H49   1.113224 S    
C40   H28   1.076000 S    
C29   N21   1.326199 A    
C26   C42   1.359247 A    
C80   H64   1.113564 S    
C50   H30   1.113864 S    
C5    H1    1.072128 S    
N5    N14   1.378320 A    
C51   H31   1.113975 S    
C31   C47   1.377782 A    
C53   H39   1.113178 S    
C7    H3    1.063142 S    
N20   N31   1.451399 A    
C62   H50   1.110259 S    
C88   H80   1.083258 S    
C27   N19   1.308935 A    
C74   H70   1.116312 S    
C51   C55   1.516359 S    
C28   N20   1.311922 A    
C46   C70   1.470172 S    
N3    N12   1.326128 A    
N29   Ni7   1.824448 S    
C11   H7    1.081937 S    
C59   C67   1.550108 S    
N14   Ni7   1.873573 S    
C78   H58   1.113043 S    
C61   C77   1.529375 S    
N5    Ni2   1.893859 S    
H48   C60   1.113601 S    
C57   C65   1.552233 S    
C49   C53   1.534886 S    
C34   N26   1.322376 A    
N24   Ni3   1.893841 S    
C63   C65   1.553507 S    
C77   H61   1.113339 S    
C43   C81   1.432012 S    
N3    Ni3   1.861872 S    
C35   C48   1.380152 A    
C36   N28   1.325570 A    
C12   C19   1.389432 A    
N9    Ni5   1.899743 S    
C2    N2    1.324687 A    
C25   N17   1.314376 A    
N25   Ni5   1.855061 S    
C8    C24   1.370458 A    
C53   H41   1.107676 S    
C52   C56   1.534892 S    
C38   H26   1.078990 S    
C83   H75   1.077833 S    
N16   Ni8   1.873573 S    
C69   C73   1.573576 S    
C62   H54   1.112683 S    
N1    Ni1   1.861872 S    
C23   C68   1.473225 S    
N32   Ni8   1.828281 S    
C63   C79   1.541140 S    
N23   N28   1.401101 A    
C53   C71   1.555860 S    
C1    N33   1.434062 S    
C36   H24   1.079348 S    
C8    H4    1.074092 S    
C21   C66   1.454878 S    
C16   H12   1.076993 S    
C5    C21   1.366983 A    
N19   Ni3   1.862657 S    
C10   C17   1.373278 A    
C6    H2    1.063106 S    
N6    N13   1.383172 A    
C84   H76   1.074008 S    
C55   H43   1.111403 S    
C25   H13   1.076734 S    
C71   C75   1.561423 S    
C26   N18   1.309459 A    
C59   H67   1.113134 S    
C13   C22   1.377383 A    
C87   H79   1.081643 S    
C37   C42   1.390072 A    
C54   H40   1.114495 S    
C2    C18   1.378570 A    
N30   Ni7   1.828281 S    
C28   H16   1.077315 S    
C19   C86   1.440818 S    
C37   N29   1.336906 A    
N6    Ni1   1.893693 S    
C63   H51   1.110132 S    
C39   C44   1.402241 A    
C15   H11   1.080869 S    
N35   O5    1.302449 A    
C12   N12   1.344547 A    
N37   O9    1.302463 A    
C50   C54   1.513139 S    
N18   N29   1.451399 A    
N28   Ni6   1.850967 S    
N7    Ni4   1.893859 S    
C34   H22   1.076228 S    
C80   H60   1.113587 S    
N36   O8    1.300145 A    
N39   O13   1.301598 A    
C58   C66   1.548692 S    
C36   C47   1.375946 A    
C33   H21   1.079591 S    
C32   H20   1.072963 S    
C82   C88   1.337041 D    
C8    N8    1.335460 A    
N33   O1    1.300194 A    
C75   H71   1.116358 S    
C32   N24   1.325472 A    
C5    N5    1.322443 A    
N40   O16   1.300657 A    
C4    C20   1.381285 A    
N4    Ni4   1.861903 S    
N24   N27   1.396184 A    
C44   C82   1.447861 S    
C6    C22   1.389075 A    
C64   H56   1.113317 S    
C16   C23   1.377621 A    
C32   C48   1.388505 A    
N22   Ni1   1.893841 S    
C74   N38   1.471490 S    
C73   N37   1.468426 S    
C18   C87   1.433229 S    
C62   C78   1.541533 S    
C64   C66   1.552160 S    
C70   C74   1.561522 S    
C50   C66   1.550971 S    
C63   H55   1.112684 S    
N10   Ni5   1.895741 S    
C42   C84   1.408529 S    
N23   Ni4   1.893685 S    
N11   Ni6   1.899743 S    
C51   C67   1.552424 S    
C16   N16   1.321432 A    
N26   Ni5   1.850967 S    
C31   N23   1.326735 A    
C47   C71   1.468681 S    
C33   C46   1.376623 A    
C54   H42   1.110221 S    
N8    N15   1.383172 A    
C15   N15   1.324709 A    
N7    N16   1.378320 A    
C40   N32   1.341411 A    
C71   C79   1.558628 S    
C9    C18   1.373431 A    
C26   H14   1.080962 S    
C25   C41   1.377666 A    
C72   C80   1.560076 S    
C9    H5    1.082212 S    
N21   Ni2   1.893685 S    
C14   C21   1.366836 A    
C76   N40   1.466653 S    
C11   C20   1.377658 A    
C30   C46   1.377854 A    
C27   C43   1.373059 A    
C14   H10   1.081222 S    
N4    N11   1.330768 A    
C29   C45   1.392282 A    
C58   H66   1.113178 S    
N20   Ni4   1.862760 S    
C12   H8    1.081298 S    
N34   O4    1.300895 A    
C55   H37   1.114788 S    
N38   O12   1.301177 A    
C79   H59   1.113053 S    
C52   H36   1.112804 S    
C40   C43   1.390793 A    
C83   C85   1.342841 D    
C49   H29   1.110207 S    
N13   Ni7   1.869432 S    
C56   H44   1.107733 S    
C60   C68   1.551831 S    
C75   N39   1.471592 S    
C70   C78   1.558222 S    
C4    N36   1.433696 S    
C81   C87   1.330873 D    
C13   N13   1.320958 A    
C61   C67   1.550565 S    
N37   O10   1.301645 A    
N39   O14   1.301179 A    
C10   N10   1.332472 A    
C49   C65   1.555929 S    
C2    N34   1.423929 S    
C1    C17   1.381509 A    
N36   O7    1.302132 A    
C82   H74   1.078624 S    
N27   Ni6   1.855061 S    
C9    N9    1.331531 A    
C6    N6    1.334019 A    
C17   C88   1.439512 S    
C29   H17   1.075090 S    
C20   C85   1.450584 S    
C3    C19   1.374078 A    
H45   C57   1.113638 S    
N33   O2    1.302199 A    
C28   C44   1.371334 A    
C41   C83   1.458172 S    
C31   H19   1.078257 S    
N15   Ni8   1.869432 S    
N2    Ni2   1.861903 S    
N22   N25   1.396184 A    
C37   H25   1.081122 S    
N40   O15   1.301919 A    
C13   H9    1.077030 S    
N21   N26   1.401101 A    
C7    C23   1.388846 A    
C52   H32   1.110299 S    
C33   N25   1.326529 A    
C64   C80   1.522923 S    
C54   C72   1.550996 S    
C60   H68   1.114163 S    
C72   C76   1.568957 S    
N2    N9    1.330768 A    
C61   H53   1.113032 S    
N34   O3    1.302208 A    
C55   C69   1.549300 S    
C39   H27   1.075355 S    
C56   H38   1.113176 S    
C86   H78   1.085881 S    
C57   H65   1.114215 S    
C15   C24   1.361746 A    
C85   H77   1.081993 S    
C48   C72   1.467226 S    
C62   C68   1.553649 S    
C50   H34   1.114528 S    
C38   C41   1.409021 A    
C39   N31   1.352618 A    
C77   H57   1.112029 S    
C69   C77   1.562556 S    
C49   H33   1.112791 S    
C34   C45   1.389747 A    
C38   N30   1.352646 A    
C57   C75   1.526458 S    
C59   C73   1.554555 S    
C84   C86   1.337707 D    
C11   N11   1.337008 A    
N18   Ni2   1.862760 S    
C51   H35   1.114670 S    
