data_mof_unit_8609.cif
_audit_creation_date              2012-10-26T19:52:46-0400
_audit_creation_method            fapswitch 2.2
_symmetry_space_group_name_H-M    P1
_symmetry_Int_Tables_number       1
_space_group_crystal_system       triclinic
_cell_length_a                    15.080032
_cell_length_b                    10.81427
_cell_length_c                    9.533725
_cell_angle_alpha                 89.968789
_cell_angle_beta                  90.400034
_cell_angle_gamma                 90.109054
_cell_volume                      1554.71453467

loop_
_atom_site_label
_atom_site_type_symbol
_atom_type_description
_atom_site_fract_x
_atom_site_fract_y
_atom_site_fract_z
_atom_type_partial_charge
C1    C     C_R   0.503722 0.262381 0.499887 0.576440
C2    C     C_R   0.184786 0.469461 0.376919 -0.126970
C3    C     C_R   0.231855 0.498526 0.499636 -0.016534
C4    C     C_R   0.328641 0.499409 0.499662 0.555444
C5    C     C_R   0.186538 0.526364 0.623434 -0.140272
C6    C     C_R   0.499401 0.063458 0.623689 -0.004503
C7    C     C_R   0.515420 0.129283 0.500329 0.031773
C8    C     C_R   0.544008 0.063407 0.380102 0.101979
C9    C     C_R   0.540013 0.933835 0.381012 -0.147702
C10   C     C_R   0.511340 0.870451 0.501050 -0.019367
C11   C     C_R   0.498247 0.936473 0.624396 -0.027277
C12   C     C_R   0.907572 0.525201 0.625130 -0.003436
C13   C     C_3   0.424296 0.929929 0.727724 -0.235266
C14   C     C_3   0.425468 0.070967 0.727729 0.012373
C15   C     C_R   0.534352 0.598005 0.074100 0.161203
C16   C     C_R   0.501663 0.737624 0.500049 0.552863
C17   C     C_R   0.457624 0.410000 0.074023 -0.006138
C18   C     C_R   0.457508 0.410155 0.925076 -0.016049
C19   C     C_R   0.534397 0.597925 0.926656 0.160322
C20   C     C_3   0.627434 0.644155 0.922266 -0.281283
C21   C     C_3   0.627247 0.644881 0.081349 -0.277701
C22   C     C_R   0.671416 0.499318 0.500266 0.535113
C23   C     C_R   0.952723 0.438179 0.254431 -0.131758
C24   C     C_R   0.815257 0.525288 0.623782 -0.134106
C25   C     C_R   0.768290 0.497579 0.500506 -0.012922
C26   C     C_R   0.814130 0.468430 0.377389 -0.146138
C27   C     C_R   0.906602 0.467439 0.377012 0.015457
C28   C     C_R   0.953645 0.496328 0.501404 0.057730
C29   C     C_3   0.272764 0.138915 0.764763 -0.305475
C30   C     C_1   0.091468 0.589013 0.879055 0.163368
C31   C     C_3   0.662648 0.172339 0.264887 -0.279890
C32   C     C_R   0.045118 0.438035 0.254666 -0.114671
C33   C     C_R   0.092422 0.467894 0.377180 0.017266
C34   C     C_R   0.046667 0.496758 0.501806 0.045490
C35   C     C_R   0.093772 0.526429 0.626317 -0.005482
C36   C     C_R   0.046755 0.555712 0.749790 -0.012005
C37   C     C_R   0.954170 0.554444 0.748189 -0.139852
Cu1   Cu    Cu3+1 0.500000 0.499980 0.640670 0.945779
Cu2   Cu    Cu3+1 0.500000 0.500020 0.359330 0.947649
H1    H     H_    0.780198 0.548492 0.718514 0.112931
H2    H     H_    0.674132 0.576917 0.127901 0.148947
H3    H     H_    0.777981 0.445718 0.282104 0.110239
H4    H     H_    0.631318 0.739411 0.126429 0.116430
H5    H     H_    0.917354 0.415537 0.158447 0.104194
H6    H     H_    0.079614 0.414683 0.158988 0.130200
H7    H     H_    0.219984 0.447190 0.281409 0.133222
H8    H     H_    0.224054 0.549038 0.717239 0.148189
H9    H     H_    0.918300 0.576983 0.843093 0.108838
H10   H     H_    0.326495 0.090874 0.571576 0.256003
H11   H     H_    0.218360 0.191468 0.713224 0.151796
H12   H     H_    0.557391 0.883400 0.287101 0.121917
H13   H     H_    0.294437 0.190838 0.859507 0.138523
H14   H     H_    0.247317 0.046567 0.796212 0.145311
H15   H     H_    0.561018 0.077421 0.165093 0.234052
H16   H     H_    0.710321 0.094276 0.271697 0.127228
H17   H     H_    0.671505 0.233170 0.357789 0.163361
H18   H     H_    0.677250 0.227471 0.169471 0.137087
H19   H     H_    0.363136 0.887676 0.682530 0.144372
H20   H     H_    0.446367 0.889529 0.829337 0.118109
H21   H     H_    0.446909 0.113054 0.828920 0.130645
H22   H     H_    0.424662 0.335927 0.129426 0.124259
H23   H     H_    0.424257 0.336635 0.868898 0.126710
H24   H     H_    0.673599 0.574588 0.879082 0.141574
H25   H     H_    0.632092 0.738047 0.875330 0.126842
N1    N     N_R   0.500570 0.500930 0.147930 -0.229904
N2    N     N_R   0.500570 0.500890 0.852020 -0.232910
N3    N     N_2   0.345532 0.125392 0.668177 -0.504713
N4    N     N_1   0.127353 0.615995 0.982315 -0.324809
N5    N     N_2   0.572776 0.125635 0.256751 -0.497396
O1    O     O_R   0.500000 0.319640 0.618810 -0.499284
O2    O     O_R   0.500010 0.319680 0.381230 -0.478388
O3    O     O_R   0.370250 0.499950 0.618800 -0.499797
O4    O     O_R   0.370260 0.499990 0.381220 -0.503029
O5    O     O_R   0.499990 0.680320 0.618770 -0.497603
O6    O     O_R   0.500000 0.680360 0.381190 -0.503873
O7    O     O_R   0.629740 0.500010 0.618780 -0.509896
O8    O     O_R   0.629750 0.500050 0.381200 -0.514825

loop_
_geom_bond_atom_site_label_1
_geom_bond_atom_site_label_2
_ccdc_geom_bond_type
Cu1   O1    S    
C16   O6    A    
C32   H6    S    
C35   C36   A    
C9    H12   S    
C22   O7    A    
C7    C8    A    
Cu1   O7    S    
C2    H7    S    
C15   C19   A    
C5    H8    S    
C8    N5    S    
C1    O2    A    
C12   C28   A    
C16   O5    A    
Cu2   O8    S    
C36   C37   A    
Cu1   Cu2   S    
C15   N1    A    
C19   N2    A    
C34   C35   A    
C12   C37   A    
C17   H22   S    
C29   N3    S    
Cu1   N2    S    
C8    C9    A    
C22   C25   S    
C14   N3    S    
C23   C27   A    
C31   H17   S    
C9    C10   A    
C28   C34   A    
C21   H4    S    
C13   C14   S    
Cu2   N1    S    
C33   C34   A    
C29   H11   S    
Cu1   O3    S    
C24   C25   A    
C6    C11   A    
C18   H23   S    
C13   H19   S    
C25   C26   A    
C23   H5    S    
C20   H25   S    
C6    C14   S    
C15   C21   S    
C17   C18   A    
C26   C27   A    
C37   H9    S    
C4    O4    A    
C21   H2    S    
C2    C33   A    
Cu2   O6    S    
C3    C4    S    
C4    O3    A    
C26   H3    S    
Cu1   O5    S    
H10   N3    S    
C1    C7    S    
C22   O8    A    
C3    C5    A    
C19   C20   S    
C6    C7    A    
C13   H20   S    
C18   N2    A    
C14   H21   S    
C12   C24   A    
C17   N1    A    
C1    O1    A    
C30   C36   S    
C23   C32   A    
C31   H18   S    
C20   H24   S    
C2    C3    A    
C10   C16   S    
C32   C33   A    
C11   C13   S    
H15   N5    S    
C29   H14   S    
C5    C35   A    
C24   H1    S    
Cu2   O4    S    
C10   C11   A    
C31   N5    S    
C20   C21   S    
C27   C28   A    
Cu2   O2    S    
C31   H16   S    
C30   N4    T    
C29   H13   S    
