data_mof_unit_19454.cif
_audit_creation_date              2013-03-05T15:50:56-0500
_audit_creation_method            fapswitch 2.2
_symmetry_space_group_name_H-M    P1
_symmetry_Int_Tables_number       1
_space_group_crystal_system       triclinic
_cell_length_a                    12.10735
_cell_length_b                    12.773879
_cell_length_c                    15.775559
_cell_angle_alpha                 91.896903
_cell_angle_beta                  87.172333
_cell_angle_gamma                 93.995618
_cell_volume                      2429.84235004

loop_
_atom_site_label
_atom_site_type_symbol
_atom_site_description
_atom_site_fract_x
_atom_site_fract_y
_atom_site_fract_z
_atom_type_partial_charge
O1    O     O_R   0.421690 0.658830 0.504140 -0.555133
O2    O     O_R   0.609320 0.646410 0.494190 -0.633101
C1    C     C_R   0.522796 0.699948 0.499726 0.891728
O3    O     O_R   0.406150 0.506210 0.627840 -0.568926
O4    O     O_R   0.593770 0.493790 0.617880 -0.630969
C2    C     C_R   0.501268 0.502379 0.661286 0.912013
Zn1   Zn    Zn3+2 0.374720 0.508290 0.506640 0.978808
Zn2   Zn    Zn3+2 0.625280 0.491710 0.493360 0.948259
O5    O     O_R   0.390680 0.353590 0.505810 -0.651245
O6    O     O_R   0.578310 0.341170 0.495860 -0.624164
O7    O     O_R   0.406230 0.506210 0.382120 -0.650172
O8    O     O_R   0.593850 0.493790 0.372160 -0.592631
C3    C     C_R   0.477566 0.300086 0.499738 0.855047
C4    C     C_R   0.498984 0.497311 0.338509 0.878362
C5    C     C_3   0.462983 0.618403 0.956484 -0.164586
C6    C     C_3   0.632110 0.510419 0.947061 -0.212356
C7    C     C_3   0.624244 0.490358 0.045380 0.175780
H1    H     H_    0.524506 0.680091 0.932685 0.182339
H2    H     H_    0.672615 0.590997 0.940248 0.143933
H3    H     H_    0.679960 0.553437 0.074048 0.144229
C8    C     C_1   0.498043 0.494692 0.249579 -0.121779
C9    C     C_3   0.510544 0.515028 0.916198 0.155152
C10   C     C_3   0.468503 0.620358 0.058520 0.284227
C11   C     C_3   0.502170 0.505264 0.082519 -0.000868
C12   C     C_3   0.417253 0.420529 0.042439 -0.101730
C13   C     C_3   0.441001 0.415415 0.945731 -0.386314
C14   C     C_1   0.499711 0.496221 0.174233 0.025486
C15   C     C_1   0.508928 0.515179 0.824654 -0.072430
C16   C     C_1   0.505171 0.510048 0.749696 -0.179301
H4    H     H_    0.362061 0.402684 0.912975 0.146548
H5    H     H_    0.487566 0.345471 0.927379 0.205113
H6    H     H_    0.333796 0.449324 0.054970 0.144411
C17   C     C_R   0.463414 0.188697 0.502968 -0.088140
C18   C     C_R   0.539542 0.810737 0.494117 -0.055696
C19   C     C_R   0.599535 0.957958 0.410511 -0.208628
C20   C     C_R   0.601733 0.852615 0.425563 -0.190963
C21   C     C_R   0.484036 0.873453 0.552704 -0.221488
C22   C     C_R   0.477879 0.979533 0.538160 0.117008
C23   C     C_R   0.532729 0.021704 0.463167 0.122300
C24   C     C_R   0.520366 0.126258 0.443013 0.027446
C25   C     C_R   0.409611 0.147890 0.575847 -0.272600
C26   C     C_R   0.415715 0.043415 0.594867 0.100510
H7    H     H_    0.367989 0.199915 0.620785 0.154679
H8    H     H_    0.647427 0.986878 0.355562 0.167889
H9    H     H_    0.646947 0.802817 0.381190 0.179104
H10   H     H_    0.443571 0.837060 0.607812 0.192939
N1    N     N_R   0.207800 0.519340 0.515510 -0.180684
N2    N     N_R   0.792190 0.480660 0.484490 -0.105943
C27   C     C_R   0.947188 0.393013 0.427540 -0.294366
C28   C     C_R   0.833781 0.404458 0.433507 0.048236
C29   C     C_R   0.859180 0.546421 0.532100 -0.025340
C30   C     C_R   0.975783 0.537617 0.529730 -0.019083
C31   C     C_R   0.020970 0.461082 0.474380 0.050806
C32   C     C_R   0.138345 0.455664 0.465668 0.101641
C33   C     C_R   0.164108 0.592465 0.570710 0.426822
C34   C     C_R   0.047817 0.603849 0.579267 -0.096822
H11   H     H_    0.974689 0.331017 0.385220 0.161568
H12   H     H_    0.778413 0.352391 0.397161 0.135918
H13   H     H_    0.819757 0.605129 0.571308 0.135254
N3    N     N_R   0.556198 0.700046 0.086966 0.180491
O9    O     O_R   0.586668 0.701819 0.165054 -0.421424
O10   O     O_R   0.587318 0.781467 0.041919 -0.443638
C35   C     C_3   0.357075 0.656580 0.916188 -0.380388
C36   C     C_3   0.256322 0.577440 0.905590 -0.305101
C37   C     C_3   0.150378 0.633949 0.898028 -0.866566
H14   H     H_    0.132035 0.680422 0.957135 0.251696
H15   H     H_    0.158767 0.687336 0.843635 0.297637
H16   H     H_    0.079827 0.575340 0.888521 0.246503
H17   H     H_    0.269538 0.528377 0.846981 0.247439
H18   H     H_    0.242237 0.524621 0.959412 0.196036
H19   H     H_    0.331040 0.727834 0.950995 0.215321
H20   H     H_    0.381496 0.684946 0.851493 0.221889
C38   C     C_3   0.355707 0.649340 0.106255 -0.421961
C39   C     C_3   0.344496 0.768070 0.124019 -0.260579
C40   C     C_3   0.225606 0.790944 0.151094 -0.921993
H21   H     H_    0.169272 0.768447 0.099114 0.264733
H22   H     H_    0.197624 0.746748 0.208631 0.272539
H23   H     H_    0.221330 0.876220 0.165891 0.259886
H24   H     H_    0.398489 0.795823 0.176312 0.261555
H25   H     H_    0.371086 0.814866 0.067792 0.233452
H26   H     H_    0.283139 0.616479 0.072585 0.199508
H27   H     H_    0.345355 0.613067 0.169200 0.190340
C41   C     C_3   0.406257 0.308584 0.079509 -0.373300
C42   C     C_3   0.307969 0.240665 0.043592 -0.382740
C43   C     C_3   0.294226 0.132752 0.083103 -0.866608
H28   H     H_    0.366240 0.086628 0.064056 0.263108
H29   H     H_    0.286345 0.140305 0.153397 0.260722
H30   H     H_    0.218287 0.089337 0.060118 0.256068
H31   H     H_    0.229944 0.280626 0.055150 0.224878
H32   H     H_    0.321176 0.228649 0.973867 0.226030
H33   H     H_    0.480986 0.266280 0.065002 0.274137
H34   H     H_    0.394714 0.314329 0.149457 0.201688
C44   C     C_3   0.567203 0.171061 0.358716 -0.413748
C45   C     C_3   0.504898 0.122423 0.282782 -0.416363
C46   C     C_3   0.570842 0.144725 0.199810 -0.752802
H35   H     H_    0.582812 0.230652 0.191364 0.294959
H36   H     H_    0.653032 0.111164 0.199970 0.271615
H37   H     H_    0.525647 0.108229 0.145786 0.250323
H38   H     H_    0.489202 0.036174 0.287596 0.246438
H39   H     H_    0.422998 0.156505 0.281225 0.214449
H40   H     H_    0.561243 0.256964 0.355585 0.204667
H41   H     H_    0.657376 0.159704 0.351838 0.201430
C47   C     C_3   0.358595 0.005445 0.677311 -0.415373
C48   C     C_3   0.442148 0.994992 0.746159 -0.346550
C49   C     C_3   0.384599 0.952844 0.827613 -0.865615
H42   H     H_    0.323201 0.007660 0.853574 0.259840
H43   H     H_    0.341684 0.874579 0.814958 0.272420
H44   H     H_    0.446973 0.944669 0.875854 0.260439
H45   H     H_    0.506440 0.941187 0.723978 0.223420
H46   H     H_    0.484359 0.073241 0.760442 0.226908
H47   H     H_    0.297554 0.061756 0.701605 0.196363
H48   H     H_    0.309214 0.930437 0.666182 0.254489
C50   C     C_3   0.185017 0.383420 0.396931 -0.354831
C51   C     C_3   0.170957 0.425656 0.308040 -0.363901
C52   C     C_3   0.178082 0.338622 0.240385 -0.903816
H49   H     H_    0.253491 0.295876 0.247578 0.256986
H50   H     H_    0.104190 0.282278 0.246301 0.271462
H51   H     H_    0.180938 0.373713 0.176917 0.254316
H52   H     H_    0.090316 0.460971 0.303501 0.237893
H53   H     H_    0.236516 0.488625 0.293910 0.237430
H54   H     H_    0.272365 0.372352 0.402698 0.252262
H55   H     H_    0.145541 0.302867 0.403916 0.174296
N4    N     N_R   0.237455 0.663734 0.615679 0.214219
O11   O     O_R   0.259353 0.644483 0.693263 -0.453539
O12   O     O_R   0.253742 0.759090 0.589251 -0.472752
C53   C     C_3   0.001941 0.687236 0.640286 -0.362042
C54   C     C_3   0.945941 0.638475 0.720482 -0.370726
C55   C     C_3   0.899366 0.722818 0.780186 -0.864682
H56   H     H_    0.967281 0.778856 0.801771 0.267215
H57   H     H_    0.838301 0.766246 0.747496 0.263037
H58   H     H_    0.856726 0.686016 0.836621 0.250124
H59   H     H_    0.877349 0.580216 0.704418 0.220696
H60   H     H_    0.007605 0.596677 0.753688 0.246042
H61   H     H_    0.067383 0.746130 0.660866 0.253718
H62   H     H_    0.943424 0.733375 0.607385 0.189627
C56   C     C_3   0.709921 0.442811 0.889202 -0.315165
C57   C     C_3   0.831215 0.451015 0.915478 -0.314838
C58   C     C_3   0.903397 0.385809 0.855112 -0.887569
H63   H     H_    0.873117 0.301736 0.856269 0.280633
H64   H     H_    0.901995 0.413638 0.789262 0.252807
H65   H     H_    0.990272 0.393047 0.875192 0.247078
H66   H     H_    0.864429 0.534153 0.914643 0.200480
H67   H     H_    0.838553 0.423381 0.980540 0.280776
H68   H     H_    0.676946 0.359950 0.883329 0.245798
H69   H     H_    0.712346 0.472895 0.823796 0.192567
N5    N     N_R   0.666324 0.391374 0.071848 0.194812
O13   O     O_R   0.662748 0.306390 0.024122 -0.451571
O14   O     O_R   0.719834 0.391911 0.141446 -0.425604

loop_
_geom_bond_atom_site_label_1
_geom_bond_atom_site_label_2
_geom_bond_distance
_ccdc_geom_bond_type
C5    H1    1.107673 S    
C33   C34   1.424875 A    
C44   C45   1.537727 S    
C18   C21   1.382890 A    
C38   C39   1.547240 S    
C19   C20   1.376449 A    
C11   C14   1.453936 S    
C24   C44   1.532422 S    
C57   H66   1.109317 S    
C55   H56   1.110834 S    
C51   C52   1.519313 S    
C46   H37   1.107820 S    
N4    O11   1.299928 A    
C31   C32   1.427245 A    
Zn1   O7    1.982177 S    
C41   H34   1.106069 S    
C49   H43   1.110843 S    
C53   C54   1.535226 S    
C4    C8    1.402806 S    
N3    O10   1.302544 A    
C15   C16   1.185093 T    
C5    C9    1.579091 S    
C22   C26   1.415438 A    
C22   C23   1.430257 A    
O7    C4    1.297601 A    
N4    O12   1.299387 A    
C52   H49   1.108331 S    
C32   C50   1.514172 S    
C7    H3    1.113128 S    
C27   H11   1.078675 S    
C47   H47   1.112824 S    
C25   C26   1.385266 A    
O5    C3    1.291827 A    
C54   H59   1.108995 S    
N2    C29   1.360504 A    
C50   H55   1.110478 S    
C46   H35   1.108664 S    
C6    C7    1.577597 S    
C37   H15   1.110037 S    
C10   C11   1.614484 S    
C36   H18   1.101286 S    
C51   H52   1.110080 S    
C52   H51   1.108485 S    
C12   H6    1.105732 S    
N2    C28   1.350723 A    
C57   H67   1.106043 S    
C13   H5    1.112161 S    
C9    C15   1.445317 S    
C26   C47   1.520315 S    
C25   H7    1.085546 S    
C42   H32   1.110805 S    
C10   C38   1.587362 S    
O3    Zn1   1.969215 S    
C38   H26   1.100079 S    
C48   C49   1.526992 S    
N5    O14   1.301670 A    
C43   H29   1.109896 S    
C10   N3    1.493664 S    
C49   H44   1.110540 S    
C33   N4    1.423869 S    
C17   C24   1.403053 A    
C39   C40   1.526265 S    
N5    O13   1.299900 A    
C29   C30   1.422584 A    
C28   H12   1.082145 S    
C42   C43   1.526790 S    
O3    C2    1.294812 A    
C44   H40   1.107563 S    
C23   C24   1.402804 A    
C1    C18   1.420661 S    
C52   H50   1.110660 S    
C12   C13   1.538568 S    
C43   H28   1.109806 S    
O6    C3    1.293251 A    
C47   H48   1.107114 S    
O1    C1    1.297541 A    
Zn1   N1    2.033304 S    
C19   C23   1.409981 A    
C40   H21   1.110169 S    
Zn2   N2    2.033182 S    
C3    C17   1.423535 S    
C21   C22   1.389496 A    
C41   C42   1.542718 S    
C45   H39   1.112059 S    
Zn2   O8    1.969216 S    
C37   H16   1.108461 S    
C20   H9    1.084241 S    
C36   H17   1.110979 S    
C11   C12   1.578654 S    
C19   H8    1.079764 S    
C40   H22   1.110990 S    
C58   H64   1.110328 S    
N1    C32   1.383682 A    
O8    C4    1.293060 A    
C53   H62   1.110594 S    
C13   H4    1.108356 S    
C34   C53   1.526927 S    
C39   H24   1.111356 S    
C29   H13   1.078354 S    
C42   H31   1.109172 S    
C54   C55   1.526739 S    
C6    C56   1.562953 S    
C55   H58   1.108459 S    
C38   H27   1.107492 S    
C30   C31   1.410118 A    
N1    C33   1.371214 A    
C50   C51   1.540446 S    
C57   C58   1.526839 S    
C43   H30   1.110365 S    
Zn1   O5    1.998452 S    
C6    C9    1.578456 S    
O1    Zn1   1.968050 S    
O2    Zn2   1.998452 S    
C54   H60   1.108843 S    
C35   H19   1.104144 S    
C56   C57   1.541169 S    
C58   H65   1.110237 S    
C55   H57   1.110876 S    
C44   H41   1.110898 S    
O4    Zn2   1.982178 S    
C46   H36   1.110759 S    
C41   H33   1.096589 S    
C49   H42   1.110924 S    
C56   H69   1.111251 S    
C17   C25   1.391523 A    
C36   C37   1.526582 S    
C7    C11   1.584416 S    
C56   H68   1.107506 S    
C48   H46   1.111894 S    
O4    C2    1.292941 A    
C45   H38   1.109341 S    
C6    H2    1.115023 S    
C27   C31   1.419300 A    
C5    C10   1.613643 S    
O2    C1    1.288259 A    
C18   C20   1.387269 A    
C37   H14   1.110175 S    
C8    C14   1.188577 T    
C45   C46   1.523736 S    
C40   H23   1.110678 S    
C58   H63   1.110783 S    
C7    N5    1.475922 S    
C35   C36   1.541118 S    
C2    C16   1.397822 S    
C50   H54   1.085299 S    
C35   H20   1.113607 S    
C53   H61   1.106924 S    
Zn2   O6    1.968050 S    
C27   C28   1.389185 A    
C9    C13   1.548016 S    
C47   C48   1.535473 S    
C12   C41   1.557467 S    
C5    C35   1.572955 S    
C48   H45   1.110166 S    
N3    O9    1.302290 A    
C39   H25   1.108093 S    
C21   H10   1.079311 S    
C51   H53   1.110026 S    
C30   C34   1.416957 A    
