data_mof_unit_42403.cif
_audit_creation_date              2012-12-10T18:36:09-0500
_audit_creation_method            fapswitch 2.2
_symmetry_space_group_name_H-M    P1
_symmetry_Int_Tables_number       1
_space_group_crystal_system       triclinic
_cell_length_a                    15.140409
_cell_length_b                    15.623272
_cell_length_c                    19.245513
_cell_angle_alpha                 94.753339
_cell_angle_beta                  103.378106
_cell_angle_gamma                 80.813483
_cell_volume                      4367.04703073

loop_
_atom_site_label
_atom_site_type_symbol
_atom_type_description
_atom_site_fract_x
_atom_site_fract_y
_atom_site_fract_z
_atom_type_partial_charge
C1    C     C_R   0.442121 0.661053 0.485253 0.906344
C2    C     C_R   0.557882 0.338958 0.514754 0.906493
C3    C     C_R   0.408121 0.752375 0.467820 -0.181489
C4    C     C_R   0.591887 0.247672 0.532269 -0.181846
C5    C     C_R   0.286234 0.873143 0.434785 -0.145261
C6    C     C_R   0.713666 0.126998 0.565964 -0.144877
C7    C     C_R   0.315952 0.783380 0.439709 0.593042
C8    C     C_R   0.683973 0.216751 0.560798 0.593706
C9    C     C_R   0.472148 0.808985 0.476300 -0.312684
C10   C     C_R   0.527866 0.191049 0.523623 -0.312959
C11   C     C_R   0.446552 0.898655 0.474571 0.036923
C12   C     C_R   0.553483 0.101413 0.525657 0.036854
C13   C     C_R   0.351309 0.931816 0.459169 -0.086315
C14   C     C_R   0.648698 0.068296 0.541309 -0.086334
C15   C     C_R   0.513983 0.955558 0.493226 0.005870
C16   C     C_R   0.486103 0.044496 0.507038 0.005887
C17   C     C_R   0.391530 0.074039 0.500516 -0.307295
C18   C     C_R   0.608600 0.926060 0.499798 -0.307342
C19   C     C_R   0.325497 0.021166 0.471453 0.593307
C20   C     C_R   0.674603 0.978992 0.528931 0.593540
C21   C     C_R   0.843139 0.636104 0.616534 -0.095749
C22   C     C_R   0.156913 0.363676 0.383636 -0.095414
C23   C     C_R   0.501305 0.498831 0.634045 0.935415
C24   C     C_R   0.498694 0.501168 0.365955 0.935360
C25   C     C_R   0.752282 0.617650 0.592659 0.048456
C26   C     C_R   0.247741 0.382254 0.407411 0.048643
C27   C     C_R   0.801247 0.503400 0.514094 0.175604
C28   C     C_R   0.198758 0.496515 0.485972 0.175224
C29   C     C_R   0.886768 0.534101 0.524662 -0.059293
C30   C     C_R   0.113297 0.465706 0.475487 -0.059058
C31   C     C_R   0.912030 0.590168 0.584671 -0.141076
C32   C     C_R   0.088037 0.409617 0.415498 -0.141363
C33   C     C_R   0.953170 0.498178 0.485073 -0.227361
C34   C     C_R   0.046900 0.501584 0.515097 -0.227236
C35   C     C_R   0.071885 0.540231 0.584059 0.560230
C36   C     C_R   0.928187 0.459549 0.416104 0.560230
C37   C     C_R   0.006163 0.590705 0.615279 0.534378
C38   C     C_R   0.993908 0.409087 0.384879 0.534322
C39   C     C_R   0.420748 0.521308 0.732897 -0.312834
C40   C     C_R   0.579229 0.478636 0.267100 -0.312916
C41   C     C_R   0.418083 0.520911 0.804451 -0.044716
C42   C     C_R   0.581914 0.479048 0.195553 -0.044747
C43   C     C_R   0.500052 0.493710 0.854314 -0.200187
C44   C     C_R   0.499979 0.506312 0.145691 -0.200181
C45   C     C_R   0.581751 0.464573 0.831156 0.550795
C46   C     C_R   0.418290 0.535482 0.168847 0.551028
C47   C     C_R   0.582931 0.465394 0.759096 0.515576
C48   C     C_R   0.417092 0.534644 0.240903 0.515506
C49   C     C_R   0.502666 0.496241 0.709919 -0.268024
C50   C     C_R   0.497332 0.503754 0.290080 -0.268000
C51   C     C_R   0.498501 0.502562 0.069747 0.350351
C52   C     C_R   0.501549 0.497470 0.930261 0.350385
H1    H     H_    0.357434 0.539988 0.695332 0.215387
H2    H     H_    0.642515 0.459898 0.304658 0.215271
H3    H     H_    0.457329 0.218467 0.511690 0.189325
H4    H     H_    0.542683 0.781497 0.487840 0.189110
H5    H     H_    0.365853 0.138052 0.518969 0.167047
H6    H     H_    0.634330 0.862086 0.481315 0.166890
N1    N     N_R   0.542290 0.428731 0.970228 -0.110374
N2    N     N_R   0.457759 0.571301 0.029780 -0.110283
N3    N     N_R   0.540765 0.431284 0.039022 -0.175033
N4    N     N_R   0.459284 0.568748 0.960985 -0.175006
N5    N     N_R   0.731690 0.552730 0.540620 -0.139390
N6    N     N_R   0.268310 0.447270 0.459380 -0.139400
O1    O     O_R   0.383120 0.605620 0.479520 -0.570502
O2    O     O_R   0.616880 0.394380 0.520480 -0.570694
O3    O     O_R   0.531890 0.639510 0.505590 -0.632115
O4    O     O_R   0.468110 0.360490 0.494410 -0.632066
O5    O     O_R   0.425590 0.483060 0.588820 -0.642306
O6    O     O_R   0.574410 0.516940 0.411180 -0.642278
O7    O     O_R   0.574360 0.516950 0.614890 -0.572539
O8    O     O_R   0.425640 0.483050 0.385110 -0.572746
Zn1   Zn    Zn3+2 0.400660 0.477370 0.482600 0.990765
Zn2   Zn    Zn3+2 0.599340 0.522630 0.517400 0.990782
F1    F     F_    0.035911 0.632086 0.679231 -0.661024
F2    F     F_    0.964175 0.367788 0.320884 -0.660864
C53   C     C_R   0.195700 0.592817 0.499990 0.157986
C54   C     C_R   0.122441 0.648348 0.459305 -0.079689
C55   C     C_R   0.100677 0.734724 0.482461 -0.069455
C56   C     C_R   0.153511 0.767945 0.545147 -0.107478
C57   C     C_R   0.229340 0.715575 0.583511 -0.160299
C58   C     C_R   0.249615 0.628754 0.561189 0.017547
H7    H     H_    0.078608 0.623224 0.411788 0.131193
H8    H     H_    0.041984 0.775340 0.452357 0.142941
H9    H     H_    0.135491 0.833938 0.564383 0.115357
H10   H     H_    0.270584 0.741288 0.632043 0.119846
H11   H     H_    0.303817 0.589048 0.593896 0.148280
C59   C     C_R   0.804190 0.407106 0.500093 0.157418
C60   C     C_R   0.750271 0.371201 0.438883 0.017092
C61   C     C_R   0.770241 0.284274 0.416737 -0.160672
C62   C     C_R   0.845810 0.231763 0.455265 -0.108448
C63   C     C_R   0.898743 0.265009 0.517891 -0.069834
C64   C     C_R   0.877259 0.351496 0.540883 -0.079224
H12   H     H_    0.696265 0.410989 0.406076 0.148562
H13   H     H_    0.728950 0.258563 0.368231 0.120127
H14   H     H_    0.863552 0.165643 0.436199 0.115448
H15   H     H_    0.957272 0.224309 0.548097 0.142434
H16   H     H_    0.921122 0.376604 0.588389 0.131292
C65   C     C_R   0.316224 0.336598 0.368111 0.161975
C66   C     C_R   0.324453 0.369048 0.304370 -0.110001
C67   C     C_R   0.380519 0.321034 0.262162 -0.157997
C68   C     C_R   0.424870 0.238145 0.281315 -0.132627
C69   C     C_R   0.410101 0.202151 0.340960 -0.127922
C70   C     C_R   0.353757 0.250514 0.382665 -0.143921
H17   H     H_    0.286650 0.431263 0.287307 0.197541
H18   H     H_    0.388345 0.347457 0.214063 0.141624
H19   H     H_    0.467906 0.200722 0.248562 0.134381
H20   H     H_    0.440163 0.136149 0.353772 0.147243
H21   H     H_    0.335050 0.220238 0.424238 0.127274
C71   C     C_R   0.683773 0.663269 0.631952 0.162071
C72   C     C_R   0.675662 0.630891 0.695758 -0.109811
C73   C     C_R   0.619545 0.678890 0.737937 -0.157808
C74   C     C_R   0.575004 0.761689 0.718674 -0.132805
C75   C     C_R   0.589624 0.797611 0.658942 -0.128338
C76   C     C_R   0.646019 0.749266 0.617266 -0.143029
H22   H     H_    0.713587 0.568744 0.712888 0.197437
H23   H     H_    0.611817 0.652526 0.786092 0.141634
H24   H     H_    0.531926 0.799099 0.751403 0.134369
H25   H     H_    0.559399 0.863549 0.646035 0.147134
H26   H     H_    0.664594 0.779487 0.575611 0.126679
C77   C     C_R   0.864180 0.706197 0.672125 0.176335
C78   C     C_R   0.871720 0.788291 0.651637 -0.090384
C79   C     C_R   0.890743 0.854943 0.703369 -0.101987
C80   C     C_R   0.903369 0.839780 0.775819 -0.138741
C81   C     C_R   0.896942 0.757749 0.796623 -0.139147
C82   C     C_R   0.877396 0.690973 0.744970 -0.056579
H27   H     H_    0.862567 0.800440 0.595665 0.178744
H28   H     H_    0.895665 0.918224 0.687194 0.176098
H29   H     H_    0.918318 0.891514 0.815797 0.132445
H30   H     H_    0.907172 0.745895 0.852739 0.131981
H31   H     H_    0.873073 0.627501 0.761559 0.127327
C83   C     C_R   0.135863 0.293419 0.328187 0.175774
C84   C     C_R   0.123040 0.308288 0.255312 -0.056789
C85   C     C_R   0.103356 0.241398 0.203800 -0.138972
C86   C     C_R   0.096351 0.159611 0.224767 -0.139079
C87   C     C_R   0.108538 0.144803 0.297239 -0.101215
C88   C     C_R   0.127733 0.211569 0.348835 -0.088733
H32   H     H_    0.127743 0.371584 0.238586 0.127205
H33   H     H_    0.093438 0.252981 0.147661 0.132023
H34   H     H_    0.081269 0.107797 0.184892 0.132522
H35   H     H_    0.103111 0.081712 0.313529 0.175726
H36   H     H_    0.136513 0.199708 0.404825 0.178477
F3    F     F_    0.159464 0.526083 0.622969 -0.667768
F4    F     F_    0.840624 0.473746 0.377170 -0.667748
C89   C     C_R   0.327827 0.546208 0.824195 0.177468
C90   C     C_R   0.292972 0.489241 0.860338 -0.113615
C91   C     C_R   0.206754 0.512489 0.876761 -0.108116
C92   C     C_R   0.154412 0.592318 0.856839 -0.055543
C93   C     C_R   0.188228 0.649114 0.820516 -0.022210
C94   C     C_R   0.274369 0.626167 0.803970 -0.117885
H37   H     H_    0.332167 0.426656 0.875234 0.134153
H38   H     H_    0.180307 0.468387 0.904625 0.144547
H39   H     H_    0.087531 0.610061 0.869322 0.131209
H40   H     H_    0.147481 0.710794 0.804891 0.154953
H41   H     H_    0.299517 0.670747 0.775544 0.116986
C95   C     C_R   0.672162 0.453689 0.175820 0.177513
C96   C     C_R   0.725528 0.373687 0.196011 -0.118104
C97   C     C_R   0.811677 0.350686 0.179498 -0.022398
C98   C     C_R   0.845589 0.407468 0.143238 -0.055329
C99   C     C_R   0.793335 0.487337 0.123347 -0.108158
C100  C     C_R   0.707110 0.510639 0.139737 -0.113573
H42   H     H_    0.700305 0.329118 0.224389 0.117066
H43   H     H_    0.852354 0.288974 0.195098 0.154803
H44   H     H_    0.912475 0.389682 0.130779 0.131319
H45   H     H_    0.819858 0.531427 0.095533 0.144543
H46   H     H_    0.667985 0.573253 0.124869 0.134161
F5    F     F_    0.660796 0.437111 0.878586 -0.626127
F6    F     F_    0.339270 0.562992 0.121417 -0.626105
F7    F     F_    0.661335 0.433443 0.737227 -0.624525
F8    F     F_    0.338697 0.566620 0.262770 -0.624808
F9    F     F_    0.236664 0.058255 0.461217 -0.723893
F10   F     F_    0.763498 0.942139 0.538920 -0.723918
F11   F     F_    0.743829 0.273618 0.586836 -0.646879
F12   F     F_    0.255944 0.726577 0.413980 -0.647572
C101  C     C_R   0.188941 0.901365 0.399800 0.235709
C102  C     C_R   0.159529 0.886378 0.325641 -0.093823
C103  C     C_R   0.066944 0.907052 0.292217 -0.169958
C104  C     C_R   0.003086 0.942920 0.332527 -0.131802
C105  C     C_R   0.031690 0.957890 0.406318 -0.177055
C106  C     C_R   0.124108 0.936498 0.440031 -0.050077
H47   H     H_    0.208266 0.858052 0.293881 0.153386
H48   H     H_    0.044737 0.895370 0.235061 0.146887
H49   H     H_    0.931490 0.959206 0.306589 0.140972
H50   H     H_    0.982059 0.985604 0.437323 0.128473
H51   H     H_    0.145403 0.948110 0.497241 0.132830
C107  C     C_R   0.810527 0.098848 0.602049 0.235277
C108  C     C_R   0.876576 0.064115 0.562806 -0.049979
C109  C     C_R   0.968598 0.042958 0.597638 -0.178065
C110  C     C_R   0.995553 0.057687 0.671588 -0.131424
C111  C     C_R   0.930447 0.093064 0.710931 -0.168677
C112  C     C_R   0.838277 0.113548 0.676374 -0.094532
H52   H     H_    0.856542 0.052686 0.505506 0.132985
H53   H     H_    0.019198 0.015602 0.567383 0.128561
H54   H     H_    0.066830 0.041565 0.698406 0.140773
H55   H     H_    0.951361 0.104517 0.768213 0.146799
H56   H     H_    0.788563 0.141527 0.707389 0.152868

loop_
_geom_bond_atom_site_label_1
_geom_bond_atom_site_label_2
_ccdc_geom_bond_type
C15   C18   A    
C88   H36   S    
C67   C68   A    
C27   C29   A    
C5    C101  S    
C23   O5    A    
C42   C95   S    
C72   C73   A    
C51   N3    A    
C4    C8    A    
C57   C58   A    
C61   C62   A    
C24   O6    A    
C61   H13   S    
C39   C41   A    
C38   F2    S    
C53   C54   A    
C21   C31   A    
C66   H17   S    
C96   C97   A    
C22   C32   A    
C27   C59   S    
C101  C106  A    
C82   H31   S    
C95   C96   A    
C35   C37   A    
C19   F9    S    
C90   C91   A    
C3    C7    A    
C98   C99   A    
C89   C90   A    
C73   H23   S    
C56   C57   A    
C43   C52   S    
C23   C49   S    
C58   H11   S    
O2    Zn2   S    
C7    F12   S    
C29   C33   A    
C78   H27   S    
C33   C36   A    
O1    Zn1   S    
C18   C20   A    
N2    N4    A    
C34   C35   A    
C25   N5    A    
C60   H12   S    
C39   H1    S    
C26   N6    A    
C112  H56   S    
C66   C67   A    
C1    O3    A    
C62   H14   S    
C71   C72   A    
C11   C15   A    
C54   H7    S    
C18   H6    S    
C91   C92   A    
C16   C17   A    
O6    Zn2   S    
C1    O1    A    
N6    Zn1   S    
O5    Zn1   S    
C69   H20   S    
C32   C38   A    
C5    C13   A    
C75   H25   S    
C26   C65   S    
C79   C80   A    
C48   C50   A    
C65   C70   A    
C37   F1    S    
C84   H32   S    
C70   H21   S    
C21   C77   S    
C41   C43   A    
C86   H34   S    
C42   C44   A    
C20   F10   S    
C12   C16   A    
C81   H30   S    
C73   C74   A    
C47   F7    S    
C44   C46   A    
C63   H15   S    
C104  C105  A    
C10   C12   A    
C103  H48   S    
C45   C47   A    
C24   C50   S    
C102  H47   S    
C46   C48   A    
N1    N3    A    
C77   C78   A    
C30   C34   A    
C68   C69   A    
C14   C20   A    
C86   C87   A    
C92   C93   A    
C47   C49   A    
C62   C63   A    
C5    C7    A    
C13   C19   A    
C54   C55   A    
C83   C84   A    
C6    C8    A    
C96   H42   S    
O4    Zn1   S    
C74   H24   S    
C109  C110  A    
C1    C3    S    
C97   C98   A    
C104  H49   S    
C2    C4    S    
C93   H40   S    
C111  C112  A    
C56   H9    S    
C3    C9    A    
C52   N1    A    
C23   O7    A    
C6    C14   A    
C43   C45   A    
C65   C66   A    
C33   C34   A    
C110  H54   S    
C57   H10   S    
C68   H19   S    
C9    H4    S    
C99   H45   S    
C28   C53   S    
C9    C11   A    
C108  H52   S    
C72   H22   S    
C46   F6    S    
C111  H55   S    
C107  C108  A    
C48   F8    S    
C25   C71   S    
C44   C51   S    
C102  C103  A    
C39   C49   A    
C12   C14   A    
C109  H53   S    
C76   H26   S    
C40   H2    S    
C94   H41   S    
C45   F5    S    
C81   C82   A    
C55   C56   A    
C92   H39   S    
C4    C10   A    
C28   N6    A    
C85   H33   S    
C24   O8    A    
C74   C75   A    
C107  C112  A    
C67   H18   S    
C21   C25   A    
C59   C64   A    
C55   H8    S    
C22   C83   S    
C8    F11   S    
C97   H43   S    
C89   C94   A    
O8    Zn1   S    
C2    O2    A    
C95   C100  A    
O7    Zn2   S    
C75   C76   A    
C85   C86   A    
N5    Zn2   S    
C105  C106  A    
C6    C107  S    
C2    O4    A    
C99   C100  A    
C36   C38   A    
C91   H38   S    
C83   C88   A    
C108  C109  A    
C29   C31   A    
C101  C102  A    
C52   N4    A    
C93   C94   A    
C30   C32   A    
C11   C13   A    
C79   H28   S    
C84   C85   A    
C53   C58   A    
C40   C50   A    
C64   H16   S    
C40   C42   A    
C63   C64   A    
C17   C19   A    
C87   H35   S    
C28   C30   A    
C80   H29   S    
O3    Zn2   S    
C10   H3    S    
C110  C111  A    
C106  H51   S    
C100  H46   S    
C90   H37   S    
C105  H50   S    
C31   C37   A    
C77   C82   A    
C41   C89   S    
C59   C60   A    
C103  C104  A    
C22   C26   A    
C35   F3    S    
C69   C70   A    
C78   C79   A    
C98   H44   S    
C27   N5    A    
C51   N2    A    
C60   C61   A    
C36   F4    S    
C71   C76   A    
C87   C88   A    
C15   C16   A    
C17   H5    S    
C80   C81   A    
