data_mof_unit_67061.cif
_audit_creation_date              2012-12-11T17:41:20-0500
_audit_creation_method            fapswitch 2.2
_symmetry_space_group_name_H-M    P1
_symmetry_Int_Tables_number       1
_space_group_crystal_system       triclinic
_cell_length_a                    8.171306
_cell_length_b                    12.870691
_cell_length_c                    14.130844
_cell_angle_alpha                 92.363792
_cell_angle_beta                  90.702197
_cell_angle_gamma                 98.105424
_cell_volume                      1469.80248163

loop_
_atom_site_label
_atom_site_type_symbol
_atom_type_description
_atom_site_fract_x
_atom_site_fract_y
_atom_site_fract_z
_atom_type_partial_charge
Ba1   Ba    Ba6+2 0.855630 0.555280 0.454520 1.643922
Ba2   Ba    Ba6+2 0.334200 0.444810 0.545490 1.629728
C1    C     C_3   0.757516 0.930220 0.101669 -0.365005
C2    C     C_R   0.179151 0.501845 0.196595 0.038448
C3    C     C_R   0.329037 0.559285 0.227740 -0.281853
C4    C     C_3   0.155657 0.787888 0.187814 0.432109
C5    C     C_R   0.440368 0.607475 0.163758 -0.006652
C6    C     C_R   0.398195 0.606277 0.067827 -0.151117
C7    C     C_R   0.243756 0.555306 0.034797 -0.000217
C8    C     C_R   0.134358 0.499209 0.098351 -0.031634
C9    C     C_R   0.050717 0.502962 0.901606 -0.023469
C10   C     C_R   0.940708 0.447376 0.965180 -0.003743
C11   C     C_R   0.005929 0.501114 0.803514 0.044014
C12   C     C_3   0.669013 0.841299 0.158008 0.327800
C13   C     C_R   0.852527 0.447775 0.772897 -0.292971
C14   C     C_R   0.739915 0.401092 0.837108 0.015319
C15   C     C_R   0.784869 0.398216 0.932341 -0.143175
C16   C     C_3   0.154068 0.824087 0.086482 -0.377077
C17   C     C_R   0.200767 0.557820 0.938384 -0.036930
C18   C     C_R   0.759688 0.172467 0.526111 -0.273355
C19   C     C_R   0.425053 0.813579 0.457320 -0.277522
C20   C     C_R   0.413977 0.987490 0.398201 -0.009977
C21   C     C_R   0.340539 0.883434 0.408969 -0.010579
C22   C     C_R   0.574150 0.846382 0.506827 0.060823
C23   C     C_3   0.476417 0.334257 0.260347 0.304769
C24   C     C_R   0.639885 0.956023 0.509393 -0.049288
C25   C     C_R   0.557861 0.028536 0.456342 -0.034602
C26   C     C_R   0.620664 0.138550 0.468782 0.039018
C27   C     C_R   0.849797 0.102667 0.566997 -0.011767
C28   C     C_3   0.223674 0.759321 0.653241 0.283800
C29   C     C_R   0.786970 0.995267 0.562380 -0.087614
C30   C     C_3   0.234348 0.877216 0.671795 -0.354487
C31   C     C_3   0.973355 0.240323 0.343702 0.289143
C32   C     C_3   0.946332 0.122380 0.321590 -0.400692
C33   C     C_3   0.714182 0.674326 0.739358 0.311619
C34   C     C_3   0.454906 0.319966 0.153160 -0.393612
C35   C     C_3   0.732181 0.697545 0.845793 -0.398384
C36   C     C_3   0.343781 0.042880 0.315951 -0.166752
C37   C     C_3   0.441692 0.036999 0.225618 -0.385075
C38   C     C_3   0.045051 0.193330 0.802587 0.355679
C39   C     C_3   0.057660 0.155008 0.902494 -0.369876
C40   C     C_3   0.539496 0.146338 0.763102 0.341044
C41   C     C_3   0.579286 0.052165 0.815934 -0.407229
C42   C     C_R   0.984991 0.443445 0.061366 -0.038475
H1    H     H_    0.652100 0.870515 0.231921 0.022870
H2    H     H_    0.831112 0.651747 0.712391 0.010549
H3    H     H_    0.612125 0.608565 0.726002 0.062730
H4    H     H_    0.875738 0.963814 0.137698 0.143698
H5    H     H_    0.840076 0.758851 0.861550 0.124598
H6    H     H_    0.750668 0.625575 0.882590 0.066445
H7    H     H_    0.618752 0.725812 0.873201 0.116258
H8    H     H_    0.547365 0.814876 0.122464 -0.039798
H9    H     H_    0.679418 0.993294 0.094459 0.069301
H10   H     H_    0.357987 0.348959 0.291552 0.006733
H11   H     H_    0.573148 0.402245 0.277052 0.089064
H12   H     H_    0.322310 0.902756 0.731183 0.112702
H13   H     H_    0.341289 0.264286 0.134936 0.108384
H14   H     H_    0.444855 0.395691 0.121007 0.078918
H15   H     H_    0.563361 0.288567 0.122446 0.127854
H16   H     H_    0.783606 0.900207 0.029383 0.110260
H17   H     H_    0.240256 0.784132 0.042758 0.065364
H18   H     H_    0.135712 0.265602 0.797271 0.099463
H19   H     H_    0.918231 0.212275 0.790951 -0.061153
H20   H     H_    0.185418 0.139360 0.917539 0.149059
H21   H     H_    0.026511 0.215818 0.954641 0.070698
H22   H     H_    0.970754 0.081510 0.910327 0.108613
H23   H     H_    0.277665 0.919405 0.607971 0.077180
H24   H     H_    0.654794 0.181512 0.728789 -0.053032
H25   H     H_    0.445395 0.119099 0.706771 0.085506
H26   H     H_    0.676806 0.078036 0.870578 0.114691
H27   H     H_    0.624069 0.994238 0.765661 0.090412
H28   H     H_    0.090528 0.706219 0.188611 0.071562
H29   H     H_    0.467404 0.014366 0.851608 0.127693
H30   H     H_    0.365272 0.559599 0.301683 0.068045
H31   H     H_    0.487281 0.643029 0.018920 0.064491
H32   H     H_    0.697399 0.358999 0.980726 0.072193
H33   H     H_    0.816774 0.447308 0.698882 0.072108
H34   H     H_    0.110785 0.897562 0.690476 0.144265
H35   H     H_    0.900496 0.397141 0.106607 0.108826
H36   H     H_    0.285982 0.603413 0.893018 0.095120
H37   H     H_    0.854696 0.943782 0.600525 0.102218
H38   H     H_    0.804291 0.255624 0.535345 0.054478
H39   H     H_    0.286496 0.789090 0.210882 -0.134270
H40   H     H_    0.370208 0.732212 0.459524 0.063319
H41   H     H_    0.028396 0.804722 0.054447 0.141013
H42   H     H_    0.193007 0.910194 0.085153 0.108697
H43   H     H_    0.346868 0.739958 0.634981 0.003320
H44   H     H_    0.135886 0.736493 0.593034 0.080211
H45   H     H_    0.859182 0.265846 0.371037 0.015388
H46   H     H_    0.574104 0.064325 0.238672 0.146369
H47   H     H_    0.425924 0.955391 0.196893 0.088943
H48   H     H_    0.393997 0.085449 0.171284 0.136950
H49   H     H_    0.219617 0.009669 0.294563 0.101663
H50   H     H_    0.306470 0.118510 0.332354 0.140315
H51   H     H_    0.072598 0.258147 0.398243 0.080894
H52   H     H_    0.814335 0.094394 0.307603 0.089323
H53   H     H_    0.987289 0.080528 0.382641 0.108063
H54   H     H_    0.015662 0.102623 0.257909 0.130572
O1    O     O_2   0.887370 0.460630 0.272300 -0.454873
O2    O     O_2   0.193202 0.112483 0.567087 -0.483491
O3    O     O_3   0.080232 0.114651 0.737090 -0.603970
O4    O     O_3   0.129410 0.451380 0.388510 -0.500408
O5    O     O_3   0.575400 0.626570 0.547370 -0.493821
O6    O     O_2   0.344320 0.238700 0.455090 -0.480400
O7    O     O_3   0.524299 0.242385 0.294094 -0.652006
O8    O     O_2   0.399142 0.406530 0.835571 -0.492574
O9    O     O_3   0.474799 0.215924 0.827350 -0.599522
O10   O     O_3   0.670210 0.653170 0.329170 -0.466229
O11   O     O_2   0.748423 0.561810 0.167693 -0.484212
O12   O     O_3   0.679733 0.764930 0.696283 -0.641510
O13   O     O_3   0.016019 0.292037 0.260897 -0.642627
O14   O     O_3   0.766181 0.760208 0.158792 -0.567922
O15   O     O_2   0.845380 0.761330 0.544970 -0.473142
O16   O     O_3   0.088930 0.704860 0.376040 -0.480537
O17   O     O_2   0.993995 0.882833 0.424559 -0.478253
O18   O     O_3   0.073473 0.853964 0.246444 -0.584550
O19   O     O_2   0.302330 0.539400 0.727760 -0.469768
O20   O     O_3   0.060300 0.548700 0.611500 -0.497262
O21   O     O_3   0.519500 0.346920 0.670840 -0.472028
O22   O     O_3   0.171758 0.709021 0.735764 -0.639483
O23   O     O_3   0.614310 0.373510 0.452640 -0.477564
O24   O     O_3   0.100780 0.295230 0.623970 -0.488010
P1    P     P_3+3 0.054400 0.427280 0.286870 0.965231
P2    P     P_3+3 0.668300 0.742890 0.573060 0.970708
P3    P     P_3+3 0.125664 0.836294 0.364954 0.962162
P4    P     P_3+3 0.135310 0.572810 0.713130 0.967891
P5    P     P_3+3 0.053986 0.156733 0.622210 0.937950
P6    P     P_3+3 0.652910 0.649183 0.205151 0.960325
P7    P     P_3+3 0.527250 0.246262 0.417989 0.931704
P8    P     P_3+3 0.532836 0.345057 0.793873 0.954949

loop_
_geom_bond_atom_site_label_1
_geom_bond_atom_site_label_2
_ccdc_geom_bond_type
C41   H29   S    
C18   H38   S    
O2    P5    D    
C1    H9    S    
C34   H15   S    
C33   H3    S    
Ba1   O1    S    
Ba1   O10   S    
Ba2   O20   S    
C23   O7    S    
C5    C6    A    
C4    H28   S    
C9    C17   A    
C24   C25   A    
C16   H42   S    
C38   H19   S    
C33   C35   S    
C22   C24   A    
C26   P7    S    
C34   H14   S    
C36   C37   S    
C35   H7    S    
O22   P4    S    
Ba2   O4    S    
C13   C14   A    
C20   C36   S    
C1    H4    S    
C22   P2    S    
O21   P8    S    
C38   H18   S    
Ba1   Ba2   S    
O24   P5    S    
C3    H30   S    
O12   P2    S    
C38   O3    S    
C7    C17   A    
C27   P5    S    
C12   H8    S    
C14   C15   A    
C10   C15   A    
C15   H32   S    
C31   O13   S    
C5    P6    S    
C14   P8    S    
O19   P4    D    
Ba1   O5    S    
C37   H46   S    
C21   P3    S    
C1    H16   S    
C32   H53   S    
C40   H24   S    
C17   H36   S    
Ba1   O15   S    
O9    P8    S    
O5    P2    S    
C31   H51   S    
C37   H47   S    
Ba2   O19   S    
C12   H1    S    
C18   C27   A    
Ba2   O24   S    
C4    C16   S    
C16   H41   S    
C8    C42   A    
C23   H10   S    
C34   H13   S    
O23   P7    S    
C3    C5    A    
O16   P3    S    
C6    C7    A    
C39   H21   S    
C18   C26   A    
O13   P1    S    
C6    H31   S    
C2    P1    S    
C12   O14   S    
Ba1   P1    S    
O3    P5    S    
C31   H45   S    
C35   H5    S    
O11   P6    D    
C19   H40   S    
Ba2   O6    S    
C9    C10   A    
C36   H50   S    
C31   C32   S    
O10   P6    S    
C1    C12   S    
C4    O18   S    
C33   O12   S    
C30   H23   S    
C11   P4    S    
Ba2   P4    S    
C38   C39   S    
C41   H26   S    
O18   P3    S    
C19   C21   A    
C40   O9    S    
C40   C41   S    
C28   H44   S    
O4    P1    S    
C37   H48   S    
O1    P1    D    
C7    C8    A    
Ba2   O23   S    
O8    P8    D    
C41   H27   S    
C4    H39   S    
C42   H35   S    
C23   H11   S    
C32   H52   S    
C2    C3    A    
O17   P3    D    
O7    P7    S    
Ba2   O21   S    
C16   H17   S    
C39   H22   S    
C29   H37   S    
C20   C25   A    
C11   C13   A    
Ba1   P2    S    
C10   C42   A    
C28   C30   S    
C35   H6    S    
C9    C11   A    
C13   H33   S    
O15   P2    D    
C28   O22   S    
Ba2   O5    S    
C36   H49   S    
C32   H54   S    
Ba1   O20   S    
C40   H25   S    
O6    P7    D    
Ba1   O23   S    
O14   P6    S    
C23   C34   S    
C30   H34   S    
C24   C29   A    
C27   C29   A    
Ba1   O16   S    
C19   C22   A    
C25   C26   A    
C20   C21   A    
O20   P4    S    
C39   H20   S    
C28   H43   S    
C33   H2    S    
C2    C8    A    
Ba1   O4    S    
C30   H12   S    
