data_mof_unit_32273.cif
_audit_creation_date              2012-12-10T17:31:15-0500
_audit_creation_method            fapswitch 2.2
_symmetry_space_group_name_H-M    P1
_symmetry_Int_Tables_number       1
_space_group_crystal_system       triclinic
_cell_length_a                    11.999008
_cell_length_b                    12.894683
_cell_length_c                    15.508983
_cell_angle_alpha                 87.008919
_cell_angle_beta                  116.214913
_cell_angle_gamma                 93.350678
_cell_volume                      2148.17636262

loop_
_atom_site_label
_atom_site_type_symbol
_atom_type_description
_atom_site_fract_x
_atom_site_fract_y
_atom_site_fract_z
_atom_type_partial_charge
C1    C     C_R   0.477697 0.299418 0.499255 0.887806
C2    C     C_R   0.662240 0.969343 0.527209 -0.220752
C3    C     C_R   0.349107 0.137826 0.477800 -0.209995
C4    C     C_R   0.651005 0.862132 0.522474 -0.210880
C5    C     C_R   0.568673 0.131888 0.516174 -0.279567
C6    C     C_R   0.431437 0.868085 0.484084 -0.279077
C7    C     C_R   0.558237 0.025451 0.511123 0.188209
C8    C     C_R   0.441898 0.974511 0.489203 0.188306
C9    C     C_R   0.013712 0.615673 0.429520 -0.345258
C10   C     C_R   0.987199 0.385319 0.572151 -0.342934
C11   C     C_R   0.132688 0.603406 0.435376 0.017858
C12   C     C_R   0.522323 0.700576 0.500789 0.886507
C13   C     C_R   0.868679 0.398164 0.567087 0.019416
C14   C     C_R   0.154678 0.447522 0.528084 -0.059289
C15   C     C_R   0.844994 0.552075 0.471419 -0.059248
C16   C     C_R   0.578125 0.497512 0.681107 0.873667
C17   C     C_R   0.422235 0.505583 0.318756 0.874509
C18   C     C_R   0.035893 0.457543 0.525421 0.094760
C19   C     C_R   0.964201 0.542497 0.474851 0.098243
C20   C     C_R   0.629745 0.512120 0.785482 -0.100157
C21   C     C_R   0.372671 0.517992 0.213333 -0.106369
C22   C     C_R   0.788200 0.568164 0.940805 -0.248877
C23   C     C_R   0.642703 0.595695 0.103685 -0.227944
C24   C     C_R   0.209661 0.523226 0.049248 -0.245093
C25   C     C_R   0.756079 0.540544 0.846086 0.173741
C26   C     C_R   0.244197 0.510760 0.147874 0.168119
C27   C     C_R   0.542467 0.509860 0.822222 -0.299583
C28   C     C_R   0.460611 0.539566 0.177863 -0.302274
C29   C     C_R   0.571911 0.546336 0.912950 0.091590
C30   C     C_R   0.426391 0.552279 0.079630 0.092375
C31   C     C_R   0.697525 0.571598 0.974232 0.143653
C32   C     C_R   0.299045 0.541099 0.014886 0.144193
C33   C     C_R   0.479431 0.554105 0.945176 0.078584
C34   C     C_R   0.351069 0.549586 0.881585 -0.230617
C35   C     C_R   0.516674 0.567950 0.044082 0.078879
C36   C     C_3   0.140930 0.489162 0.178036 -0.380148
C37   C     C_3   0.101335 0.589975 0.201765 -0.850841
C38   C     C_3   0.858867 0.542775 0.814293 -0.390631
C39   C     C_3   0.899330 0.433074 0.812257 -0.852410
C40   C     C_R   0.731022 0.599437 0.068351 -0.225159
C41   C     C_R   0.262358 0.545206 0.916229 -0.232897
C42   C     C_R   0.535776 0.811846 0.501713 -0.053408
C43   C     C_R   0.464307 0.188130 0.498475 -0.055769
C44   C     C_R   0.337898 0.030611 0.473130 -0.220929
H1    H     H_    0.826299 0.621864 0.115606 0.147613
H2    H     H_    0.112358 0.516463 0.998785 0.140283
H3    H     H_    0.675015 0.618181 0.177168 0.142132
H4    H     H_    0.316720 0.551772 0.804390 0.154030
H5    H     H_    0.341780 0.829273 0.467049 0.153524
H6    H     H_    0.658316 0.170712 0.533173 0.154755
H7    H     H_    0.732136 0.818786 0.536189 0.158066
H8    H     H_    0.267968 0.181163 0.464075 0.159224
H9    H     H_    0.248461 0.991786 0.456529 0.137047
H10   H     H_    0.751686 0.008161 0.543834 0.137217
H11   H     H_    0.788506 0.616530 0.431814 0.121119
H12   H     H_    0.164880 0.540632 0.865632 0.152049
H13   H     H_    0.210831 0.382691 0.567127 0.123618
H14   H     H_    0.182188 0.633760 0.255778 0.267942
H15   H     H_    0.058447 0.640290 0.136015 0.238350
H16   H     H_    0.032334 0.571874 0.230481 0.242153
H17   H     H_    0.058199 0.452484 0.118802 0.190050
H18   H     H_    0.167777 0.431702 0.238847 0.220095
H19   H     H_    0.940756 0.397815 0.886070 0.246705
H20   H     H_    0.819634 0.382324 0.765723 0.266952
H21   H     H_    0.970048 0.436409 0.784193 0.238815
H22   H     H_    0.831112 0.584364 0.743918 0.225283
H23   H     H_    0.831902 0.341669 0.602845 0.126560
H24   H     H_    0.941573 0.588297 0.864635 0.180076
H25   H     H_    0.170865 0.661744 0.402258 0.124675
H26   H     H_    0.961499 0.682470 0.390610 0.141536
H27   H     H_    0.040053 0.319228 0.612091 0.144085
H28   H     H_    0.557477 0.541588 0.228250 0.170845
H29   H     H_    0.450042 0.478688 0.778389 0.166209
H30   H     H_    0.884267 0.588000 0.988493 0.136664
N1    N     N_R   0.799120 0.480200 0.517090 -0.093118
N2    N     N_R   0.200880 0.519800 0.482910 -0.091593
O1    O     O_R   0.580150 0.341050 0.504560 -0.625363
O2    O     O_R   0.419850 0.658950 0.495440 -0.627471
O3    O     O_R   0.388090 0.353760 0.493600 -0.628503
O4    O     O_R   0.611910 0.646240 0.506400 -0.631228
O5    O     O_R   0.650890 0.490020 0.640860 -0.612797
O6    O     O_R   0.349110 0.509980 0.359140 -0.609675
O7    O     O_R   0.458830 0.502730 0.629890 -0.612184
O8    O     O_R   0.541170 0.497270 0.370110 -0.611602
Zn1   Zn    Zn3+2 0.628240 0.491510 0.507320 0.932165
Zn2   Zn    Zn3+2 0.371760 0.508490 0.492680 0.933384

loop_
_geom_bond_atom_site_label_1
_geom_bond_atom_site_label_2
_ccdc_geom_bond_type
C15   N1    A    
C21   C26   A    
C27   C29   A    
C1    O1    A    
C14   C18   A    
C2    C7    A    
C7    C8    A    
C15   C19   A    
C39   H20   S    
C3    C43   A    
C30   C35   A    
C36   C37   S    
C24   C26   A    
C18   C19   A    
C11   N2    A    
C38   C39   S    
C20   C25   A    
C23   C40   A    
C29   C33   A    
C31   C40   A    
C17   O6    A    
C12   C42   S    
C44   H9    S    
C1    C43   S    
C13   N1    A    
C9    C19   A    
C22   C25   A    
C12   O2    A    
C32   C41   A    
C37   H14   S    
C10   H27   S    
O2    Zn2   S    
C5    C43   A    
O1    Zn1   S    
C39   H21   S    
C28   H28   S    
C34   C41   A    
C36   H18   S    
N1    Zn1   S    
C40   H1    S    
C3    C44   A    
C23   H3    S    
C22   C31   A    
C4    H7    S    
C38   H22   S    
C9    H26   S    
C2    H10   S    
C5    C7    A    
C6    C8    A    
O6    Zn2   S    
C16   O7    A    
C17   C21   S    
C15   H11   S    
C2    C4    A    
C24   C32   A    
C41   H12   S    
O4    Zn1   S    
C25   C38   S    
C16   C20   S    
C33   C34   A    
O8    Zn1   S    
C9    C11   A    
C37   H15   S    
C26   C36   S    
C21   C28   A    
C38   H24   S    
C23   C35   A    
C1    O3    A    
C5    H6    S    
C34   H4    S    
C22   H30   S    
C36   H17   S    
N2    Zn2   S    
C13   H23   S    
C14   H13   S    
C8    C44   A    
C10   C13   A    
C3    H8    S    
C11   H25   S    
C20   C27   A    
C39   H19   S    
C17   O8    A    
C24   H2    S    
C28   C30   A    
C29   C31   A    
C30   C32   A    
C4    C42   A    
C10   C18   A    
C12   O4    A    
C16   O5    A    
C33   C35   A    
C6    H5    S    
C37   H16   S    
O7    Zn2   S    
C6    C42   A    
C27   H29   S    
O3    Zn2   S    
O5    Zn1   S    
C14   N2    A    
