data_mof_unit_27794.cif
_audit_creation_date              2012-12-11T15:44:53-0500
_audit_creation_method            fapswitch 2.2
_symmetry_space_group_name_H-M    P1
_symmetry_Int_Tables_number       1
_space_group_crystal_system       triclinic
_cell_length_a                    19.004126
_cell_length_b                    10.923303
_cell_length_c                    18.73342
_cell_angle_alpha                 89.694966
_cell_angle_beta                  90.200129
_cell_angle_gamma                 90.263614
_cell_volume                      3888.71027898

loop_
_atom_site_label
_atom_site_type_symbol
_atom_type_description
_atom_site_fract_x
_atom_site_fract_y
_atom_site_fract_z
_atom_type_partial_charge
C1    C     C_R   0.760740 0.535143 0.646857 0.535256
C2    C     C_R   0.281292 0.009308 0.520323 -0.125677
C3    C     C_R   0.520806 0.952073 0.957033 0.021414
C4    C     C_R   0.021106 0.231572 0.955296 -0.155948
C5    C     C_R   0.025783 0.230558 0.029948 -0.151844
C6    C     C_R   0.521106 0.731572 0.955296 -0.155948
C7    C     C_R   0.525783 0.730558 0.029948 -0.151845
C8    C     C_3   0.985016 0.565114 0.039235 -0.280468
C9    C     C_3   0.978877 0.568212 0.958973 -0.268939
C10   C     C_3   0.485015 0.065114 0.039235 -0.280469
C11   C     C_3   0.478876 0.068211 0.958973 -0.268939
C12   C     C_R   0.759791 0.533941 0.851639 0.544778
C13   C     C_R   0.326250 0.588504 0.447924 -0.161808
C14   C     C_R   0.239416 0.533076 0.147866 0.551660
C15   C     C_R   0.259791 0.033941 0.851639 0.544778
C16   C     C_R   0.739416 0.033076 0.147866 0.551660
C17   C     C_R   0.773089 0.127021 0.853813 0.551486
C18   C     C_R   0.226264 0.129577 0.145217 0.551908
C19   C     C_R   0.273089 0.627021 0.853813 0.551485
C20   C     C_R   0.726264 0.629577 0.145217 0.551908
C21   C     C_R   0.972086 0.347173 0.852348 0.548673
C22   C     C_R   0.033863 0.347020 0.143860 0.546399
C23   C     C_R   0.472086 0.847173 0.852348 0.548674
C24   C     C_R   0.781296 0.509313 0.520323 -0.125678
C25   C     C_R   0.533863 0.847020 0.143860 0.546399
C26   C     C_R   0.759515 0.107230 0.416512 0.003839
C27   C     C_R   0.252274 0.079272 0.575450 0.034314
C28   C     C_R   0.259515 0.607231 0.416512 0.003839
C29   C     C_R   0.752273 0.579273 0.575450 0.034313
C30   C     C_R   0.710865 0.176723 0.454507 0.012240
C31   C     C_R   0.202841 0.168812 0.559548 0.009944
C32   C     C_R   0.210865 0.676723 0.454506 0.012239
C33   C     C_R   0.702837 0.668808 0.559548 0.009947
C34   C     C_R   0.722353 0.202561 0.526039 0.025346
C35   C     C_3   0.633764 0.159443 0.465271 -0.255941
C36   C     C_R   0.189304 0.199313 0.489099 0.013504
C37   C     C_R   0.222353 0.702561 0.526039 0.025344
C38   C     C_R   0.689300 0.699308 0.489099 0.013508
C39   C     C_3   0.202416 0.299652 0.582172 -0.279753
C40   C     C_3   0.133763 0.659445 0.465271 -0.255941
C41   C     C_3   0.702406 0.799648 0.582174 -0.279753
C42   C     C_3   0.646681 0.184324 0.543932 -0.262577
C43   C     C_3   0.187822 0.332687 0.504903 -0.281111
C44   C     C_3   0.146681 0.684325 0.543932 -0.262576
C45   C     C_R   0.240040 0.535582 0.353394 0.530168
C46   C     C_3   0.687812 0.832683 0.504904 -0.281112
C47   C     C_R   0.782926 0.161667 0.561540 -0.000336
C48   C     C_R   0.223401 0.138779 0.433926 0.032879
C49   C     C_R   0.282925 0.661666 0.561540 -0.000336
C50   C     C_R   0.723401 0.638779 0.433926 0.032879
C51   C     C_R   0.989742 0.329352 0.420937 -0.042021
C52   C     C_R   0.996353 0.347187 0.570978 -0.045151
C53   C     C_R   0.489741 0.829351 0.420937 -0.042022
C54   C     C_R   0.496352 0.847187 0.570978 -0.045153
C55   C     C_R   0.007224 0.105012 0.432423 -0.083775
C56   C     C_R   0.260740 0.035143 0.646857 0.535256
C57   C     C_R   0.032039 0.130802 0.577996 -0.086329
C58   C     C_R   0.507223 0.605012 0.432423 -0.083774
C59   C     C_R   0.532038 0.630802 0.577995 -0.086329
C60   C     C_R   0.025372 0.003428 0.473708 -0.131327
C61   C     C_R   0.039156 0.016894 0.546088 -0.120400
C62   C     C_R   0.525372 0.503428 0.473708 -0.131327
C63   C     C_R   0.539156 0.516894 0.546088 -0.120400
C64   C     C_R   0.009993 0.233849 0.537910 -0.008074
C65   C     C_R   0.002406 0.222909 0.463011 0.007633
C66   C     C_R   0.509992 0.733849 0.537910 -0.008076
C67   C     C_R   0.740039 0.035582 0.353394 0.530169
C68   C     C_R   0.502405 0.722909 0.463010 0.007632
C69   C     C_R   0.983235 0.453228 0.527301 0.004482
C70   C     C_R   0.968728 0.437734 0.454355 -0.000489
C71   C     C_R   0.483233 0.953228 0.527300 0.004483
C72   C     C_R   0.468727 0.937734 0.454355 -0.000488
C73   C     C_R   0.791827 0.172810 0.638911 0.564763
C74   C     C_R   0.208429 0.171061 0.361216 0.563822
C75   C     C_R   0.291827 0.672809 0.638911 0.564762
C76   C     C_R   0.708429 0.671061 0.361216 0.563822
C77   C     C_R   0.983565 0.575378 0.553388 -0.075648
C78   C     C_R   0.837534 0.114443 0.520003 -0.166784
C79   C     C_R   0.938925 0.535203 0.414590 -0.083776
C80   C     C_R   0.483563 0.075378 0.553388 -0.075647
C81   C     C_R   0.438924 0.035202 0.414589 -0.083773
C82   C     C_R   0.956915 0.672096 0.512785 -0.131966
C83   C     C_R   0.932199 0.651081 0.444180 -0.118101
C84   C     C_R   0.456914 0.172096 0.512784 -0.131968
C85   C     C_R   0.432197 0.151080 0.444180 -0.118100
C86   C     C_R   0.750029 0.087774 0.078004 0.013313
C87   C     C_R   0.244533 0.090230 0.920156 0.017112
C88   C     C_R   0.250029 0.587774 0.078004 0.013313
C89   C     C_R   0.266220 0.038169 0.449509 -0.127911
C90   C     C_R   0.744533 0.590229 0.920156 0.017112
C91   C     C_R   0.815804 0.083772 0.045204 0.017069
C92   C     C_R   0.183771 0.054729 0.957249 0.026659
C93   C     C_R   0.315804 0.583772 0.045204 0.017069
C94   C     C_R   0.683771 0.554729 0.957249 0.026658
C95   C     C_R   0.820551 0.089315 0.972162 0.046430
C96   C     C_R   0.181073 0.063071 0.030188 0.040206
C97   C     C_R   0.320551 0.589315 0.972163 0.046430
C98   C     C_R   0.681073 0.563071 0.030188 0.040206
C99   C     C_R   0.696184 0.123937 0.961388 -0.175051
C100  C     C_R   0.337534 0.614443 0.520003 -0.166785
C101  C     C_R   0.293771 0.162970 0.032199 -0.164344
C102  C     C_R   0.196184 0.623937 0.961389 -0.175051
C103  C     C_R   0.793771 0.662969 0.032199 -0.164344
C104  C     C_R   0.690815 0.118023 0.035826 -0.164476
C105  C     C_R   0.296339 0.156514 0.957391 -0.169238
C106  C     C_R   0.190815 0.618023 0.035826 -0.164475
C107  C     C_R   0.796340 0.656513 0.957391 -0.169238
C108  C     C_3   0.874433 0.992868 0.050208 -0.271546
C109  C     C_3   0.143487 0.936286 0.958407 -0.268659
C110  C     C_3   0.374433 0.492868 0.050208 -0.271546
C111  C     C_R   0.766223 0.538173 0.449509 -0.127911
C112  C     C_3   0.643487 0.436286 0.958407 -0.268660
C113  C     C_3   0.877402 0.995871 0.969601 -0.266126
C114  C     C_3   0.141680 0.945655 0.038832 -0.278471
C115  C     C_3   0.377402 0.495871 0.969602 -0.266126
C116  C     C_3   0.641680 0.445655 0.038832 -0.278471
C117  C     C_R   0.761086 0.101980 0.928779 0.019302
C118  C     C_R   0.237693 0.108175 0.069616 0.017497
C119  C     C_R   0.261086 0.601980 0.928779 0.019302
C120  C     C_R   0.737693 0.608175 0.069616 0.017497
C121  C     C_R   0.970923 0.347905 0.645869 0.520456
C122  C     C_R   0.826250 0.088503 0.447924 -0.161807
C123  C     C_R   0.026196 0.343946 0.351633 0.523620
C124  C     C_R   0.470923 0.847905 0.645868 0.520456
C125  C     C_R   0.526196 0.843946 0.351633 0.523619
C126  C     C_R   0.021368 0.341219 0.067911 0.021073
C127  C     C_R   0.010006 0.342819 0.919475 0.017167
C128  C     C_R   0.521368 0.841219 0.067911 0.021073
C129  C     C_R   0.510006 0.842819 0.919475 0.017167
C130  C     C_R   0.025838 0.450394 0.029811 0.033444
C131  C     C_R   0.020806 0.452073 0.957033 0.021414
C132  C     C_R   0.525838 0.950394 0.029811 0.033444
Cr1   Cr    Cr6+3 0.885860 0.491680 0.749630 0.999455
Cr2   Cr    Cr6+3 0.112430 0.179310 0.249850 1.000454
Cr3   Cr    Cr6+3 0.387570 0.679310 0.750150 0.998853
Cr4   Cr    Cr6+3 0.612430 0.679310 0.249850 1.000454
Cr5   Cr    Cr6+3 0.114140 0.491680 0.250370 1.003665
Cr6   Cr    Cr6+3 0.385860 0.991680 0.749630 0.999455
Cr7   Cr    Cr6+3 0.614140 0.991680 0.250370 1.003665
Cr8   Cr    Cr6+3 0.730490 0.332970 0.748720 0.998539
Cr9   Cr    Cr6+3 0.269510 0.332970 0.251280 0.994955
Cr10  Cr    Cr6+3 0.230490 0.832970 0.748720 0.998539
Cr11  Cr    Cr6+3 0.769510 0.832970 0.251280 0.994956
Cr12  Cr    Cr6+3 0.887570 0.179310 0.750150 0.998853
H1    H     H_    0.886721 0.087749 0.544466 0.158023
H2    H     H_    0.336610 0.205719 0.060743 0.117246
H3    H     H_    0.149726 0.642516 0.929550 0.122424
H4    H     H_    0.836610 0.705718 0.060743 0.117246
H5    H     H_    0.639403 0.126531 0.059574 0.140735
H6    H     H_    0.341320 0.193926 0.929564 0.114148
H7    H     H_    0.139403 0.626531 0.059574 0.140734
H8    H     H_    0.841320 0.693926 0.929564 0.114148
H9    H     H_    0.858357 0.902454 0.071191 0.161674
H10   H     H_    0.175254 0.858186 0.939897 0.174215
H11   H     H_    0.358357 0.402454 0.071191 0.161674
H12   H     H_    0.289022 0.984342 0.407135 0.129239
H13   H     H_    0.675254 0.358186 0.939897 0.174215
H14   H     H_    0.922003 0.032207 0.076086 0.126262
H15   H     H_    0.090705 0.944707 0.933143 0.122675
H16   H     H_    0.422004 0.532208 0.076086 0.126262
H17   H     H_    0.590705 0.444707 0.933144 0.122675
H18   H     H_    0.927327 0.032651 0.948479 0.139261
H19   H     H_    0.087821 0.958091 0.060224 0.130283
H20   H     H_    0.427327 0.532652 0.948479 0.139261
H21   H     H_    0.587821 0.458091 0.060224 0.130283
H22   H     H_    0.859541 0.909311 0.944414 0.134626
H23   H     H_    0.386721 0.587748 0.544466 0.158023
H24   H     H_    0.173345 0.874307 0.066481 0.142918
H25   H     H_    0.359542 0.409311 0.944414 0.134626
H26   H     H_    0.673345 0.374307 0.066481 0.142918
H27   H     H_    0.020509 0.146281 0.926413 0.116037
H28   H     H_    0.030524 0.144229 0.057786 0.126886
H29   H     H_    0.520510 0.646281 0.926413 0.116037
H30   H     H_    0.530524 0.644229 0.057786 0.126886
H31   H     H_    0.017128 0.641509 0.061013 0.133124
H32   H     H_    0.924106 0.553638 0.940858 0.172343
H33   H     H_    0.517127 0.141508 0.061013 0.133124
H34   H     H_    0.789028 0.484349 0.407135 0.129238
H35   H     H_    0.424105 0.053637 0.940859 0.172343
H36   H     H_    0.934015 0.548961 0.066698 0.138231
H37   H     H_    0.007064 0.646793 0.933977 0.126315
H38   H     H_    0.434014 0.048960 0.066698 0.138231
H39   H     H_    0.507062 0.146792 0.933977 0.126315
H40   H     H_    0.866991 0.040094 0.419653 0.140651
H41   H     H_    0.315388 0.932512 0.532192 0.122846
H42   H     H_    0.366991 0.540095 0.419652 0.140651
H43   H     H_    0.815394 0.432519 0.532192 0.122848
H44   H     H_    0.115346 0.565033 0.454171 0.159870
H45   H     H_    0.955818 0.763599 0.534613 0.106983
H46   H     H_    0.754670 0.832070 0.601432 0.154973
H47   H     H_    0.615347 0.065030 0.454172 0.159869
H48   H     H_    0.254682 0.332067 0.601429 0.154974
H49   H     H_    0.602781 0.232276 0.438293 0.142524
H50   H     H_    0.157637 0.320160 0.618142 0.134669
H51   H     H_    0.102781 0.732279 0.438293 0.142524
H52   H     H_    0.657624 0.820150 0.618142 0.134666
H53   H     H_    0.621949 0.269767 0.562793 0.138569
H54   H     H_    0.134817 0.371890 0.496265 0.135057
H55   H     H_    0.121949 0.769768 0.562794 0.138569
H56   H     H_    0.910350 0.725486 0.412931 0.123509
H57   H     H_    0.634805 0.871879 0.496265 0.135059
H58   H     H_    0.637934 0.102612 0.578511 0.140244
H59   H     H_    0.231869 0.383030 0.479341 0.148678
H60   H     H_    0.137934 0.602613 0.578511 0.140242
H61   H     H_    0.731857 0.883033 0.479344 0.148674
H62   H     H_    0.028605 0.914089 0.449370 0.103938
H63   H     H_    0.054217 0.938827 0.578149 0.106318
H64   H     H_    0.528606 0.414090 0.449370 0.103938
H65   H     H_    0.554217 0.438828 0.578149 0.106318
H66   H     H_    0.993747 0.088821 0.377170 0.131089
H67   H     H_    0.455816 0.263599 0.534613 0.106983
H68   H     H_    0.045381 0.137808 0.634002 0.130105
H69   H     H_    0.493747 0.588821 0.377169 0.131089
H70   H     H_    0.545381 0.637808 0.634002 0.130105
H71   H     H_    0.921828 0.521950 0.359926 0.126657
H72   H     H_    0.006977 0.599542 0.604005 0.138040
H73   H     H_    0.421827 0.021949 0.359925 0.126657
H74   H     H_    0.506975 0.099543 0.604004 0.138040
H75   H     H_    0.410348 0.225485 0.412930 0.123510
H76   H     H_    0.649726 0.142516 0.929550 0.122424
O1    O     O_R   0.957020 0.451640 0.669920 -0.526659
O2    O     O_R   0.168040 0.093290 0.169870 -0.515830
O3    O     O_R   0.331960 0.593290 0.830130 -0.513300
O4    O     O_R   0.668040 0.593290 0.169870 -0.515830
O5    O     O_R   0.945600 0.250580 0.824860 -0.504035
O6    O     O_R   0.054400 0.250580 0.175140 -0.510712
O7    O     O_R   0.445600 0.750580 0.824860 -0.504035
O8    O     O_R   0.554400 0.750580 0.175140 -0.510712
O9    O     O_3   0.834640 0.334650 0.749500 -0.259938
O10   O     O_3   0.165360 0.334650 0.250500 -0.259983
O11   O     O_3   0.334640 0.834650 0.749500 -0.259937
O12   O     O_R   0.042980 0.451640 0.330080 -0.517897
O13   O     O_3   0.665360 0.834650 0.250500 -0.259983
O14   O     O_R   0.821450 0.543440 0.674610 -0.500180
O15   O     O_R   0.178550 0.543440 0.325390 -0.497519
O16   O     O_R   0.321450 0.043440 0.674610 -0.500180
O17   O     O_R   0.678550 0.043440 0.325390 -0.497519
O18   O     O_R   0.715320 0.458650 0.668100 -0.527379
O19   O     O_R   0.284680 0.458650 0.331900 -0.537082
O20   O     O_R   0.215320 0.958650 0.668100 -0.527379
O21   O     O_R   0.784680 0.958650 0.331900 -0.537081
O22   O     O_R   0.737170 0.209590 0.674530 -0.500648
O23   O     O_R   0.457020 0.951640 0.669920 -0.526659
O24   O     O_R   0.262830 0.209590 0.325470 -0.509201
O25   O     O_R   0.237170 0.709590 0.674530 -0.500648
O26   O     O_R   0.762830 0.709590 0.325470 -0.509201
O27   O     O_R   0.832710 0.092740 0.669580 -0.521348
O28   O     O_R   0.167290 0.092740 0.330420 -0.511861
O29   O     O_R   0.332710 0.592740 0.669580 -0.521349
O30   O     O_R   0.667290 0.592740 0.330420 -0.511860
O31   O     O_R   0.946290 0.250060 0.676040 -0.520206
O32   O     O_R   0.053710 0.250060 0.323960 -0.520956
O33   O     O_R   0.446290 0.750060 0.676040 -0.520205
O34   O     O_R   0.542980 0.951640 0.330080 -0.517897
O35   O     O_R   0.553710 0.750060 0.323960 -0.520956
O36   O     O_R   0.956270 0.452200 0.830470 -0.524884
O37   O     O_R   0.043730 0.452200 0.169530 -0.519717
O38   O     O_R   0.456270 0.952200 0.830470 -0.524884
O39   O     O_R   0.543730 0.952200 0.169530 -0.519717
O40   O     O_R   0.820760 0.543950 0.823440 -0.507878
O41   O     O_R   0.179240 0.543950 0.176560 -0.506440
O42   O     O_R   0.320760 0.043950 0.823440 -0.507878
O43   O     O_R   0.679240 0.043950 0.176560 -0.506440
O44   O     O_R   0.714570 0.459210 0.828640 -0.524695
O45   O     O_R   0.736470 0.210100 0.823360 -0.505343
O46   O     O_R   0.285430 0.459210 0.171360 -0.523679
O47   O     O_R   0.214570 0.959210 0.828640 -0.524695
O48   O     O_R   0.785430 0.959210 0.171360 -0.523679
O49   O     O_R   0.263530 0.210100 0.176640 -0.503730
O50   O     O_R   0.236470 0.710100 0.823360 -0.505343
O51   O     O_R   0.763530 0.710100 0.176640 -0.503730
O52   O     O_R   0.831960 0.093290 0.830130 -0.513300

loop_
_geom_bond_atom_site_label_1
_geom_bond_atom_site_label_2
_ccdc_geom_bond_type
C58   C62   A    
C46   H61   S    
C66   C68   A    
Cr6   O38   S    
C4    H27   S    
Cr7   O43   S    
Cr7   O17   S    
C51   C123  S    
Cr4   O35   S    
C69   C77   A    
C103  C120  A    
C34   C42   S    
C3    C11   S    
Cr2   O32   S    
C80   C84   A    
C86   C104  A    
Cr10  O50   S    
C67   O21   A    
C84   H67   S    
C102  C119  A    
C95   C117  A    
Cr10  O20   S    
C112  H17   S    
C54   C66   A    
Cr3   O7    S    
C30   C35   S    
C24   H43   S    
Cr11  O51   S    
C101  C118  A    
Cr2   O6    S    
C96   C118  A    
Cr6   O11   S    
Cr12  O52   S    
C25   C128  S    
C63   H65   S    
C90   C107  A    
C41   H52   S    
C15   O47   A    
C86   C91   A    
Cr5   O12   S    
C59   C66   A    
C12   O44   A    
C98   C120  A    
C92   C109  S    
C121  O31   A    
C108  H14   S    
C94   C98   A    
Cr10  O11   S    
C7    H30   S    
C29   C33   A    
C116  H21   S    
C92   C96   A    
C106  H7    S    
C88   C106  A    
C23   C129  S    
C9    H32   S    
Cr11  O48   S    
C51   C65   A    
C9    C131  S    
C62   H64   S    
C115  H20   S    
C125  O35   A    
C35   C42   S    
C24   C29   A    
C17   O45   A    
C110  H11   S    
C21   O5    A    
C78   H1    S    
C113  H18   S    
C16   O43   A    
Cr6   O16   S    
C5    H28   S    
C46   H57   S    
C73   O22   A    
Cr6   O42   S    
C23   O38   A    
C8    C9    S    
Cr2   O2    S    
C20   C120  S    
Cr7   O39   S    
C5    C126  A    
Cr7   O13   S    
C111  H34   S    
Cr1   O1    S    
C41   C46   S    
C49   C75   S    
C13   C28   A    
C102  C106  A    
C2    C27   A    
C52   C69   A    
C51   C70   A    
Cr9   O49   S    
C7    C128  A    
Cr5   O15   S    
C18   C118  S    
C72   C81   A    
C75   O25   A    
C115  H25   S    
C93   C110  S    
C17   O52   A    
C74   O24   A    
C79   H71   S    
C99   C104  A    
Cr4   O8    S    
C57   H68   S    
C19   C119  S    
Cr8   O9    S    
Cr9   O19   S    
Cr3   O11   S    
C55   C60   A    
Cr8   O45   S    
C16   C86   S    
Cr4   O30   S    
C69   C70   A    
C24   C111  A    
C14   O46   A    
Cr3   O29   S    
C6    C129  A    
C78   C122  A    
C128  C132  A    
Cr1   O36   S    
Cr2   O28   S    
C71   C80   A    
C55   C65   A    
C103  H4    S    
C90   C94   A    
C19   O50   A    
C10   C132  S    
C53   C68   A    
Cr1   O40   S    
C22   O37   A    
C101  C105  A    
C76   O30   A    
C39   H50   S    
C28   C45   S    
C59   H70   S    
Cr9   O24   S    
C112  H13   S    
C108  H9    S    
C27   C31   A    
C3    C132  A    
C48   C74   S    
Cr12  O9    S    
C28   C32   A    
Cr7   O34   S    
C19   O3    A    
C84   C85   A    
C47   C73   S    
C52   C64   A    
C113  H22   S    
C30   C34   A    
C27   C56   S    
Cr5   O10   S    
C89   H12   S    
C39   C43   S    
C95   C113  S    
C121  O1    A    
Cr9   O10   S    
C67   O17   A    
C60   C61   A    
C104  H5    S    
C97   C119  A    
C2    C89   A    
C8    H31   S    
C45   O19   A    
C62   C63   A    
C105  H6    S    
C14   O41   A    
C50   C76   S    
C102  H3    S    
C99   C117  A    
C74   O28   A    
C52   C121  S    
C8    H36   S    
C98   C116  S    
Cr4   O4    S    
C1    O14   A    
Cr10  O25   S    
C81   H73   S    
Cr4   O13   S    
Cr8   O18   S    
C20   O4    A    
C11   H39   S    
C101  H2    S    
C32   C37   A    
Cr3   O33   S    
C124  O23   A    
C57   C61   A    
C109  H10   S    
C20   O51   A    
C37   C49   A    
C16   O48   A    
C53   C125  S    
C109  C114  S    
C87   C105  A    
C73   O27   A    
C107  H8    S    
C41   H46   S    
C38   C50   A    
Cr12  O31   S    
C61   H63   S    
C26   C30   A    
Cr5   O37   S    
C48   C89   A    
C100  H23   S    
C82   H45   S    
C43   H59   S    
C10   H38   S    
Cr12  O5    S    
C42   H58   S    
C79   C83   A    
C97   C115  S    
C1    C29   S    
C109  H15   S    
C93   C97   A    
C112  C116  S    
C32   C40   S    
C110  H16   S    
C57   C64   A    
C15   C87   S    
C58   C68   A    
C54   C124  S    
C88   C93   A    
C123  O12   A    
C35   H47   S    
C13   H42   S    
C4    C127  A    
C26   C67   S    
C3    C129  A    
C10   H33   S    
C40   H44   S    
C91   C108  S    
C56   O20   A    
C42   H53   S    
C76   O26   A    
C45   O15   A    
C124  O33   A    
C55   H66   S    
Cr1   O9    S    
C12   C90   S    
C23   O7    A    
Cr10  O47   S    
Cr11  O26   S    
C114  H24   S    
C6    C7    A    
C22   O6    A    
C6    H29   S    
C17   C117  S    
C1    O18   A    
C108  C113  S    
Cr3   O3    S    
C25   O8    A    
C59   C63   A    
C33   C38   A    
Cr11  O21   S    
C18   O49   A    
C33   C41   S    
Cr9   O46   S    
Cr11  O13   S    
C13   C100  A    
C130  C131  A    
C85   H75   S    
C2    H41   S    
C14   C88   S    
C123  O32   A    
C15   O42   A    
C75   O29   A    
C64   C65   A    
C49   C100  A    
C8    C130  S    
C39   H48   S    
C96   C114  S    
C60   H62   S    
C114  H19   S    
C70   C79   A    
C77   C82   A    
C37   C44   S    
C4    C5    A    
C54   C71   A    
C122  H40   S    
C50   C111  A    
C22   C126  S    
C31   C39   S    
C21   C127  S    
C36   C48   A    
C43   H54   S    
Cr8   O22   S    
Cr1   O14   S    
Cr2   O10   S    
C125  O34   A    
C18   O2    A    
C127  C131  A    
C80   H74   S    
C38   C46   S    
C9    H37   S    
C10   C11   S    
C35   H49   S    
C91   C95   A    
C25   O39   A    
C58   H69   S    
C12   O40   A    
C40   C44   S    
C11   H35   S    
C99   H76   S    
C44   H55   S    
C82   C83   A    
Cr8   O44   S    
Cr12  O27   S    
C44   H60   S    
C126  C130  A    
C31   C36   A    
C56   O16   A    
C36   C43   S    
C103  C107  A    
C34   C47   A    
C26   C122  A    
C47   C78   A    
C71   C72   A    
C83   H56   S    
C87   C92   A    
C53   C72   A    
C110  C115  S    
C94   C112  S    
C81   C85   A    
Cr6   O23   S    
C116  H26   S    
C77   H72   S    
C21   O36   A    
C40   H51   S    
Cr5   O41   S    
