data_mof_unit_25149.cif
_audit_creation_date              2012-12-11T15:41:21-0500
_audit_creation_method            fapswitch 2.2
_symmetry_space_group_name_H-M    P1
_symmetry_Int_Tables_number       1
_space_group_crystal_system       triclinic
_cell_length_a                    19.070068
_cell_length_b                    10.953123
_cell_length_c                    18.818178
_cell_angle_alpha                 89.987671
_cell_angle_beta                  90.130559
_cell_angle_gamma                 89.991306
_cell_volume                      3930.67046904

loop_
_atom_site_label
_atom_site_type_symbol
_atom_type_description
_atom_site_fract_x
_atom_site_fract_y
_atom_site_fract_z
_atom_type_partial_charge
C1    C     C_R   0.724387 0.962203 0.856222 0.547882
C2    C     C_R   0.303773 0.470432 0.038461 0.017283
C3    C     C_R   0.762323 0.856309 0.355958 0.544750
C4    C     C_2   0.498178 0.169408 0.921327 -0.123883
C5    C     C_2   0.501820 0.169405 0.078670 -0.124302
C6    C     C_2   0.998174 0.669411 0.921325 -0.123870
C7    C     C_2   0.001817 0.669406 0.078669 -0.124297
C8    C     C_2   0.494202 0.068652 0.038703 -0.164664
C9    C     C_2   0.505763 0.068641 0.961309 -0.164491
C10   C     C_2   0.994196 0.568654 0.038701 -0.164664
C11   C     C_2   0.005751 0.568642 0.961307 -0.164497
C12   C     C_R   0.765089 0.443564 0.068089 0.021498
C13   C     C_R   0.196262 0.970579 0.961498 0.017421
C14   C     C_R   0.234907 0.443541 0.931904 0.021822
C15   C     C_R   0.265088 0.943564 0.068089 0.021495
C16   C     C_R   0.734909 0.943534 0.931903 0.021817
C17   C     C_R   0.803759 0.970477 0.038468 0.017271
C18   C     C_R   0.817105 0.408376 0.952269 -0.151819
C19   C     C_R   0.182888 0.408537 0.047744 -0.151963
C20   C     C_R   0.317104 0.908365 0.952271 -0.151820
C21   C     C_R   0.682889 0.908486 0.047737 -0.151956
C22   C     C_R   0.823298 0.413841 0.025715 -0.149128
C23   C     C_R   0.176685 0.413982 0.974298 -0.148958
C24   C     C_R   0.323297 0.913832 0.025716 -0.149134
C25   C     C_R   0.275614 0.962222 0.143772 0.548247
C26   C     C_R   0.676692 0.913925 0.974291 -0.148967
C27   C     C_3   0.630339 0.444694 0.048382 -0.286687
C28   C     C_3   0.369648 0.444296 0.951569 -0.286659
C29   C     C_3   0.130338 0.944717 0.048380 -0.286679
C30   C     C_3   0.869650 0.944412 0.951581 -0.286639
C31   C     C_3   0.622024 0.428555 0.968761 -0.260585
C32   C     C_3   0.377969 0.428170 0.031192 -0.260685
C33   C     C_3   0.122024 0.928578 0.968759 -0.260584
C34   C     C_3   0.877969 0.928287 0.031205 -0.260694
C35   C     C_R   0.751243 0.424484 0.920058 0.015748
C36   C     C_R   0.224386 0.462205 0.856223 0.547882
C37   C     C_R   0.248767 0.424506 0.079932 0.015440
C38   C     C_R   0.251243 0.924483 0.920058 0.015746
C39   C     C_R   0.748761 0.924504 0.079932 0.015439
C40   C     C_R   0.479924 0.169440 0.432558 0.017731
C41   C     C_R   0.490260 0.170874 0.579828 0.017660
C42   C     C_R   0.979925 0.669440 0.432557 0.017731
C43   C     C_R   0.990261 0.670874 0.579828 0.017660
C44   C     C_R   0.474508 0.278016 0.470279 0.043208
C45   C     C_R   0.478760 0.279779 0.542462 0.030723
C46   C     C_R   0.974508 0.778016 0.470279 0.043208
C47   C     C_R   0.775614 0.462222 0.143772 0.548249
C48   C     C_R   0.978760 0.779779 0.542462 0.030723
C49   C     C_R   0.480760 0.059261 0.544360 -0.167016
C50   C     C_R   0.476472 0.058469 0.470151 -0.161566
C51   C     C_R   0.980760 0.559261 0.544359 -0.167016
C52   C     C_R   0.976472 0.558469 0.470151 -0.161566
C53   C     C_R   0.529718 0.177607 0.850721 0.545411
C54   C     C_R   0.470279 0.177611 0.149278 0.546129
C55   C     C_R   0.029717 0.677607 0.850720 0.545410
C56   C     C_R   0.970279 0.677611 0.149277 0.546133
C57   C     C_3   0.513656 0.394444 0.460536 -0.280084
C58   C     C_R   0.703909 0.483410 0.034377 0.030217
C59   C     C_3   0.518986 0.398146 0.540404 -0.269292
C60   C     C_3   0.013657 0.894443 0.460536 -0.280085
C61   C     C_3   0.018987 0.898146 0.540404 -0.269292
C62   C     C_R   0.762975 0.441403 0.430261 0.014885
C63   C     C_R   0.248889 0.402168 0.579962 0.014832
C64   C     C_R   0.262974 0.941403 0.430261 0.014885
C65   C     C_R   0.748889 0.902168 0.579962 0.014832
C66   C     C_R   0.818311 0.391989 0.469093 0.041587
C67   C     C_R   0.200083 0.332467 0.541655 0.030460
C68   C     C_R   0.318311 0.891989 0.469093 0.041587
C69   C     C_R   0.296118 0.483252 0.965582 0.030377
C70   C     C_R   0.700082 0.832469 0.541655 0.030460
C71   C     C_R   0.815281 0.381789 0.541550 0.029110
C72   C     C_R   0.204498 0.322875 0.469224 0.039587
C73   C     C_R   0.315282 0.881789 0.541550 0.029110
C74   C     C_R   0.704498 0.822876 0.469224 0.039586
C75   C     C_R   0.705551 0.490680 0.542250 -0.164341
C76   C     C_R   0.313506 0.432526 0.470293 -0.159635
C77   C     C_R   0.205551 0.990680 0.542250 -0.164341
C78   C     C_R   0.813507 0.932525 0.470293 -0.159635
C79   C     C_R   0.708886 0.500528 0.467885 -0.160729
C80   C     C_R   0.203911 0.983420 0.034376 0.030219
C81   C     C_R   0.309728 0.441346 0.544663 -0.166783
C82   C     C_R   0.208886 0.000528 0.467885 -0.160729
C83   C     C_R   0.809728 0.941345 0.544663 -0.166783
C84   C     C_3   0.855060 0.273066 0.459645 -0.280174
C85   C     C_3   0.121550 0.338919 0.538282 -0.269321
C86   C     C_3   0.355060 0.773066 0.459645 -0.280174
C87   C     C_3   0.621550 0.838923 0.538281 -0.269322
C88   C     C_3   0.851919 0.260716 0.539532 -0.270654
C89   C     C_3   0.127128 0.327854 0.458475 -0.281220
C90   C     C_3   0.351919 0.760717 0.539532 -0.270655
C91   C     C_R   0.796107 0.983296 0.965588 0.030387
C92   C     C_3   0.627128 0.827857 0.458474 -0.281220
C93   C     C_R   0.755646 0.419925 0.578712 0.015829
C94   C     C_R   0.257345 0.381466 0.431535 0.015255
C95   C     C_R   0.255646 0.919925 0.578712 0.015829
C96   C     C_R   0.757345 0.881466 0.431535 0.015255
C97   C     C_R   0.738264 0.364819 0.852347 0.546821
C98   C     C_R   0.261735 0.364824 0.147653 0.547211
C99   C     C_R   0.238264 0.864818 0.852347 0.546821
C100  C     C_R   0.761734 0.864824 0.147652 0.547214
C101  C     C_R   0.728071 0.953672 0.648061 0.545001
C102  C     C_R   0.696260 0.470570 0.961499 0.017423
C103  C     C_R   0.274139 0.960762 0.354786 0.546220
C104  C     C_R   0.228071 0.453672 0.648061 0.545001
C105  C     C_R   0.774139 0.460762 0.354786 0.546220
C106  C     C_R   0.528176 0.176609 0.646029 0.546903
C107  C     C_R   0.466684 0.176278 0.357480 0.545685
C108  C     C_R   0.028176 0.676609 0.646029 0.546903
C109  C     C_R   0.966684 0.676278 0.357480 0.545685
C110  C     C_R   0.740037 0.363606 0.646942 0.543892
C111  C     C_R   0.262323 0.356310 0.355957 0.544749
C112  C     C_R   0.240037 0.863606 0.646942 0.543892
Cr1   Cr    Cr6+3 0.769260 0.163750 0.750730 1.010380
Cr2   Cr    Cr6+3 0.385810 0.322400 0.252290 1.010125
Cr3   Cr    Cr6+3 0.114190 0.822400 0.747710 1.006928
Cr4   Cr    Cr6+3 0.885810 0.822400 0.252290 1.010125
Cr5   Cr    Cr6+3 0.230740 0.163750 0.249270 1.013329
Cr6   Cr    Cr6+3 0.269260 0.663750 0.750730 1.010383
Cr7   Cr    Cr6+3 0.730740 0.663750 0.249270 1.013330
Cr8   Cr    Cr6+3 0.612640 0.009910 0.748780 1.006287
Cr9   Cr    Cr6+3 0.387360 0.009910 0.251220 1.009446
Cr10  Cr    Cr6+3 0.112640 0.509910 0.748780 1.006287
Cr11  Cr    Cr6+3 0.887360 0.509910 0.251220 1.009446
Cr12  Cr    Cr6+3 0.614190 0.322400 0.747710 1.006927
H1    H     H_    0.478591 0.983258 0.063047 0.138848
H2    H     H_    0.489378 0.475068 0.564539 0.125063
H3    H     H_    0.065029 0.881000 0.433774 0.136266
H4    H     H_    0.989378 0.975068 0.564539 0.125062
H5    H     H_    0.661416 0.529990 0.570104 0.121238
H6    H     H_    0.358750 0.469077 0.443195 0.131613
H7    H     H_    0.161416 0.029990 0.570104 0.121238
H8    H     H_    0.858751 0.969075 0.443195 0.131613
H9    H     H_    0.668380 0.550447 0.439984 0.130853
H10   H     H_    0.351233 0.487366 0.573372 0.121081
H11   H     H_    0.168379 0.050447 0.439984 0.130853
H12   H     H_    0.521330 0.983222 0.936978 0.138908
H13   H     H_    0.851233 0.987365 0.573372 0.121081
H14   H     H_    0.909291 0.283918 0.439213 0.133693
H15   H     H_    0.101440 0.429288 0.555018 0.167787
H16   H     H_    0.409291 0.783918 0.439213 0.133693
H17   H     H_    0.601440 0.929293 0.555017 0.167788
H18   H     H_    0.822478 0.204603 0.431040 0.137341
H19   H     H_    0.096073 0.258770 0.563682 0.127495
H20   H     H_    0.322479 0.704603 0.431040 0.137341
H21   H     H_    0.596072 0.758775 0.563682 0.127496
H22   H     H_    0.817148 0.185434 0.556650 0.166962
H23   H     H_    0.978587 0.483260 0.063046 0.138844
H24   H     H_    0.105382 0.240852 0.437625 0.133396
H25   H     H_    0.317149 0.685435 0.556651 0.166962
H26   H     H_    0.605381 0.740856 0.437625 0.133397
H27   H     H_    0.904339 0.263587 0.565459 0.126989
H28   H     H_    0.110018 0.411380 0.429624 0.137010
H29   H     H_    0.404339 0.763588 0.565459 0.126989
H30   H     H_    0.610019 0.911384 0.429623 0.137010
H31   H     H_    0.521101 0.253318 0.055311 0.101182
H32   H     H_    0.478933 0.253345 0.944678 0.101279
H33   H     H_    0.021099 0.753318 0.055309 0.101176
H34   H     H_    0.021309 0.483220 0.936973 0.138892
H35   H     H_    0.978933 0.753350 0.944677 0.101267
H36   H     H_    0.862034 0.377713 0.921965 0.137769
H37   H     H_    0.137949 0.377994 0.078072 0.137666
H38   H     H_    0.362032 0.877693 0.921968 0.137776
H39   H     H_    0.637954 0.877906 0.078059 0.137675
H40   H     H_    0.873227 0.390498 0.049237 0.133193
H41   H     H_    0.126740 0.390751 0.950791 0.133320
H42   H     H_    0.373225 0.890484 0.049239 0.133197
H43   H     H_    0.626754 0.890653 0.950780 0.133316
H44   H     H_    0.098041 0.020405 0.070157 0.140878
H45   H     H_    0.980774 0.968832 0.438219 0.134985
H46   H     H_    0.901990 0.020010 0.929765 0.140965
H47   H     H_    0.598038 0.520374 0.070161 0.140873
H48   H     H_    0.402010 0.519860 0.929747 0.140962
H49   H     H_    0.615038 0.331544 0.953072 0.157789
H50   H     H_    0.384867 0.331141 0.046918 0.157614
H51   H     H_    0.115032 0.831568 0.953071 0.157789
H52   H     H_    0.884897 0.831265 0.046928 0.157628
H53   H     H_    0.584095 0.493667 0.944674 0.140072
H54   H     H_    0.415967 0.493163 0.055242 0.140049
H55   H     H_    0.084099 0.993697 0.944670 0.140075
H56   H     H_    0.073960 0.888456 0.558575 0.170000
H57   H     H_    0.915943 0.993317 0.055260 0.140036
H58   H     H_    0.483743 0.973433 0.572737 0.122785
H59   H     H_    0.473257 0.972150 0.442459 0.132145
H60   H     H_    0.983743 0.473433 0.572737 0.122784
H61   H     H_    0.973257 0.472150 0.442459 0.132144
H62   H     H_    0.627744 0.357788 0.078774 0.132740
H63   H     H_    0.372152 0.357366 0.921211 0.132798
H64   H     H_    0.127737 0.857812 0.078772 0.132738
H65   H     H_    0.872186 0.857488 0.921221 0.132793
H66   H     H_    0.480773 0.468833 0.438219 0.134985
H67   H     H_    0.573959 0.388457 0.558575 0.169999
H68   H     H_    0.565028 0.381000 0.433774 0.136266
O1    O     O_R   0.784290 0.290360 0.830540 -0.522676
O2    O     O_R   0.456020 0.282110 0.333230 -0.519004
O3    O     O_R   0.043980 0.782110 0.666770 -0.524785
O4    O     O_R   0.956020 0.782110 0.333230 -0.519005
O5    O     O_R   0.679070 0.374030 0.674430 -0.509528
O6    O     O_R   0.320930 0.374030 0.325570 -0.508219
O7    O     O_R   0.179070 0.874030 0.674430 -0.509528
O8    O     O_R   0.820930 0.874030 0.325570 -0.508219
O9    O     O_3   0.665360 0.165350 0.749070 -0.245617
O10   O     O_3   0.334640 0.165350 0.250930 -0.250404
O11   O     O_3   0.165360 0.665350 0.749070 -0.245618
O12   O     O_R   0.215710 0.290360 0.169460 -0.522683
O13   O     O_3   0.834640 0.665350 0.250930 -0.250402
O14   O     O_R   0.762610 0.041070 0.825230 -0.495150
O15   O     O_R   0.237390 0.041070 0.174770 -0.494971
O16   O     O_R   0.262610 0.541070 0.825230 -0.495148
O17   O     O_R   0.737390 0.541070 0.174770 -0.494970
O18   O     O_R   0.667390 0.924160 0.829970 -0.527443
O19   O     O_R   0.332610 0.924160 0.170030 -0.527498
O20   O     O_R   0.167390 0.424160 0.829970 -0.527441
O21   O     O_R   0.832610 0.424160 0.170030 -0.527499
O22   O     O_R   0.553980 0.081420 0.821780 -0.498004
O23   O     O_R   0.284290 0.790360 0.830540 -0.522675
O24   O     O_R   0.446020 0.081420 0.178220 -0.497644
O25   O     O_R   0.053980 0.581420 0.821780 -0.498007
O26   O     O_R   0.946020 0.581420 0.178220 -0.497644
O27   O     O_R   0.543210 0.283170 0.826740 -0.524111
O28   O     O_R   0.456790 0.283170 0.173260 -0.523865
O29   O     O_R   0.043210 0.783170 0.826740 -0.524111
O30   O     O_R   0.956790 0.783170 0.173260 -0.523866
O31   O     O_R   0.678350 0.375000 0.822720 -0.500227
O32   O     O_R   0.321650 0.375000 0.177280 -0.500039
O33   O     O_R   0.178350 0.875000 0.822720 -0.500227
O34   O     O_R   0.715710 0.790360 0.169460 -0.522689
O35   O     O_R   0.821650 0.875000 0.177280 -0.500040
O36   O     O_R   0.785060 0.289300 0.670580 -0.522906
O37   O     O_R   0.214940 0.289300 0.329420 -0.518968
O38   O     O_R   0.285060 0.789300 0.670580 -0.522906
O39   O     O_R   0.714940 0.789300 0.329420 -0.518967
O40   O     O_R   0.763330 0.040090 0.676940 -0.509029
O41   O     O_R   0.236670 0.040090 0.323060 -0.507540
O42   O     O_R   0.263330 0.540090 0.676940 -0.509029
O43   O     O_R   0.736670 0.540090 0.323060 -0.507540
O44   O     O_R   0.668160 0.923110 0.670000 -0.520634
O45   O     O_R   0.554690 0.080440 0.673480 -0.511401
O46   O     O_R   0.331840 0.923110 0.330000 -0.516795
O47   O     O_R   0.168160 0.423110 0.670000 -0.520633
O48   O     O_R   0.831840 0.423110 0.330000 -0.516796
O49   O     O_R   0.445310 0.080440 0.326520 -0.509306
O50   O     O_R   0.054690 0.580440 0.673480 -0.511401
O51   O     O_R   0.945310 0.580440 0.326520 -0.509307
O52   O     O_R   0.543980 0.282110 0.666770 -0.524785

loop_
_geom_bond_atom_site_label_1
_geom_bond_atom_site_label_2
_ccdc_geom_bond_type
Cr10  O11   S    
C7    C10   D    
C56   O30   A    
C21   C26   A    
C53   O27   A    
C53   O22   A    
C21   H39   S    
Cr10  O25   S    
C29   C33   S    
C4    C53   S    
C64   C103  S    
C68   C86   S    
Cr6   O16   S    
C50   H59   S    
C17   C91   A    
C15   C80   A    
C65   C101  S    
C6    C55   S    
C35   C102  A    
C85   H19   S    
C56   O26   A    
C6    H35   S    
C48   C61   S    
C86   H20   S    
C81   H10   S    
Cr10  O50   S    
C62   C105  S    
C59   H2    S    
C54   O24   A    
C99   O23   A    
C31   H53   S    
C60   H45   S    
C64   C68   A    
C29   H44   S    
C98   O12   A    
C42   C109  S    
C73   C90   S    
Cr3   O33   S    
C89   H24   S    
C35   C97   S    
C95   C112  S    
C90   H25   S    
C111  O6    A    
C19   H37   S    
Cr4   O8    S    
C38   C99   S    
C109  O4    A    
C15   C25   S    
C33   H55   S    
C109  O51   A    
C74   C92   S    
C65   C70   A    
C12   C22   A    
C94   C111  S    
C112  O38   A    
Cr11  O13   S    
C34   H57   S    
C2    C32   S    
C67   C72   A    
C17   C39   A    
C30   H65   S    
C97   O1    A    
C82   H11   S    
C25   O19   A    
C78   H8    S    
C30   H46   S    
C19   C37   A    
C76   C94   A    
C23   H41   S    
C104  O47   A    
C76   H6    S    
C78   C83   A    
C28   H48   S    
C89   H28   S    
C61   H4    S    
C20   C24   A    
C78   C96   A    
C8    C9    S    
C106  O45   A    
C98   O32   A    
C70   C74   A    
Cr2   O10   S    
Cr6   O23   S    
C58   C102  A    
C84   H18   S    
Cr12  O52   S    
Cr5   O12   S    
Cr2   O2    S    
C18   C35   A    
C85   H15   S    
C112  O7    A    
Cr4   O13   S    
Cr7   O39   S    
C93   C110  S    
C55   O29   A    
C12   C58   A    
C61   H56   S    
C104  O42   A    
Cr12  O27   S    
C84   H14   S    
C103  O41   A    
C87   C92   S    
C110  O5    A    
Cr8   O18   S    
Cr8   O9    S    
C105  O43   A    
C32   H54   S    
C7    C56   S    
C101  O44   A    
C12   C47   S    
C70   C87   S    
C41   C49   A    
C37   C98   S    
C59   H67   S    
C92   H26   S    
C63   C67   A    
C16   C26   A    
C79   H9    S    
C46   C48   A    
C26   H43   S    
C67   C85   S    
Cr7   O17   S    
C41   C106  S    
C30   C34   S    
Cr4   O35   S    
C27   C31   S    
C51   C52   A    
C31   C102  S    
C74   C96   A    
C62   C79   A    
C28   C32   S    
C18   H36   S    
C57   C59   S    
C57   H68   S    
C55   O25   A    
C51   H60   S    
C86   C90   S    
C28   H63   S    
C3    O39   A    
C6    C11   D    
C62   C66   A    
C19   C23   A    
C63   C104  S    
Cr1   O36   S    
C68   C73   A    
C5    H31   S    
Cr3   O7    S    
Cr12  O5    S    
C77   C95   A    
C97   O31   A    
Cr3   O11   S    
C60   C61   S    
C90   H29   S    
C65   C83   A    
C14   C23   A    
C100  O35   A    
C24   H42   S    
Cr9   O24   S    
C13   C33   S    
C106  O52   A    
C20   C38   A    
C5    C54   S    
C66   C71   A    
C21   C39   A    
Cr12  O31   S    
Cr5   O41   S    
C44   C57   S    
C43   C48   A    
C20   H38   S    
C49   H58   S    
C28   C69   S    
C3    O8    A    
C1    C16   S    
C99   O33   A    
C41   C45   A    
C87   H17   S    
C108  O3    A    
C100  O34   A    
C1    O14   A    
C64   C82   A    
C13   C38   A    
C3    C96   S    
C36   O20   A    
C40   C107  S    
C36   O16   A    
Cr7   O43   S    
C15   C24   A    
C4    H32   S    
Cr11  O26   S    
C63   C81   A    
C49   C50   A    
Cr10  O47   S    
Cr1   O9    S    
Cr11  O21   S    
C42   C46   A    
C111  O37   A    
C14   C69   A    
Cr10  O20   S    
Cr6   O11   S    
C75   C79   A    
C17   C34   S    
C73   C95   A    
Cr5   O10   S    
C2    C69   A    
C27   H47   S    
C83   H13   S    
C44   C45   A    
C75   C93   A    
Cr1   O40   S    
Cr11  O48   S    
Cr9   O49   S    
Cr3   O3    S    
Cr6   O42   S    
C45   C59   S    
C85   C89   S    
C87   H21   S    
C46   C60   S    
C1    O18   A    
C18   C22   A    
Cr1   O1    S    
Cr2   O6    S    
Cr3   O29   S    
C60   H3    S    
C77   H7    S    
C84   C88   S    
Cr2   O28   S    
C30   C91   S    
Cr5   O15   S    
C27   C58   S    
C76   C81   A    
Cr9   O10   S    
C5    C8    D    
C54   O28   A    
C71   C93   A    
C86   H16   S    
C10   H23   S    
C29   H64   S    
Cr12  O9    S    
Cr8   O45   S    
Cr1   O14   S    
Cr7   O13   S    
C47   O17   A    
C22   H40   S    
C72   C94   A    
C57   H66   S    
C110  O36   A    
Cr8   O44   S    
C14   C36   S    
C72   C89   S    
C2    C37   A    
C43   C51   A    
C39   C100  S    
C29   C80   S    
C32   H50   S    
C77   C82   A    
Cr6   O38   S    
C103  O46   A    
C40   C50   A    
Cr11  O51   S    
C47   O21   A    
Cr5   O37   S    
C88   H27   S    
C105  O48   A    
C101  O40   A    
C43   C108  S    
Cr9   O19   S    
Cr4   O30   S    
C33   H51   S    
C13   C80   A    
C34   H52   S    
C10   C11   S    
C66   C84   S    
C71   C88   S    
Cr4   O4    S    
C9    H12   S    
C75   H5    S    
C8    H1    S    
C40   C44   A    
C11   H34   S    
C16   C91   A    
C31   H49   S    
C7    H33   S    
C52   H61   S    
C108  O50   A    
C88   H22   S    
C107  O49   A    
C92   H30   S    
Cr2   O32   S    
C4    C9    D    
C25   O15   A    
Cr8   O22   S    
C27   H62   S    
C107  O2    A    
Cr9   O46   S    
Cr7   O34   S    
C42   C52   A    
