data_mof_unit_13894.cif
_audit_creation_date              2012-12-11T15:21:32-0500
_audit_creation_method            fapswitch 2.2
_symmetry_space_group_name_H-M    P1
_symmetry_Int_Tables_number       1
_space_group_crystal_system       triclinic
_cell_length_a                    8.284236
_cell_length_b                    12.77473
_cell_length_c                    18.921638
_cell_angle_alpha                 94.558395
_cell_angle_beta                  94.051424
_cell_angle_gamma                 97.932891
_cell_volume                      1970.25210411

loop_
_atom_site_label
_atom_site_type_symbol
_atom_type_description
_atom_site_fract_x
_atom_site_fract_y
_atom_site_fract_z
_atom_type_partial_charge
Ba1   Ba    Ba6+2 0.160910 0.552960 0.466220 1.705173
Ba2   Ba    Ba6+2 0.649260 0.447030 0.533730 1.705460
C1    C     C_3   0.364244 0.817015 0.198235 -0.249403
C2    C     C_3   0.394230 0.785476 0.273381 0.357521
C3    C     C_3   0.452099 0.784720 0.643118 0.315416
C4    C     C_3   0.473432 0.897840 0.676375 0.352512
C5    C     C_3   0.900937 0.170888 0.723913 0.282460
C6    C     C_3   0.862663 0.071353 0.762434 0.286163
C7    C     C_3   0.411075 0.238462 0.728595 0.307439
C8    C     C_3   0.433029 0.221999 0.807103 -0.250658
C9    C     C_R   0.075870 0.183231 0.527185 -0.193807
C10   C     C_R   0.732054 0.818434 0.477408 -0.272639
C11   C     C_R   0.702712 0.997441 0.450429 -0.049075
C12   C     C_3   0.884461 0.825605 0.288483 0.343553
C13   C     C_R   0.638784 0.889495 0.448394 -0.035237
C14   C     C_R   0.886306 0.852158 0.512473 0.054258
C15   C     C_R   0.950107 0.963993 0.518702 -0.036970
C16   C     C_R   0.857335 0.037762 0.486193 -0.002441
C17   C     C_R   0.922479 0.149220 0.490777 0.098122
C18   C     C_R   0.168337 0.112446 0.557794 0.025190
C19   C     C_R   0.104007 0.004272 0.555151 -0.069544
C20   C     C_R   0.620451 0.538283 0.299764 -0.278798
C21   C     C_R   0.463080 0.488339 0.277709 0.038975
C22   C     C_R   0.404197 0.486844 0.206242 -0.119823
C23   C     C_3   0.807813 0.888767 0.233825 -0.205556
C24   C     C_R   0.506015 0.528949 0.155881 -0.006674
C25   C     C_R   0.667843 0.573408 0.178383 -0.137761
C26   C     C_R   0.724241 0.576748 0.249964 0.018055
C27   C     C_R   0.485837 0.607211 0.038514 -0.070631
C28   C     C_R   0.432725 0.599123 0.966219 -0.050292
C29   C     C_R   0.339504 0.505253 0.933348 0.034708
C30   C     C_R   0.298721 0.420417 0.974805 -0.080634
C31   C     C_R   0.351041 0.428672 0.047094 -0.071701
C32   C     C_R   0.445936 0.521933 0.079661 0.045972
C33   C     C_R   0.132666 0.440866 0.829513 -0.088649
C34   C     C_3   0.746672 0.316307 0.321776 0.314406
C35   C     C_R   0.087436 0.428241 0.756231 0.012214
C36   C     C_R   0.347795 0.525743 0.734674 0.039579
C37   C     C_R   0.395218 0.538166 0.807495 -0.080880
C38   C     C_R   0.288478 0.494573 0.855865 -0.017043
C39   C     C_R   0.197115 0.467518 0.709284 -0.291750
C40   C     C_3   0.742940 0.299736 0.240511 0.311304
C41   C     C_3   0.008160 0.678411 0.682787 0.341438
C42   C     C_3   0.954254 0.699308 0.757300 -0.244189
C43   C     C_3   0.169341 0.228723 0.302500 0.703911
C44   C     C_3   0.155574 0.224589 0.221363 -0.280325
H1    H     H_    0.296521 0.720309 0.281744 0.099584
H2    H     H_    0.686748 0.363552 0.216673 -0.090390
H3    H     H_    0.869143 0.306167 0.224331 -0.019095
H4    H     H_    0.131981 0.656693 0.687823 -0.048932
H5    H     H_    0.924327 0.610055 0.655802 0.066829
H6    H     H_    0.037520 0.765508 0.787667 0.215567
H7    H     H_    0.955571 0.627484 0.786496 0.048110
H8    H     H_    0.828711 0.720445 0.754221 0.140251
H9    H     H_    0.071200 0.267784 0.324476 -0.013257
H10   H     H_    0.240120 0.839563 0.190253 0.182264
H11   H     H_    0.142647 0.303460 0.203756 -0.001021
H12   H     H_    0.046062 0.169073 0.198757 0.160474
H13   H     H_    0.264358 0.196750 0.199728 0.211852
H14   H     H_    0.514049 0.756277 0.278227 -0.088241
H15   H     H_    0.374179 0.749138 0.159223 0.040583
H16   H     H_    0.500808 0.782375 0.589854 -0.081673
H17   H     H_    0.321055 0.754294 0.638406 0.045889
H18   H     H_    0.605748 0.926378 0.686088 -0.032901
H19   H     H_    0.421102 0.948082 0.638628 -0.028243
H20   H     H_    0.455253 0.885557 0.188621 0.168357
H21   H     H_    0.732576 0.833682 0.191898 0.061530
H22   H     H_    0.860084 0.151514 0.666491 -0.047887
H23   H     H_    0.034792 0.196769 0.729864 -0.033073
H24   H     H_    0.908704 0.003718 0.733990 0.001741
H25   H     H_    0.728886 0.052691 0.762023 0.097350
H26   H     H_    0.291757 0.266435 0.717844 -0.067526
H27   H     H_    0.510329 0.301007 0.717709 0.120337
H28   H     H_    0.427186 0.297365 0.839604 0.058368
H29   H     H_    0.553531 0.196729 0.819850 0.165379
H30   H     H_    0.964333 0.878261 0.329740 0.157582
H31   H     H_    0.335323 0.160784 0.820992 0.201477
H32   H     H_    0.629725 0.048786 0.424269 0.110594
H33   H     H_    0.176213 0.952017 0.580587 0.092854
H34   H     H_    0.127259 0.266137 0.529431 0.050831
H35   H     H_    0.681226 0.735323 0.474386 0.071079
H36   H     H_    0.514341 0.581484 0.825978 0.086398
H37   H     H_    0.463867 0.666694 0.936171 0.119724
H38   H     H_    0.557197 0.680513 0.062404 0.084887
H39   H     H_    0.279249 0.454343 0.189631 0.090083
H40   H     H_    0.229674 0.346520 0.951032 0.144275
H41   H     H_    0.783693 0.784950 0.316701 -0.111931
H42   H     H_    0.320606 0.360973 0.077146 0.109895
H43   H     H_    0.045542 0.410858 0.865710 0.104942
H44   H     H_    0.750544 0.603645 0.140496 0.081663
H45   H     H_    0.160328 0.458521 0.652833 0.056017
H46   H     H_    0.665694 0.541390 0.355066 0.065321
H47   H     H_    0.728333 0.940484 0.260095 0.157470
H48   H     H_    0.904387 0.938108 0.208462 0.197881
H49   H     H_    0.624230 0.326782 0.337231 0.021477
H50   H     H_    0.833733 0.389514 0.339228 -0.049290
O1    O     O_2   0.160820 0.763040 0.533820 -0.488117
O2    O     O_3   0.323787 0.278084 0.331558 -0.636176
O3    O     O_3   0.981420 0.758847 0.253845 -0.602826
O4    O     O_2   0.649470 0.236890 0.466160 -0.465444
O5    O     O_3   0.919320 0.371390 0.464540 -0.504947
O6    O     O_3   0.424350 0.301430 0.591880 -0.479174
O7    O     O_3   0.795031 0.228391 0.352458 -0.575155
O8    O     O_3   0.382770 0.553920 0.582990 -0.484930
O9    O     O_3   0.848220 0.355290 0.626830 -0.489975
O10   O     O_2   0.758926 0.439365 0.750136 -0.498609
O11   O     O_3   0.814532 0.248318 0.753163 -0.591755
O12   O     O_3   0.890970 0.628600 0.535400 -0.501364
O13   O     O_3   0.427530 0.446070 0.416950 -0.458044
O14   O     O_2   0.637430 0.550200 0.669460 -0.455286
O15   O     O_3   0.539144 0.727465 0.687989 -0.622622
O16   O     O_2   0.510248 0.114057 0.557558 -0.484901
O17   O     O_3   0.418979 0.143467 0.686652 -0.615642
O18   O     O_3   0.385950 0.698560 0.408070 -0.504046
O19   O     O_2   0.301444 0.885146 0.451236 -0.434411
O20   O     O_3   0.012120 0.771746 0.647852 -0.606609
O21   O     O_3   0.391530 0.873551 0.322423 -0.535201
O22   O     O_2   0.172860 0.449730 0.330520 -0.503127
O23   O     O_3   0.962080 0.644700 0.373110 -0.475621
O24   O     O_2   0.060600 0.568250 0.248546 -0.503111
P1    P     P_3+3 0.986780 0.745970 0.554690 0.981146
P2    P     P_3+3 0.341450 0.417130 0.341310 0.976155
P3    P     P_3+3 0.933692 0.632050 0.280569 0.957535
P4    P     P_3+3 0.823520 0.254020 0.445250 1.041729
P5    P     P_3+3 0.880297 0.369182 0.720418 0.944368
P6    P     P_3+3 0.430188 0.837022 0.408652 1.011107
P7    P     P_3+3 0.469752 0.592611 0.670311 0.972122
P8    P     P_3+3 0.379065 0.164993 0.597080 0.971136
S1    S     S_3+6 0.630006 0.176012 0.202544 -0.050793
O25   O     O_2   0.526817 0.124518 0.255981 -0.239520
O26   O     O_2   0.745385 0.102363 0.177892 -0.293863
O27   O     O_3   0.509013 0.198423 0.131655 -0.509518
H51   H     H_    0.584368 0.234375 0.099804 0.336086
S2    S     S_3+6 0.143745 0.097248 0.328720 -0.074099
O28   O     O_2   0.966788 0.065976 0.339090 -0.367446
O29   O     O_2   0.194528 0.021136 0.272770 -0.278380
O30   O     O_3   0.255725 0.092819 0.405555 -0.510660
H52   H     H_    0.370517 0.100574 0.392961 0.365418
S3    S     S_3+6 0.374475 0.905607 0.757779 -0.033688
O31   O     O_2   0.357398 0.801074 0.789805 -0.291369
O32   O     O_2   0.471181 0.987608 0.811284 -0.255531
O33   O     O_3   0.187536 0.938316 0.739911 -0.504953
H53   H     H_    0.204436 0.016605 0.739452 0.336582
S4    S     S_3+6 0.943466 0.088612 0.853650 -0.015056
O34   O     O_2   0.027541 0.995519 0.870351 -0.183703
O35   O     O_2   0.064007 0.188491 0.868438 -0.362368
O36   O     O_3   0.789502 0.094784 0.906492 -0.429284
H54   H     H_    0.770699 0.169853 0.909178 0.339138

loop_
_geom_bond_atom_site_label_1
_geom_bond_atom_site_label_2
_ccdc_geom_bond_type
Ba2   O13   S    
C23   H47   S    
C44   H13   S    
C8    H28   S    
C34   C40   S    
O36   H54   S    
C23   H21   S    
C7    H26   S    
O12   P1    S    
C41   C42   S    
S2    O30   S    
C36   P7    S    
C26   P3    S    
C5    C6    S    
O17   P8    S    
C43   C44   S    
O10   P5    D    
C9    C17   A    
C43   S2    S    
O19   P6    D    
C11   C16   A    
C34   O7    S    
C33   C35   A    
C31   H42   S    
C22   C24   A    
C12   H41   S    
C18   P8    S    
O6    P8    S    
C43   O2    S    
O22   P2    D    
C28   C29   A    
O18   P6    S    
S3    O33   S    
O13   P2    S    
Ba2   O6    S    
C4    S3    S    
C29   C38   S    
C3    H17   S    
C25   H44   S    
Ba1   Ba2   S    
Ba1   O23   S    
C4    H18   S    
C28   H37   S    
Ba1   P2    S    
O1    P1    D    
Ba1   O13   S    
C5    H22   S    
C42   H7    S    
C24   C32   S    
C4    H19   S    
C10   C14   A    
C14   C15   A    
C13   P6    S    
C3    H16   S    
C21   C22   A    
C7    C8    S    
O24   P3    D    
O14   P7    D    
S1    O27   S    
C42   H6    S    
Ba2   O4    S    
C23   H48   S    
C20   C26   A    
C44   H12   S    
C19   H33   S    
C7    H27   S    
S4    O36   S    
O7    P4    S    
C8    H31   S    
C31   C32   A    
C21   P2    S    
C35   P5    S    
C1    H15   S    
C36   C37   A    
C9    C18   A    
C17   P4    S    
O5    P4    S    
O20   P1    S    
C12   O3    S    
O11   P5    S    
C27   H38   S    
S4    O35   D    
Ba1   O1    S    
C37   C38   A    
C16   C17   A    
S2    O29   D    
C3    O15   S    
Ba2   O5    S    
C27   C32   A    
C15   C19   A    
O4    P4    D    
C12   H30   S    
C14   P1    S    
C27   C28   A    
C41   O20   S    
C1    H10   S    
C34   H50   S    
C29   C30   A    
C10   C13   A    
Ba2   O8    S    
C30   H40   S    
C2    H14   S    
C15   C16   A    
C24   C25   A    
C6    S4    S    
C40   H2    S    
Ba1   O8    S    
C36   C39   A    
C33   H43   S    
C39   H45   S    
Ba2   P4    S    
C11   C13   A    
C44   H11   S    
O15   P7    S    
C5    O11   S    
C2    O21   S    
C1    H20   S    
Ba1   O18   S    
C1    C2    S    
Ba1   O5    S    
Ba1   O12   S    
O3    P3    S    
S1    O25   D    
C22   H39   S    
O2    P2    S    
C11   H32   S    
Ba2   O14   S    
C6    H25   S    
C20   C21   A    
C37   H36   S    
S4    O34   D    
C5    H23   S    
S3    O31   D    
C41   H4    S    
C8    H29   S    
S2    O28   D    
O23   P3    S    
O30   H52   S    
Ba2   O9    S    
C6    H24   S    
O9    P5    S    
C7    O17   S    
C30   C31   A    
C33   C38   A    
S3    O32   D    
C34   H49   S    
C41   H5    S    
C3    C4    S    
O8    P7    S    
Ba2   O12   S    
C10   H35   S    
O27   H51   S    
C40   S1    S    
Ba1   O22   S    
C12   C23   S    
C35   C39   A    
Ba1   P1    S    
O16   P8    D    
C9    H34   S    
C40   H3    S    
C42   H8    S    
C18   C19   A    
C43   H9    S    
C25   C26   A    
C20   H46   S    
O33   H53   S    
O21   P6    S    
S1    O26   D    
C2    H1    S    
