data_mof_unit_37367.cif
_audit_creation_date              2012-12-11T14:07:17-0500
_audit_creation_method            fapswitch 2.2
_symmetry_space_group_name_H-M    P1
_symmetry_Int_Tables_number       1
_space_group_crystal_system       triclinic
_cell_length_a                    19.669664
_cell_length_b                    17.027297
_cell_length_c                    15.365059
_cell_angle_alpha                 90.010389
_cell_angle_beta                  53.310387
_cell_angle_gamma                 90.003219
_cell_volume                      4126.56233844

loop_
_atom_site_label
_atom_site_type_symbol
_atom_type_description
_atom_site_fract_x
_atom_site_fract_y
_atom_site_fract_z
_atom_type_partial_charge
C1    C     C_R   0.378412 0.198603 0.990401 -0.102290
C2    C     C_R   0.338727 0.826157 0.052102 -0.205272
C3    C     C_R   0.838822 0.673929 0.052230 -0.212944
C4    C     C_R   0.878419 0.301398 0.990370 -0.103276
C5    C     C_R   0.631235 0.892846 0.107506 0.833646
C6    C     C_R   0.670670 0.083414 0.048023 0.752785
C7    C     C_R   0.170661 0.416607 0.048042 0.749300
C8    C     C_R   0.131106 0.607226 0.107655 0.834021
C9    C     C_R   0.712700 0.146484 0.977343 -0.082494
C10   C     C_R   0.649218 0.814663 0.074870 -0.116043
C11   C     C_R   0.149047 0.685431 0.075063 -0.117203
C12   C     C_R   0.212694 0.353515 0.977373 -0.081886
C13   C     C_R   0.692261 0.862426 0.677290 0.029565
C14   C     C_R   0.605233 0.184825 0.699129 0.056642
C15   C     C_R   0.105410 0.315232 0.698994 0.060860
C16   C     C_R   0.191942 0.638729 0.678088 0.025591
C17   C     C_3   0.187973 0.128436 0.524616 -0.272961
C18   C     C_3   0.364757 0.787067 0.482562 -0.232724
C19   C     C_3   0.756653 0.711861 0.459856 -0.384834
C20   C     C_3   0.687872 0.371455 0.524501 -0.317523
C21   C     C_3   0.137252 0.177013 0.629981 -0.457219
C22   C     C_3   0.309479 0.738025 0.586438 -0.469930
C23   C     C_3   0.699513 0.764412 0.558227 -0.354851
C24   C     C_3   0.637035 0.322971 0.629928 -0.444621
C25   C     C_3   0.301889 0.233774 0.444938 -0.486835
C26   C     C_3   0.369357 0.674092 0.374055 -0.398081
C27   C     C_3   0.878806 0.728455 0.470924 -0.389836
C28   C     C_3   0.801884 0.266211 0.445192 -0.478501
C29   C     C_3   0.854955 0.828472 0.370212 0.782682
C30   C     C_3   0.687652 0.260557 0.416970 0.702912
C31   C     C_3   0.187396 0.239129 0.417147 0.706523
C32   C     C_3   0.253882 0.776505 0.448562 0.614851
C33   C     C_3   0.246556 0.183656 0.425210 0.199387
C34   C     C_3   0.348773 0.763009 0.398340 0.164708
C35   C     C_3   0.849990 0.739129 0.396403 0.168580
C36   C     C_3   0.746631 0.316177 0.425197 0.223263
C37   C     C_3   0.753279 0.820052 0.575118 0.308947
C38   C     C_3   0.651628 0.234214 0.602000 0.288665
C39   C     C_3   0.151704 0.265756 0.601940 0.287095
C40   C     C_3   0.252297 0.681924 0.576546 0.298420
C41   C     C_3   0.817193 0.771015 0.580049 -0.465480
C42   C     C_3   0.746334 0.213979 0.543718 -0.415975
C43   C     C_3   0.246413 0.286100 0.543395 -0.413645
C44   C     C_3   0.311548 0.625986 0.479293 -0.466077
C45   C     C_R   0.402117 0.799937 0.207023 0.592139
C46   C     C_R   0.350283 0.172448 0.219902 0.658131
C47   C     C_R   0.850380 0.327434 0.219872 0.662306
C48   C     C_R   0.903990 0.700568 0.205039 0.682396
C49   C     C_3   0.806439 0.876382 0.476190 -0.590440
C50   C     C_3   0.626448 0.217388 0.525188 -0.559788
C51   C     C_3   0.126265 0.282358 0.525365 -0.562052
C52   C     C_3   0.197686 0.730529 0.554003 -0.480895
C53   C     C_2   0.187938 0.742579 0.103210 -0.108520
C54   C     C_2   0.288116 0.316048 0.954109 -0.103670
C55   C     C_2   0.788129 0.183951 0.954058 -0.096563
C56   C     C_2   0.688235 0.757657 0.102962 -0.098517
C57   C     C_2   0.816484 0.250960 0.897407 -0.146180
C58   C     C_2   0.709004 0.686133 0.057065 -0.129713
C59   C     C_2   0.208935 0.813996 0.056940 -0.117508
C60   C     C_2   0.316485 0.249034 0.897438 -0.144958
C61   C     C_R   0.328480 0.912688 0.954000 0.749670
C62   C     C_R   0.368584 0.112548 0.893073 0.827619
C63   C     C_R   0.868570 0.387451 0.893083 0.825788
C64   C     C_R   0.828460 0.587384 0.954091 0.750085
C65   C     C_R   0.358486 0.079984 0.315198 0.675127
C66   C     C_R   0.413631 0.890498 0.299590 0.851203
C67   C     C_R   0.913267 0.610078 0.299703 0.748454
C68   C     C_R   0.858545 0.419864 0.315245 0.649225
C69   C     C_R   0.351873 0.189158 0.926628 -0.138402
C70   C     C_R   0.285443 0.852654 0.028506 -0.104133
C71   C     C_R   0.785497 0.647470 0.028626 -0.102726
C72   C     C_R   0.851872 0.310842 0.926607 -0.139165
C73   C     C_R   0.398148 0.811815 0.299000 -0.375949
C74   C     C_R   0.307156 0.140102 0.323544 -0.339096
C75   C     C_R   0.807276 0.359706 0.323542 -0.350918
C76   C     C_R   0.899491 0.689289 0.297525 -0.414569
C77   C     C_R   0.661322 0.177411 0.952008 -0.208851
C78   C     C_R   0.623487 0.799701 0.010904 -0.221619
C79   C     C_R   0.123369 0.700327 0.011060 -0.221926
C80   C     C_R   0.161320 0.322575 0.952023 -0.206718
C81   C     C_R   0.650723 0.828790 0.780006 -0.122712
C82   C     C_R   0.599305 0.199191 0.791856 -0.161346
C83   C     C_R   0.099354 0.300827 0.791800 -0.162515
C84   C     C_R   0.150063 0.671783 0.780944 -0.110433
C85   C     C_R   0.590113 0.106249 0.697748 -0.131762
C86   C     C_R   0.641288 0.922296 0.684780 -0.123460
C87   C     C_R   0.141911 0.578046 0.684784 -0.124592
C88   C     C_R   0.090342 0.393830 0.697585 -0.133333
H1    H     H_    0.391764 0.254167 0.010972 0.198764
H2    H     H_    0.328439 0.778095 0.104101 0.205056
H3    H     H_    0.828786 0.721932 0.104375 0.209023
H4    H     H_    0.891792 0.245835 0.010893 0.201344
H5    H     H_    0.143786 0.096370 0.514572 0.205419
H6    H     H_    0.347490 0.849563 0.506494 0.257622
H7    H     H_    0.734992 0.713421 0.407444 0.193598
H8    H     H_    0.643751 0.403401 0.514239 0.194262
H9    H     H_    0.658090 0.799558 0.545981 0.193611
H10   H     H_    0.568403 0.337476 0.677458 0.177749
H11   H     H_    0.068624 0.162436 0.677726 0.182885
H12   H     H_    0.271154 0.779350 0.655448 0.185682
H13   H     H_    0.159035 0.160862 0.679781 0.188886
H14   H     H_    0.350214 0.703749 0.600601 0.180572
H15   H     H_    0.657364 0.726728 0.630948 0.162690
H16   H     H_    0.658619 0.339270 0.679909 0.185074
H17   H     H_    0.340430 0.195051 0.458429 0.245149
H18   H     H_    0.437105 0.663279 0.338502 0.202690
H19   H     H_    0.878943 0.666059 0.490772 0.271680
H20   H     H_    0.840330 0.305028 0.458747 0.246327
H21   H     H_    0.783425 0.726342 0.645662 0.192617
H22   H     H_    0.764587 0.221896 0.599277 0.194034
H23   H     H_    0.264819 0.278366 0.598818 0.193604
H24   H     H_    0.350898 0.590639 0.494779 0.189800
H25   H     H_    0.922244 0.847951 0.316435 0.037906
H26   H     H_    0.724752 0.214322 0.355263 0.131406
H27   H     H_    0.224353 0.285340 0.355374 0.128110
H28   H     H_    0.240871 0.756307 0.390855 0.047822
H29   H     H_    0.766752 0.920243 0.472290 0.212412
H30   H     H_    0.559981 0.236624 0.564285 0.228468
H31   H     H_    0.059804 0.263003 0.564668 0.229398
H32   H     H_    0.156013 0.771714 0.622554 0.215978
H33   H     H_    0.851958 0.910069 0.482251 0.147612
H34   H     H_    0.629871 0.153908 0.506717 0.156384
H35   H     H_    0.129518 0.345812 0.506890 0.152463
H36   H     H_    0.155420 0.691334 0.547775 0.144388
H37   H     H_    0.346881 0.271186 0.373041 0.192396
H38   H     H_    0.358483 0.652998 0.315035 0.239991
H39   H     H_    0.944224 0.751663 0.429403 0.178552
H40   H     H_    0.846959 0.228746 0.373379 0.193093
H41   H     H_    0.853265 0.809452 0.597845 0.186889
H42   H     H_    0.758309 0.151344 0.517474 0.177826
H43   H     H_    0.258288 0.348700 0.517034 0.173575
H44   H     H_    0.274302 0.584203 0.467540 0.175284
H45   H     H_    0.213790 0.720000 0.143782 0.170655
H46   H     H_    0.308253 0.335116 0.002770 0.187750
H47   H     H_    0.808283 0.164888 0.002695 0.189655
H48   H     H_    0.714347 0.780381 0.143162 0.183110
H49   H     H_    0.798355 0.269041 0.846240 0.171753
H50   H     H_    0.680984 0.662273 0.019870 0.175079
H51   H     H_    0.181109 0.837736 0.019453 0.176282
H52   H     H_    0.298371 0.230947 0.846251 0.172051
H53   H     H_    0.672149 0.227980 0.902921 0.147271
H54   H     H_    0.616843 0.743565 0.984058 0.172017
H55   H     H_    0.116505 0.756484 0.984508 0.178031
H56   H     H_    0.172149 0.271990 0.902935 0.147942
H57   H     H_    0.669580 0.777806 0.802502 0.112955
H58   H     H_    0.601984 0.255451 0.822179 0.111552
H59   H     H_    0.101965 0.244559 0.822141 0.114455
H60   H     H_    0.167906 0.722542 0.804972 0.113297
H61   H     H_    0.582749 0.075667 0.642357 0.137416
H62   H     H_    0.649762 0.957328 0.620627 0.110976
H63   H     H_    0.151853 0.543239 0.619438 0.104583
H64   H     H_    0.083365 0.424547 0.641939 0.134864
H65   H     H_    0.223131 0.083495 0.534761 0.249640
H66   H     H_    0.432890 0.779511 0.447317 0.189015
H67   H     H_    0.750368 0.650017 0.487425 0.182647
H68   H     H_    0.722910 0.416503 0.534714 0.238293
N1    N     N_R   0.408680 0.130160 0.995800 -0.100086
N2    N     N_R   0.408680 0.869840 0.995800 -0.077660
N3    N     N_R   0.908680 0.630160 0.995800 -0.078852
N4    N     N_R   0.908680 0.369840 0.995800 -0.101488
N5    N     N_R   0.421680 0.867580 0.153120 -0.147406
N6    N     N_R   0.421680 0.132420 0.153120 -0.145021
N7    N     N_R   0.921680 0.367580 0.153120 -0.143650
N8    N     N_R   0.921680 0.632420 0.153120 -0.167782
N9    N     N_R   0.403730 0.921770 0.935950 -0.119905
N10   N     N_R   0.403730 0.078230 0.935950 -0.135650
N11   N     N_R   0.903730 0.421770 0.935950 -0.136333
N12   N     N_R   0.903730 0.578230 0.935950 -0.118958
N13   N     N_R   0.426630 0.075970 0.212960 -0.141122
N14   N     N_R   0.426630 0.924030 0.212960 -0.168333
N15   N     N_R   0.926630 0.575970 0.212960 -0.167309
N16   N     N_R   0.926630 0.424030 0.212960 -0.132802
N17   N     N_R   0.591320 0.134600 0.004200 -0.084002
N18   N     N_R   0.591320 0.865400 0.004200 -0.096052
N19   N     N_R   0.091320 0.634600 0.004200 -0.096804
N20   N     N_R   0.091320 0.365400 0.004200 -0.083866
N21   N     N_R   0.578320 0.867660 0.846880 -0.035074
N22   N     N_R   0.578320 0.132340 0.846880 -0.043120
N23   N     N_R   0.078320 0.367660 0.846880 -0.043973
N24   N     N_R   0.078320 0.632340 0.846880 -0.034465
N25   N     N_R   0.573370 0.074390 0.787040 -0.050712
N26   N     N_R   0.573370 0.925610 0.787040 -0.044298
N27   N     N_R   0.073370 0.574390 0.787040 -0.042813
N28   N     N_R   0.073370 0.425610 0.787040 -0.050976
N29   N     N_R   0.596270 0.927870 0.064040 -0.152864
N30   N     N_R   0.596270 0.072130 0.064040 -0.121287
N31   N     N_R   0.096270 0.427870 0.064040 -0.118966
N32   N     N_R   0.096270 0.572130 0.064040 -0.148562
Ni1   Ni    Ni4+2 0.500000 0.131190 0.000000 0.208816
Ni2   Ni    Ni4+2 0.500000 0.868810 0.000000 0.235691
Ni3   Ni    Ni4+2 0.000000 0.631190 0.000000 0.240007
Ni4   Ni    Ni4+2 0.000000 0.368810 0.000000 0.209750
Ni5   Ni    Ni4+2 0.488650 1.000000 0.862740 0.274595
Ni6   Ni    Ni4+2 0.988650 0.500000 0.862740 0.272606
Ni7   Ni    Ni4+2 0.511350 0.000000 0.137260 0.338602
Ni8   Ni    Ni4+2 0.011350 0.500000 0.137260 0.336101
F1    F     F_    0.817704 0.843829 0.318677 -0.632496
F2    F     F_    0.642668 0.302288 0.389151 -0.672754
F3    F     F_    0.142331 0.197238 0.389568 -0.668626
F4    F     F_    0.233171 0.855677 0.468909 -0.694779
F5    F     F_    0.410386 0.729234 0.161177 -0.715819
F6    F     F_    0.333762 0.241542 0.193043 -0.721767
F7    F     F_    0.833927 0.258339 0.192909 -0.718664
F8    F     F_    0.921007 0.770151 0.152996 -0.647921
F9    F     F_    0.302367 0.952027 0.902330 -0.659947
F10   F     F_    0.373929 0.083956 0.806846 -0.652003
F11   F     F_    0.873864 0.416055 0.806909 -0.653360
F12   F     F_    0.802260 0.548065 0.902491 -0.662965
F13   F     F_    0.352116 0.042304 0.397121 -0.648687
F14   F     F_    0.443410 0.922180 0.351750 -0.614680
F15   F     F_    0.940879 0.577749 0.353924 -0.604531
F16   F     F_    0.852248 0.457264 0.397280 -0.667148
F17   F     F_    0.624208 0.920863 0.195115 -0.592440
F18   F     F_    0.696773 0.045483 0.100509 -0.641057
F19   F     F_    0.196766 0.454621 0.100490 -0.650129
F20   F     F_    0.123881 0.579266 0.195413 -0.602645

loop_
_geom_bond_atom_site_label_1
_geom_bond_atom_site_label_2
_ccdc_geom_bond_type
C61   C70   A    
C39   C51   S    
C30   F2    S    
C54   C60   D    
N31   Ni8   S    
C51   H35   S    
C48   C76   A    
C19   C23   S    
C50   H34   S    
N10   Ni5   S    
C5    N29   A    
C17   H65   S    
C25   C43   S    
C6    C9    A    
C31   F3    S    
C53   C59   D    
C25   H17   S    
N13   Ni7   S    
C29   C49   S    
C8    N32   A    
C68   C75   A    
C64   F12   S    
C43   H23   S    
C37   C41   S    
C24   H10   S    
C45   C73   A    
C38   C42   S    
N2    Ni2   S    
N18   N29   A    
N19   Ni3   S    
N14   Ni7   S    
C21   H11   S    
N28   Ni6   S    
C58   C71   S    
N4    N11   A    
N21   N26   A    
C54   H46   S    
C13   C81   A    
C16   C84   A    
N27   Ni6   S    
C19   H67   S    
N3    N12   A    
C77   N17   A    
N3    Ni3   S    
C3    H3    S    
C48   F8    S    
C26   H38   S    
C64   C71   A    
N17   Ni1   S    
C84   N24   A    
C25   H37   S    
C41   H41   S    
C32   C52   S    
N32   Ni8   S    
C45   N5    A    
C56   H48   S    
N19   N32   A    
C27   H39   S    
C26   C34   S    
C23   H15   S    
N23   Ni4   S    
C20   C24   S    
C68   N16   A    
C80   H56   S    
C6    F18   S    
C13   C86   A    
C16   C87   A    
C24   C38   S    
C31   C33   S    
C67   F15   S    
N7    Ni4   S    
C9    C55   S    
C27   H19   S    
C66   F14   S    
N8    Ni3   S    
N25   Ni5   S    
C13   C37   S    
C18   H66   S    
N24   N27   A    
C21   H13   S    
C58   H50   S    
C63   N11   A    
C20   H8    S    
C46   F6    S    
C49   H33   S    
N12   Ni6   S    
C3    N3    A    
C88   H64   S    
C26   H18   S    
C17   C33   S    
N29   Ni7   S    
C31   H27   S    
C82   H58   S    
N1    Ni1   S    
C84   H60   S    
C10   C78   A    
C7    C12   A    
N17   N30   A    
C1    H1    S    
C35   C76   S    
C22   H12   S    
C38   C50   S    
C26   C44   S    
C79   N19   A    
N30   Ni7   S    
C53   H45   S    
C80   N20   A    
C88   N28   A    
C19   H7    S    
N22   Ni1   S    
N15   Ni8   S    
C15   C83   A    
C34   C73   S    
C27   C35   S    
C40   C52   S    
C66   C73   A    
C1    C69   A    
C65   C74   A    
C62   C69   A    
C65   N13   A    
C63   F11   S    
C32   C34   S    
C3    C71   A    
C36   C75   S    
C79   H55   S    
C14   C38   S    
C37   C49   S    
C27   C41   S    
C51   H31   S    
C21   C39   S    
C59   H51   S    
C12   C54   S    
C2    N2    A    
C22   C40   S    
C82   N22   A    
C4    C72   A    
C57   H49   S    
C1    N1    A    
C42   H42   S    
N26   Ni5   S    
C9    C77   A    
C32   H28   S    
N7    N16   A    
C18   C34   S    
C86   H62   S    
C15   C39   S    
C11   C79   A    
C43   H43   S    
C16   C40   S    
C83   H59   S    
N5    N14   A    
C44   H24   S    
C45   F5    S    
C41   H21   S    
C23   H9    S    
C60   H52   S    
C19   C35   S    
C81   H57   S    
C47   C75   A    
C55   C57   D    
C18   H6    S    
N11   Ni6   S    
C49   H29   S    
N16   Ni8   S    
N9    Ni5   S    
C17   H5    S    
C14   C82   A    
C68   F16   S    
C52   H32   S    
C46   C74   A    
C10   C56   S    
N20   N31   A    
C86   N26   A    
N23   N28   A    
C30   H26   S    
C7    N31   A    
C29   H25   S    
C85   N25   A    
N21   Ni2   S    
C20   H68   S    
C62   N10   A    
C50   H30   S    
C65   F13   S    
C66   N14   A    
C14   C85   A    
C31   C51   S    
N5    Ni2   S    
C8    F20   S    
N24   Ni3   S    
C11   C53   S    
N1    N10   A    
C39   C43   S    
C48   N8    A    
C18   C22   S    
C30   C36   S    
C44   H44   S    
C85   H61   S    
C29   C35   S    
C6    N30   A    
C29   F1    S    
C22   H14   S    
C83   N23   A    
C67   N15   A    
C64   N12   A    
C78   H54   S    
C42   H22   S    
C47   N7    A    
C5    C10   A    
C32   F4    S    
C23   C37   S    
C87   N27   A    
C52   H36   S    
C4    N4    A    
N6    N13   A    
C60   C69   S    
C28   H20   S    
C8    C11   A    
C55   H47   S    
C5    F17   S    
C12   C80   A    
C28   C42   S    
C56   C58   D    
C61   N9    A    
C57   C72   S    
C30   C50   S    
C77   H53   S    
N22   N25   A    
N20   Ni4   S    
C59   C70   S    
C81   N21   A    
C20   C36   S    
C28   H40   S    
C33   C74   S    
C40   C44   S    
C63   C72   A    
C28   C36   S    
C2    H2    S    
C46   N6    A    
C61   F9    S    
C78   N18   A    
C47   F7    S    
N8    N15   A    
C87   H63   S    
C67   C76   A    
C24   H16   S    
C2    C70   A    
N4    Ni4   S    
C62   F10   S    
N6    Ni1   S    
C7    F19   S    
N18   Ni2   S    
N2    N9    A    
C25   C33   S    
C15   C88   A    
C4    H4    S    
C17   C21   S    
