data_mof_unit_28105.cif
_audit_creation_date              2012-12-10T17:46:23-0500
_audit_creation_method            fapswitch 2.2
_symmetry_space_group_name_H-M    P1
_symmetry_Int_Tables_number       1
_space_group_crystal_system       triclinic
_cell_length_a                    21.00932
_cell_length_b                    21.341515
_cell_length_c                    14.723811
_cell_angle_alpha                 90.906871
_cell_angle_beta                  129.016361
_cell_angle_gamma                 89.283343
_cell_volume                      5128.64791963

loop_
_atom_site_label
_atom_site_type_symbol
_atom_type_description
_atom_site_fract_x
_atom_site_fract_y
_atom_site_fract_z
_atom_type_partial_charge
C1    C     C_R   0.601733 0.912960 0.630125 0.808597
C2    C     C_R   0.396045 0.085328 0.366951 0.855796
C3    C     C_R   0.399926 0.911910 0.370928 0.833608
C4    C     C_R   0.606568 0.083197 0.637053 0.831242
C5    C     C_R   0.101728 0.412956 0.630119 0.808650
C6    C     C_R   0.896047 0.585329 0.366955 0.855789
C7    C     C_R   0.899925 0.411911 0.370928 0.833596
C8    C     C_R   0.106569 0.583197 0.637054 0.831268
C9    C     C_R   0.391435 0.714411 0.012906 -0.132957
C10   C     C_R   0.708300 0.196061 0.123149 -0.104123
C11   C     C_R   0.633874 0.741504 0.021555 -0.131136
C12   C     C_R   0.314375 0.211646 0.905273 -0.139348
C13   C     C_R   0.891433 0.214406 0.012916 -0.132989
C14   C     C_R   0.208323 0.696048 0.123168 -0.104121
C15   C     C_R   0.133864 0.241504 0.021555 -0.131124
C16   C     C_R   0.814423 0.711691 0.905345 -0.139361
C17   C     C_R   0.337881 0.947484 0.667263 -0.239573
C18   C     C_R   0.679786 0.008271 0.342174 -0.210238
C19   C     C_R   0.837878 0.447484 0.667260 -0.239566
C20   C     C_R   0.179780 0.508310 0.342168 -0.210409
C21   C     C_R   0.360720 0.970012 0.603714 0.011234
C22   C     C_R   0.648521 0.004913 0.401826 0.008752
C23   C     C_R   0.860717 0.470014 0.603712 0.011213
C24   C     C_R   0.148518 0.504942 0.401823 0.008797
C25   C     C_R   0.478680 0.016342 0.773593 0.615468
C26   C     C_R   0.513647 0.994919 0.221907 0.609775
C27   C     C_R   0.978684 0.516332 0.773599 0.615375
C28   C     C_R   0.013649 0.494911 0.221908 0.609767
C29   C     C_R   0.465130 0.986438 0.846206 -0.104872
C30   C     C_R   0.543783 0.987436 0.158254 -0.081501
C31   C     C_R   0.965133 0.486425 0.846209 -0.104899
C32   C     C_R   0.043787 0.487429 0.158257 -0.081465
C33   C     C_R   0.391842 0.952567 0.789601 -0.055738
C34   C     C_R   0.627731 0.000525 0.219867 -0.088043
C35   C     C_R   0.891839 0.452561 0.789599 -0.055718
C36   C     C_R   0.127734 0.500530 0.219866 -0.088075
C37   C     C_R   0.521156 0.988889 0.971727 -0.158987
C38   C     C_R   0.493201 0.972293 0.035179 -0.107322
C39   C     C_R   0.021163 0.488867 0.971731 -0.158964
C40   C     C_R   0.993206 0.472280 0.035182 -0.107312
C41   C     C_R   0.421035 0.934795 0.976893 0.451718
C42   C     C_R   0.606350 0.000651 0.036501 0.455635
C43   C     C_R   0.921034 0.434786 0.976893 0.451710
C44   C     C_R   0.106361 0.500615 0.036505 0.455745
C45   C     C_R   0.373856 0.922436 0.855004 0.374448
C46   C     C_R   0.658770 0.005988 0.159016 0.416978
C47   C     C_R   0.873851 0.422431 0.855000 0.374449
C48   C     C_R   0.158782 0.505970 0.159020 0.416929
C49   C     C_R   0.679479 0.120010 0.729950 -0.129775
C50   C     C_R   0.351202 0.855350 0.308480 -0.118119
C51   C     C_R   0.330633 0.129412 0.283981 -0.132599
C52   C     C_R   0.656058 0.859844 0.698112 -0.115560
C53   C     C_R   0.179482 0.620008 0.729952 -0.129762
C54   C     C_R   0.851198 0.355353 0.308477 -0.118114
C55   C     C_R   0.830641 0.629418 0.283994 -0.132597
C56   C     C_R   0.156041 0.359830 0.698088 -0.115533
C57   C     C_R   0.818449 0.156389 0.826457 0.353348
C58   C     C_R   0.248615 0.780560 0.263304 0.387024
C59   C     C_R   0.201761 0.181740 0.201361 0.386001
C60   C     C_R   0.765701 0.788722 0.753181 0.384024
C61   C     C_R   0.318452 0.656387 0.826454 0.353358
C62   C     C_R   0.748598 0.280571 0.263289 0.387022
C63   C     C_R   0.701764 0.681737 0.201355 0.386019
C64   C     C_R   0.265680 0.288696 0.753146 0.384016
C65   C     C_R   0.746910 0.126380 0.732241 -0.202450
C66   C     C_R   0.294374 0.834407 0.321249 -0.206208
C67   C     C_R   0.266925 0.143974 0.287109 -0.192851
C68   C     C_R   0.714035 0.838750 0.686756 -0.201431
C69   C     C_R   0.246912 0.626377 0.732241 -0.202435
C70   C     C_R   0.794363 0.334416 0.321239 -0.206206
C71   C     C_R   0.766926 0.643971 0.287105 -0.192844
C72   C     C_R   0.214025 0.338736 0.686740 -0.201437
C73   C     C_R   0.685400 0.143023 0.824003 -0.203921
C74   C     C_R   0.364821 0.820308 0.241020 -0.257136
C75   C     C_R   0.329349 0.153496 0.195457 -0.196108
C76   C     C_R   0.648139 0.829325 0.773485 -0.261367
C77   C     C_R   0.185406 0.643023 0.824005 -0.203891
C78   C     C_R   0.864818 0.320308 0.241022 -0.257143
C79   C     C_R   0.829371 0.653516 0.195494 -0.196127
C80   C     C_R   0.148103 0.329297 0.773431 -0.261345
C81   C     C_R   0.757651 0.170193 0.922512 0.037265
C82   C     C_R   0.318123 0.766645 0.178674 0.036659
C83   C     C_R   0.262305 0.188120 0.103527 0.034225
C84   C     C_R   0.700176 0.779763 0.843892 0.047300
C85   C     C_R   0.257659 0.670192 0.922514 0.037269
C86   C     C_R   0.818114 0.266647 0.178671 0.036662
C87   C     C_R   0.762331 0.688141 0.103562 0.034226
C88   C     C_R   0.200143 0.279736 0.843845 0.047293
C89   C     C_R   0.823452 0.180103 0.921054 0.041734
C90   C     C_R   0.258182 0.747402 0.188893 0.055169
C91   C     C_R   0.198744 0.203945 0.108715 0.061784
C92   C     C_R   0.760432 0.759753 0.833941 0.056235
C93   C     C_R   0.323456 0.680104 0.921051 0.041741
C94   C     C_R   0.758167 0.247410 0.188881 0.055177
C95   C     C_R   0.698757 0.703952 0.108726 0.061775
C96   C     C_R   0.260399 0.259721 0.833891 0.056230
C97   C     C_R   0.763546 0.190998 0.019425 0.071335
C98   C     C_R   0.325288 0.734151 0.100150 0.059964
C99   C     C_R   0.258386 0.208760 0.008648 0.090231
C100  C     C_R   0.696321 0.751766 0.927635 0.092814
C101  C     C_R   0.263557 0.690995 0.019430 0.071337
C102  C     C_R   0.825280 0.234150 0.100151 0.059969
C103  C     C_R   0.758423 0.708789 0.008698 0.090229
C104  C     C_R   0.196291 0.251745 0.927596 0.092830
C105  C     C_R   0.390994 0.743155 0.098302 -0.173738
C106  C     C_R   0.710189 0.169029 0.038775 -0.153382
C107  C     C_R   0.632933 0.765444 0.933671 -0.230622
C108  C     C_R   0.313847 0.186935 0.991215 -0.203007
C109  C     C_R   0.890991 0.243149 0.098312 -0.173736
C110  C     C_R   0.210210 0.669018 0.038793 -0.153356
C111  C     C_R   0.132917 0.265439 0.933660 -0.230626
C112  C     C_R   0.813899 0.686981 0.991291 -0.202988
Cu1   Cu    Cu3+1 0.526640 0.000000 0.436960 1.003784
Cu2   Cu    Cu3+1 0.473360 0.000000 0.563040 0.994934
Cu3   Cu    Cu3+1 0.026640 0.500000 0.436960 1.003786
Cu4   Cu    Cu3+1 0.973360 0.500000 0.563040 0.994944
H1    H     H_    0.443844 0.721884 0.016624 0.219854
H2    H     H_    0.664991 0.177796 0.132684 0.213944
H3    H     H_    0.583488 0.753635 0.021087 0.198407
H4    H     H_    0.359100 0.193490 0.897494 0.217653
H5    H     H_    0.943845 0.221876 0.016639 0.219864
H6    H     H_    0.165021 0.677778 0.132713 0.213952
H7    H     H_    0.083490 0.253649 0.021110 0.198394
H8    H     H_    0.859158 0.693545 0.897583 0.217655
H9    H     H_    0.409916 0.837209 0.234461 0.186144
H10   H     H_    0.631729 0.141990 0.817317 0.223906
H11   H     H_    0.601824 0.846424 0.777587 0.154519
H12   H     H_    0.382450 0.145363 0.201253 0.193056
H13   H     H_    0.909917 0.337204 0.234470 0.186142
H14   H     H_    0.131736 0.641994 0.817322 0.223904
H15   H     H_    0.101768 0.346383 0.777497 0.154492
H16   H     H_    0.882478 0.645389 0.201307 0.193027
H17   H     H_    0.284859 0.860172 0.375825 0.179032
H18   H     H_    0.744519 0.107553 0.661397 0.190416
H19   H     H_    0.719789 0.861419 0.626926 0.191286
H20   H     H_    0.267291 0.125660 0.355639 0.204197
H21   H     H_    0.784847 0.360184 0.375812 0.179033
H22   H     H_    0.244520 0.607548 0.661398 0.190404
H23   H     H_    0.219792 0.361412 0.626928 0.191284
H24   H     H_    0.767283 0.625646 0.355619 0.204187
H25   H     H_    0.444023 0.770703 0.164063 0.190277
H26   H     H_    0.671167 0.129333 0.991424 0.230980
H27   H     H_    0.580029 0.793365 0.869950 0.145456
H28   H     H_    0.356881 0.149481 0.041190 0.189956
H29   H     H_    0.944023 0.270693 0.164078 0.190281
H30   H     H_    0.171199 0.629316 0.991451 0.230963
H31   H     H_    0.080022 0.293373 0.869962 0.145436
H32   H     H_    0.856948 0.649538 0.041284 0.189931
H33   H     H_    0.689480 0.009095 0.496127 0.148959
H34   H     H_    0.320396 0.961898 0.510511 0.157650
H35   H     H_    0.189474 0.509141 0.496121 0.148966
H36   H     H_    0.820393 0.461905 0.510508 0.157653
H37   H     H_    0.279777 0.923476 0.620600 0.205722
H38   H     H_    0.744767 0.016435 0.392427 0.197415
H39   H     H_    0.779770 0.423479 0.620593 0.205726
H40   H     H_    0.244754 0.516504 0.392419 0.197477
N1    N     N_R   0.433280 0.000000 0.657760 -0.215918
N2    N     N_R   0.566720 1.000000 0.342240 -0.216604
N3    N     N_R   0.933280 0.500000 0.657760 -0.215916
N4    N     N_R   0.066720 0.500000 0.342240 -0.216607
O1    O     O_R   0.600040 0.935040 0.546740 -0.592637
O2    O     O_R   0.399960 0.064960 0.453260 -0.572272
O3    O     O_R   0.399960 0.935040 0.453260 -0.612585
O4    O     O_R   0.600040 0.064960 0.546740 -0.594872
O5    O     O_R   0.100040 0.435040 0.546740 -0.592636
O6    O     O_R   0.899960 0.564960 0.453260 -0.572284
O7    O     O_R   0.899960 0.435040 0.453260 -0.612594
O8    O     O_R   0.100040 0.564960 0.546740 -0.594894
O9    O     O_R   0.555010 0.935070 0.653220 -0.593213
O10   O     O_R   0.444990 0.064930 0.346780 -0.528999
O11   O     O_R   0.444990 0.935070 0.346780 -0.544154
O12   O     O_R   0.555010 0.064930 0.653220 -0.528019
O13   O     O_R   0.055010 0.435070 0.653220 -0.593207
O14   O     O_R   0.944990 0.564930 0.346780 -0.528999
O15   O     O_R   0.944990 0.435070 0.346780 -0.544157
O16   O     O_R   0.055010 0.564930 0.653220 -0.527980
O17   O     O_3   0.408511 0.900655 0.044608 -0.595922
C113  C     C_3   0.324772 0.897575 0.994765 -0.121377
H41   H     H_    0.298646 0.851602 0.950583 0.185852
H42   H     H_    0.286842 0.936786 0.934191 0.190464
H43   H     H_    0.320287 0.900776 0.065641 0.185429
O18   O     O_3   0.641678 0.002683 0.982881 -0.546403
C114  C     C_3   0.651045 0.940842 0.957197 -0.289109
H44   H     H_    0.590956 0.920127 0.884952 0.142125
H45   H     H_    0.682554 0.909675 0.034363 0.137406
H46   H     H_    0.688778 0.942174 0.928519 0.205816
O19   O     O_3   0.908508 0.400647 0.044607 -0.595931
C115  C     C_3   0.824769 0.397569 0.994765 -0.121367
H47   H     H_    0.798641 0.351597 0.950580 0.185845
H48   H     H_    0.786840 0.436781 0.934193 0.190481
H49   H     H_    0.820285 0.400769 0.065641 0.185429
O20   O     O_3   0.141698 0.502598 0.982896 -0.546334
C116  C     C_3   0.150944 0.440743 0.957109 -0.289350
H50   H     H_    0.090842 0.420190 0.884542 0.142437
H51   H     H_    0.182102 0.409469 0.034085 0.137121
H52   H     H_    0.188938 0.441997 0.928860 0.205842
Cl1   Cl    Cl    0.400080 0.662880 0.822043 -0.640074
Cl2   Cl    Cl    0.677733 0.258092 0.283462 -0.606646
Cl3   Cl    Cl    0.625026 0.699161 0.213385 -0.628286
Cl4   Cl    Cl    0.337566 0.265348 0.734206 -0.561941
Cl5   Cl    Cl    0.900079 0.162884 0.822049 -0.640089
Cl6   Cl    Cl    0.177757 0.758073 0.283488 -0.606663
Cl7   Cl    Cl    0.125034 0.199178 0.213416 -0.628286
Cl8   Cl    Cl    0.837581 0.765378 0.734237 -0.561995
O21   O     O_3   0.309478 0.880453 0.799136 -0.603640
C117  C     C_3   0.337943 0.821681 0.792761 -0.254218
H53   H     H_    0.393432 0.806235 0.880034 0.174191
H54   H     H_    0.351165 0.822447 0.730608 0.184973
H55   H     H_    0.289088 0.786640 0.759730 0.208911
O22   O     O_3   0.739412 0.023613 0.217908 -0.550090
C118  C     C_3   0.790347 0.969965 0.260552 -0.263511
H56   H     H_    0.766560 0.929441 0.278183 0.136370
H57   H     H_    0.850640 0.982646 0.344378 0.197508
H58   H     H_    0.801233 0.955523 0.198646 0.192354
O23   O     O_3   0.809460 0.380458 0.799123 -0.603638
C119  C     C_3   0.837910 0.321679 0.792741 -0.254218
H59   H     H_    0.893387 0.306222 0.880019 0.174215
H60   H     H_    0.851150 0.322441 0.730606 0.184969
H61   H     H_    0.789038 0.286648 0.759682 0.208905
O24   O     O_3   0.239414 0.523622 0.217898 -0.550059
C120  C     C_3   0.290368 0.469988 0.260626 -0.263647
H62   H     H_    0.266964 0.429724 0.279394 0.136723
H63   H     H_    0.350900 0.482857 0.343837 0.197813
H64   H     H_    0.300643 0.455127 0.198254 0.191996
Cl9   Cl    Cl    0.410455 0.016133 0.145839 -0.653346
Cl10  Cl    Cl    0.519127 0.091914 0.813538 -0.601366
Cl11  Cl    Cl    0.910456 0.516126 0.145838 -0.653283
Cl12  Cl    Cl    0.019177 0.591889 0.813588 -0.601433

loop_
_geom_bond_atom_site_label_1
_geom_bond_atom_site_label_2
_ccdc_geom_bond_type
Cu2   O9    S    
C23   H36   S    
C88   C96   A    
C82   C90   A    
C14   H6    S    
C29   C33   A    
C33   C45   A    
C5    C56   S    
C19   C23   A    
C119  H61   S    
C6    C55   S    
C114  H44   S    
C53   C69   A    
C76   C84   A    
C6    O6    A    
C113  H41   S    
Cu1   O11   S    
O21   C117  S    
C42   O18   S    
Cu2   O12   S    
C99   C108  A    
C30   C38   A    
C37   C38   A    
C98   C105  A    
C57   C89   A    
Cu4   O13   S    
C115  H49   S    
C32   C36   A    
C41   O17   S    
C78   H13   S    
C51   C75   A    
C120  H64   S    
C114  H45   S    
C105  H25   S    
Cu3   O8    S    
C117  H54   S    
C27   Cl12  S    
Cu2   O2    S    
C74   H9    S    
C29   C37   A    
C10   C94   A    
C26   Cl9   S    
C27   N3    A    
C73   H10   S    
C63   C95   A    
C25   Cl10  S    
C28   N4    A    
C13   H5    S    
C62   C70   A    
C115  H48   S    
C75   H12   S    
C42   C46   A    
C37   C42   A    
O18   C114  S    
C14   C90   A    
C13   C109  A    
C8    O8    A    
C59   C67   A    
C12   H4    S    
C85   C93   A    
C58   C66   A    
C40   C43   A    
C8    O16   A    
C20   C24   A    
C63   Cl3   S    
C56   C72   A    
C21   N1    A    
C7    O15   A    
Cu3   O15   S    
C4    O4    A    
Cu4   O7    S    
C36   C48   A    
C34   C46   A    
C5    O5    A    
Cu1   N2    S    
Cu3   O5    S    
C86   C94   A    
C65   H18   S    
C18   H38   S    
C3    O3    A    
C81   C89   A    
C78   C86   A    
C60   C92   A    
C99   C104  A    
C22   H33   S    
C1    O1    A    
C80   H15   S    
C83   C99   A    
C79   C87   A    
C82   C98   A    
Cu4   O6    S    
C15   H7    S    
C17   C33   A    
C74   C82   A    
C28   Cl11  S    
C73   C81   A    
O24   C120  S    
C88   C104  A    
C3    C50   S    
C3    O11   A    
C106  H26   S    
C72   H23   S    
C25   C29   A    
C30   C34   A    
C4    O12   A    
C27   C31   A    
C84   C100  A    
C15   C111  A    
C28   C32   A    
C119  H59   S    
C62   Cl2   S    
C38   C41   A    
C11   H3    S    
C114  H46   S    
C61   Cl1   S    
C39   C40   A    
C12   C108  A    
Cu4   O16   S    
C117  H53   S    
C51   C67   A    
C6    O14   A    
C116  H51   S    
C17   H37   S    
C46   O22   S    
Cu1   O1    S    
C100  C103  A    
C17   C21   A    
C112  H32   S    
C23   N3    A    
C103  C112  A    
C116  H50   S    
C53   C77   A    
O23   C119  S    
C115  H47   S    
Cu2   N1    S    
C120  H62   S    
C10   H2    S    
C24   H35   S    
C111  H31   S    
C66   H17   S    
C55   C79   A    
C118  H56   S    
C54   C70   A    
C43   O19   S    
C116  H52   S    
C57   C65   A    
C50   C66   A    
C24   N4    A    
C59   C91   A    
C21   H34   S    
C18   C34   A    
C50   C74   A    
C64   C96   A    
C63   C71   A    
C49   C65   A    
Cu4   N3    S    
C87   C103  A    
C97   C106  A    
C118  H57   S    
C2    O10   A    
O17   C113  S    
C64   Cl4   S    
C11   C107  A    
C19   H39   S    
C49   C73   A    
C10   C106  A    
C39   C44   A    
C107  H27   S    
C83   C91   A    
C86   C102  A    
C9    C93   A    
C108  H28   S    
C32   C40   A    
C85   C101  A    
C16   C112  A    
Cu1   Cu2   S    
C48   O24   S    
C11   C95   A    
C69   H22   S    
C14   C110  A    
C7    O7    A    
C87   C95   A    
C100  C107  A    
C45   O21   S    
C20   H40   S    
C13   C89   A    
C18   C22   A    
C5    O13   A    
C68   H19   S    
C109  H29   S    
C97   C102  A    
C119  H60   S    
C43   C47   A    
C52   C76   A    
C52   C68   A    
C8    C53   S    
C104  C111  A    
C113  H42   S    
C47   O23   S    
C16   C92   A    
C71   H24   S    
Cu3   O14   S    
C98   C101  A    
C22   N2    A    
Cu3   N4    S    
C56   C80   A    
C4    C49   S    
C58   C90   A    
C61   C69   A    
O20   C116  S    
C62   C94   A    
C67   H20   S    
C101  C110  A    
O19   C115  S    
C120  H63   S    
C19   C35   A    
C44   O20   S    
Cu1   O4    S    
C25   N1    A    
C117  H55   S    
C75   C83   A    
Cu2   O3    S    
C81   C97   A    
C77   C85   A    
C79   H16   S    
C31   C35   A    
C1    O9    A    
C31   C39   A    
C26   N2    A    
Cu1   O10   S    
C77   H14   S    
C64   C72   A    
C16   H8    S    
C1    C52   S    
C113  H43   S    
C60   Cl8   S    
C2    C51   S    
C15   C91   A    
C20   C36   A    
C59   Cl7   S    
C118  H58   S    
C60   C68   A    
C70   H21   S    
C80   C88   A    
O22   C118  S    
C57   Cl5   S    
C76   H11   S    
C41   C45   A    
C12   C96   A    
C102  C109  A    
C84   C92   A    
C7    C54   S    
Cu3   Cu4   S    
C35   C47   A    
C110  H30   S    
C61   C93   A    
C9    C105  A    
C55   C71   A    
C9    H1    S    
C44   C48   A    
C58   Cl6   S    
C2    O2    A    
C54   C78   A    
C26   C30   A    
