data_mof_unit_13179.cif
_audit_creation_date              2012-12-11T14:17:28-0500
_audit_creation_method            fapswitch 2.2
_symmetry_space_group_name_H-M    P1
_symmetry_Int_Tables_number       1
_space_group_crystal_system       triclinic
_cell_length_a                    6.93516
_cell_length_b                    13.698498
_cell_length_c                    20.371465
_cell_angle_alpha                 102.039936
_cell_angle_beta                  91.282321
_cell_angle_gamma                 89.933706
_cell_volume                      1892.25674149

loop_
_atom_site_label
_atom_site_type_symbol
_atom_type_description
_atom_site_fract_x
_atom_site_fract_y
_atom_site_fract_z
_atom_type_partial_charge
O1    O     O_R   0.506860 0.599390 0.449240 -0.538975
O2    O     O_R   0.180220 0.594600 0.586780 -0.542957
O3    O     O_R   0.004500 0.400610 0.550760 -0.539748
C1    C     C_R   0.350318 0.615052 0.613761 0.754626
O4    O     O_R   0.177490 0.611290 0.451970 -0.541614
O5    O     O_R   0.001750 0.417420 0.414990 -0.539117
C2    C     C_R   0.344931 0.638139 0.435399 0.698091
O6    O     O_R   0.509610 0.582580 0.585010 -0.543574
O7    O     O_3   0.337420 0.436370 0.488020 -0.374010
V1    V     V_3+5 0.064680 0.511800 0.502220 1.417063
O8    O     O_R   0.671710 0.405400 0.413220 -0.547148
C3    C     C_R   0.838951 0.384005 0.386485 0.741090
O9    O     O_R   0.674440 0.388710 0.548030 -0.543243
C4    C     C_R   0.845665 0.362068 0.564841 0.696232
V2    V     V_3+5 0.564010 0.488200 0.497780 1.409124
O10   O     O_3   0.841140 0.563630 0.511980 -0.371758
C5    C     C_R   0.064628 0.148598 0.626141 -0.166669
H1    H     H_    0.041167 0.190711 0.530994 0.108833
H2    H     H_    0.208017 0.060242 0.719959 0.123958
H3    H     H_    0.163439 0.088379 0.607348 0.110023
C6    C     C_R   0.869648 0.285962 0.605308 -0.044144
C7    C     C_R   0.722659 0.296500 0.922286 -0.153083
C8    C     C_R   0.661353 0.362910 0.883250 -0.122108
C9    C     C_R   0.715012 0.349471 0.816564 -0.157137
C10   C     C_R   0.839057 0.270668 0.787901 0.078375
C11   C     C_R   0.915193 0.208048 0.830185 0.058775
C12   C     C_R   0.886974 0.250573 0.718461 0.067991
C13   C     C_R   0.016966 0.171622 0.694063 0.145736
C14   C     C_R   0.102680 0.117636 0.737796 -0.198239
C15   C     C_R   0.052645 0.135361 0.804701 -0.219873
C16   C     C_R   0.813000 0.306665 0.672352 -0.223448
C17   C     C_R   0.992688 0.205759 0.582324 -0.162564
C18   C     C_R   0.847053 0.217919 0.896425 -0.091458
H4    H     H_    0.721219 0.370503 0.687614 0.102814
H5    H     H_    0.668400 0.304794 0.972631 0.109321
H6    H     H_    0.656299 0.401983 0.788906 0.107030
H7    H     H_    0.565215 0.423222 0.904105 0.116900
H8    H     H_    0.122683 0.090811 0.835967 0.140215
C19   C     C_2   0.004615 0.288503 0.286038 -0.131702
C20   C     C_2   0.840720 0.315629 0.319676 -0.311912
H9    H     H_    0.141752 0.316906 0.308991 0.134570
H10   H     H_    0.701931 0.287698 0.298541 0.126067
C21   C     C_2   0.014638 0.220473 0.218508 -0.138062
C22   C     C_2   0.859953 0.183350 0.180264 -0.305804
H11   H     H_    0.157975 0.201109 0.199670 0.130645
H12   H     H_    0.715541 0.201984 0.197716 0.127820
C23   C     C_2   0.198084 0.793662 0.776672 0.111288
C24   C     C_2   0.351286 0.811938 0.820712 -0.364669
H13   H     H_    0.480121 0.767004 0.809201 0.125151
C25   C     C_2   0.206875 0.709187 0.717254 -0.145478
C26   C     C_2   0.363435 0.686300 0.679124 -0.356093
H14   H     H_    0.072666 0.669809 0.701057 0.137601
H15   H     H_    0.499918 0.724062 0.693832 0.137276
C27   C     C_R   0.318506 0.887538 0.387172 -0.157826
H16   H     H_    0.311906 0.837227 0.480010 0.102166
H17   H     H_    0.306250 0.011974 0.303563 0.123546
H18   H     H_    0.301160 0.965044 0.411920 0.110385
C28   C     C_R   0.348818 0.715003 0.395431 -0.030991
C29   C     C_R   0.383609 0.685574 0.071605 -0.165520
C30   C     C_R   0.389612 0.609918 0.107555 -0.117378
C31   C     C_R   0.378912 0.632331 0.177299 -0.155909
C32   C     C_R   0.361190 0.732275 0.213194 0.077333
C33   C     C_R   0.351900 0.809429 0.175814 0.066625
C34   C     C_R   0.352599 0.758235 0.284776 0.071977
C35   C     C_R   0.331373 0.860178 0.317043 0.142463
C36   C     C_R   0.322034 0.934158 0.279244 -0.203647
C37   C     C_R   0.332855 0.909443 0.209837 -0.196029
C38   C     C_R   0.363391 0.686639 0.325709 -0.214143
C39   C     C_R   0.325372 0.815193 0.426055 -0.173481
C40   C     C_R   0.364132 0.784955 0.104937 -0.075787
H19   H     H_    0.379795 0.608049 0.305217 0.093976
H20   H     H_    0.394691 0.666617 0.017449 0.101501
H21   H     H_    0.384933 0.569495 0.201377 0.106237
H22   H     H_    0.403959 0.533089 0.081171 0.115660
H23   H     H_    0.325528 0.969821 0.183028 0.119965
O11   O     O_R   0.203230 0.917310 0.915020 -0.544722
O12   O     O_R   0.535500 0.888690 0.048040 -0.539926
O13   O     O_R   0.711080 0.082610 0.085000 -0.543254
C41   C     C_R   0.368158 0.862197 0.064928 0.693534
O14   O     O_R   0.532630 0.905370 0.913230 -0.541747
O15   O     O_R   0.708190 0.099410 0.949230 -0.537252
C42   C     C_R   0.361836 0.885125 0.885887 0.733218
O16   O     O_R   0.206120 0.900510 0.050790 -0.537923
O17   O     O_3   0.375360 0.063570 0.011990 -0.373747
V3    V     V_3+5 0.648170 0.988200 0.997780 1.416683
O18   O     O_R   0.038240 0.111390 0.951940 -0.548436
C43   C     C_R   0.867650 0.137619 0.934489 0.682012
O19   O     O_R   0.041120 0.094710 0.086750 -0.542645
C44   C     C_R   0.873364 0.115711 0.113556 0.746229
V4    V     V_3+5 0.148810 0.011930 0.002180 1.404680
O20   O     O_3   0.871750 0.936430 0.988010 -0.369811
C45   C     C_3   0.007864 0.850788 0.786638 -0.310404
C46   C     C_3   0.916341 0.867823 0.720224 -0.335339
C47   C     C_3   0.734714 0.931712 0.731962 -0.762231
H24   H     H_    0.763832 0.003501 0.767308 0.237913
H25   H     H_    0.680439 0.947488 0.683555 0.219029
H26   H     H_    0.620960 0.891633 0.752989 0.225081
H27   H     H_    0.022336 0.905075 0.693455 0.202376
H28   H     H_    0.874473 0.795680 0.687012 0.190645
H29   H     H_    0.905315 0.808540 0.811446 0.167006
H30   H     H_    0.029306 0.925546 0.818738 0.185884

loop_
_geom_bond_atom_site_label_1
_geom_bond_atom_site_label_2
_ccdc_geom_bond_type
C46   C47   S    
C23   C45   S    
C1    O6    A    
V3    O20   S    
C19   H9    S    
C27   C35   A    
C7    H5    S    
C6    C16   A    
C14   C15   A    
C34   C38   A    
C4    C6    S    
C13   C14   A    
O5    C3    A    
V2    O10   S    
C5    H3    S    
C15   H8    S    
O16   V4    S    
C32   C34   A    
O8    V2    S    
C25   H14   S    
C8    C9    A    
O1    V2    S    
O7    V1    S    
C46   H28   S    
C2    C28   S    
C29   H20   S    
C20   H10   S    
C36   C37   A    
O12   V3    S    
C29   C30   A    
O9    C4    A    
C47   H24   S    
O17   V4    S    
C22   H12   S    
C23   C25   S    
O12   C41   A    
O13   C44   A    
C6    C17   A    
C33   C37   A    
C1    C26   S    
C12   C16   A    
C9    C10   A    
O14   C42   A    
O18   V4    S    
O11   C42   A    
C19   C20   D    
O4    C2    A    
O18   C43   A    
C19   C21   S    
C47   H26   S    
C31   H21   S    
C10   C11   A    
C8    H7    S    
C30   C31   A    
C26   H15   S    
C3    C20   S    
O2    C1    A    
C21   C22   D    
O14   V3    S    
C11   C18   A    
C23   C24   D    
C33   C40   A    
C32   C33   A    
C25   C26   D    
C16   H4    S    
C9    H6    S    
O17   V3    S    
C47   H25   S    
C21   H11   S    
O15   C43   A    
O3    C4    A    
C45   H30   S    
O13   V3    S    
C28   C38   A    
C24   H13   S    
O19   V4    S    
C11   C15   A    
O6    V2    S    
O9    V2    S    
C37   H23   S    
O2    V1    S    
C45   H29   S    
C7    C18   A    
C40   C41   S    
O1    C2    A    
C5    C13   A    
O5    V1    S    
O8    C3    A    
C28   C39   A    
C10   C12   A    
C34   C35   A    
H16   C39   S    
O7    V2    S    
O4    V1    S    
O3    V1    S    
V1    O10   S    
C41   O16   A    
V4    O20   S    
C27   C39   A    
C38   H19   S    
H17   C36   S    
C30   H22   S    
C45   C46   S    
C24   C42   S    
C18   C43   S    
C31   C32   A    
C29   C40   A    
H1    C17   S    
O19   C44   A    
C35   C36   A    
C12   C13   A    
C5    C17   A    
C7    C8    A    
C46   H27   S    
O15   V3    S    
C22   C44   S    
O11   V4    S    
C27   H18   S    
H2    C14   S    
