data_mof_unit_8842.cif
_audit_creation_date              2012-12-10T17:27:47-0500
_audit_creation_method            fapswitch 2.2
_symmetry_space_group_name_H-M    P1
_symmetry_Int_Tables_number       1
_space_group_crystal_system       triclinic
_cell_length_a                    18.312764
_cell_length_b                    18.306149
_cell_length_c                    42.921318
_cell_angle_alpha                 90.007964
_cell_angle_beta                  89.982159
_cell_angle_gamma                 90.047212
_cell_volume                      14388.77324

loop_
_atom_site_label
_atom_site_type_symbol
_atom_type_description
_atom_site_fract_x
_atom_site_fract_y
_atom_site_fract_z
_atom_type_partial_charge
C1    C     C_R   0.050458 0.545190 0.885309 -0.010141
C2    C     C_R   0.431612 0.997752 0.615145 -0.008134
C3    C     C_R   0.639895 0.860161 0.749975 0.484346
C4    C     C_R   0.139852 0.639863 0.250004 0.477856
C5    C     C_R   0.860097 0.360109 0.750006 0.476519
C6    C     C_R   0.639959 0.860124 0.250019 0.481153
C7    C     C_R   0.360060 0.139803 0.749958 0.484065
C8    C     C_R   0.501619 0.000235 0.531514 0.317004
C9    C     C_R   0.502341 0.003875 0.468486 0.318065
C10   C     C_R   0.997157 0.502002 0.531390 0.319528
C11   C     C_R   0.995037 0.502341 0.468502 0.320770
C12   C     C_R   0.999818 0.499893 0.031551 0.319919
C13   C     C_R   0.960931 0.444045 0.384869 -0.012306
C14   C     C_R   0.999823 0.499933 0.968669 0.319726
C15   C     C_R   0.500023 0.000049 0.031589 0.321226
C16   C     C_R   0.500011 0.000068 0.968540 0.320212
C17   C     C_R   0.999930 0.500008 0.868839 0.035411
C18   C     C_R   0.999939 0.499984 0.131394 0.028563
C19   C     C_R   0.499975 0.000018 0.868446 0.040244
C20   C     C_R   0.500033 0.000013 0.131482 0.040701
C21   C     C_R   0.500269 0.000645 0.368551 0.041417
C22   C     C_R   0.498997 0.998990 0.631535 0.042362
C23   C     C_R   0.999574 0.499906 0.368649 0.027435
C24   C     C_R   0.045295 0.550653 0.614670 -0.010808
C25   C     C_R   0.999919 0.500336 0.631186 0.035577
C26   C     C_R   0.288983 0.603581 0.764295 -0.100965
C27   C     C_R   0.731375 0.376710 0.212864 -0.108618
C28   C     C_R   0.375658 0.267645 0.787881 -0.096108
C29   C     C_R   0.604763 0.712028 0.233424 -0.097878
C30   C     C_R   0.710872 0.396508 0.764115 -0.100968
C31   C     C_R   0.268104 0.623971 0.212359 -0.109107
C32   C     C_R   0.624294 0.732274 0.787860 -0.096152
C33   C     C_R   0.395268 0.288178 0.233493 -0.098073
C34   C     C_R   0.287202 0.394849 0.232325 -0.092380
C35   C     C_R   0.433368 0.993591 0.385007 -0.008802
C36   C     C_R   0.731765 0.624475 0.787887 -0.095029
C37   C     C_R   0.374616 0.732793 0.211545 -0.096982
C38   C     C_R   0.603613 0.289032 0.764245 -0.096375
C39   C     C_R   0.712635 0.605153 0.232380 -0.092509
C40   C     C_R   0.268258 0.375517 0.787927 -0.095013
C41   C     C_R   0.624702 0.268050 0.212046 -0.096977
C42   C     C_R   0.396299 0.711009 0.764422 -0.096396
C43   C     C_R   0.767985 0.124203 0.287791 -0.096781
C44   C     C_R   0.211640 0.896091 0.734829 -0.097016
C45   C     C_R   0.894816 0.787240 0.267649 -0.092358
C46   C     C_R   0.566684 0.997638 0.615530 -0.010141
C47   C     C_R   0.124406 0.231900 0.712118 -0.094772
C48   C     C_R   0.232800 0.874617 0.288567 -0.097158
C49   C     C_R   0.789036 0.103551 0.735778 -0.096856
C50   C     C_R   0.105121 0.212375 0.267388 -0.092512
C51   C     C_R   0.875648 0.768304 0.712114 -0.094903
C52   C     C_R   0.767815 0.875757 0.712074 -0.096236
C53   C     C_R   0.212121 0.104622 0.266518 -0.098399
C54   C     C_R   0.896427 0.210900 0.735792 -0.100805
C55   C     C_R   0.124178 0.767871 0.287839 -0.108906
C56   C     C_R   0.232147 0.124348 0.712030 -0.096124
C57   C     C_R   0.035794 0.556880 0.385072 -0.013834
C58   C     C_R   0.788210 0.895363 0.266391 -0.098576
C59   C     C_R   0.103767 0.789180 0.735610 -0.101222
C60   C     C_R   0.877670 0.229789 0.286413 -0.109845
C61   C     C_R   0.360935 0.585409 0.771305 -0.126823
C62   C     C_R   0.670073 0.384274 0.193939 -0.133331
C63   C     C_R   0.383730 0.329456 0.806500 -0.130630
C64   C     C_R   0.587224 0.640673 0.225024 -0.127807
C65   C     C_R   0.638864 0.414692 0.771032 -0.126847
C66   C     C_R   0.329168 0.616747 0.193254 -0.133370
C67   C     C_R   0.616237 0.670453 0.806468 -0.130615
C68   C     C_R   0.953943 0.450477 0.614779 -0.010802
C69   C     C_R   0.412705 0.359549 0.225069 -0.127819
C70   C     C_R   0.358772 0.412707 0.224405 -0.124455
C71   C     C_R   0.669789 0.616731 0.806480 -0.128228
C72   C     C_R   0.382236 0.671022 0.192819 -0.132282
C73   C     C_R   0.585357 0.361057 0.771121 -0.125812
C74   C     C_R   0.641051 0.587403 0.224444 -0.124375
C75   C     C_R   0.330208 0.383210 0.806525 -0.128138
C76   C     C_R   0.616915 0.330091 0.193508 -0.132163
C77   C     C_R   0.414468 0.639021 0.771395 -0.126056
C78   C     C_R   0.830303 0.115866 0.306085 -0.132967
C79   C     C_R   0.323576 0.730891 0.756771 0.010300
C80   C     C_R   0.139684 0.914402 0.727906 -0.125805
C81   C     C_R   0.912691 0.858858 0.275507 -0.124333
C82   C     C_R   0.116616 0.170013 0.693481 -0.127239
C83   C     C_R   0.171105 0.882121 0.307341 -0.132002
C84   C     C_R   0.861025 0.085311 0.728865 -0.125762
C85   C     C_R   0.087388 0.140701 0.275231 -0.124138
C86   C     C_R   0.883417 0.830255 0.693503 -0.127995
C87   C     C_R   0.829667 0.883808 0.693481 -0.130427
C88   C     C_R   0.140725 0.086944 0.274757 -0.127803
C89   C     C_R   0.914611 0.138868 0.728882 -0.126603
C90   C     C_R   0.686856 0.258817 0.231268 0.014400
C91   C     C_R   0.116939 0.828935 0.306951 -0.132939
C92   C     C_R   0.170310 0.116440 0.693427 -0.129294
C93   C     C_R   0.859575 0.912826 0.274778 -0.127763
C94   C     C_R   0.085843 0.861097 0.728359 -0.126547
C95   C     C_R   0.885058 0.168415 0.305333 -0.134444
C96   C     C_R   0.999843 0.499972 0.934442 0.026993
C97   C     C_R   0.999859 0.499917 0.065808 0.024408
C98   C     C_R   0.500000 0.000053 0.934096 0.022779
C99   C     C_R   0.500030 0.000036 0.065952 0.023724
C100  C     C_R   0.500915 0.005177 0.434099 0.023452
C101  C     C_R   0.258729 0.313075 0.768843 0.013465
C102  C     C_R   0.500303 0.998375 0.565918 0.024585
C103  C     C_R   0.994382 0.502756 0.434211 0.028126
C104  C     C_R   0.998103 0.501622 0.565595 0.028932
C105  C     C_3   0.109966 0.587477 0.867631 -0.244994
C106  C     C_3   0.167108 0.536347 0.853054 -0.298350
C107  C     C_3   0.230792 0.579934 0.839581 -0.460244
C108  C     C_3   0.884079 0.421445 0.132927 -0.240512
C109  C     C_3   0.903906 0.339963 0.135001 -0.284470
C110  C     C_3   0.846293 0.297014 0.152980 -0.437499
C111  C     C_3   0.507238 0.861265 0.866263 -0.253740
C112  C     C_R   0.942812 0.463767 0.115061 -0.013126
C113  C     C_R   0.731648 0.677092 0.241671 0.009901
C114  C     C_3   0.429605 0.833700 0.859629 -0.298952
C115  C     C_3   0.430984 0.759550 0.843435 -0.457425
C116  C     C_3   0.515751 0.138124 0.133347 -0.254904
C117  C     C_3   0.438317 0.163531 0.142003 -0.299639
C118  C     C_3   0.438966 0.240265 0.155794 -0.462018
C119  C     C_3   0.889881 0.412549 0.867579 -0.244963
C120  C     C_3   0.832810 0.463680 0.852973 -0.298323
C121  C     C_3   0.769287 0.420078 0.839382 -0.460179
C122  C     C_3   0.115662 0.578731 0.132820 -0.240528
C123  C     C_3   0.095619 0.660171 0.134837 -0.284489
C124  C     C_R   0.676403 0.269126 0.756692 0.009976
C125  C     C_3   0.153027 0.703350 0.152825 -0.437520
C126  C     C_3   0.492732 0.138770 0.866254 -0.253741
C127  C     C_3   0.570367 0.166307 0.859581 -0.298963
C128  C     C_3   0.568991 0.240354 0.843310 -0.457394
C129  C     C_3   0.484365 0.861896 0.133317 -0.254929
C130  C     C_3   0.561816 0.836529 0.141943 -0.299670
C131  C     C_3   0.561220 0.759785 0.155715 -0.462087
C132  C     C_3   0.638814 0.011823 0.366129 -0.255106
C133  C     C_3   0.661932 0.933916 0.357028 -0.299904
C134  C     C_3   0.739493 0.932588 0.344104 -0.462308
C135  C     C_R   0.312787 0.741594 0.231015 0.014539
C136  C     C_3   0.359953 0.998089 0.633673 -0.252071
C137  C     C_3   0.341684 0.922646 0.647616 -0.297706
C138  C     C_3   0.260705 0.916048 0.655638 -0.469069
C139  C     C_3   0.923289 0.382728 0.366557 -0.234649
C140  C     C_3   0.840319 0.395019 0.364955 -0.288153
C141  C     C_3   0.802640 0.337029 0.345211 -0.441315
C142  C     C_3   0.088544 0.609496 0.632312 -0.244767
C143  C     C_3   0.038206 0.667251 0.646965 -0.298180
C144  C     C_3   0.082452 0.730802 0.660162 -0.460102
C145  C     C_3   0.361713 0.990599 0.366695 -0.252842
C146  C     C_R   0.741289 0.686936 0.768817 0.013521
C147  C     C_3   0.338058 0.067322 0.356081 -0.299493
C148  C     C_3   0.259560 0.067407 0.344252 -0.464228
C149  C     C_3   0.638016 0.997837 0.634103 -0.252780
C150  C     C_3   0.663703 0.076071 0.640895 -0.298277
C151  C     C_3   0.738420 0.076188 0.656603 -0.457359
C152  C     C_3   0.079663 0.614687 0.367299 -0.239926
C153  C     C_3   0.160657 0.593055 0.365189 -0.283899
C154  C     C_3   0.204805 0.649877 0.347262 -0.436868
C155  C     C_3   0.911756 0.390713 0.632386 -0.245790
C156  C     C_3   0.962888 0.333408 0.646839 -0.297620
C157  C     C_R   0.268292 0.322911 0.241659 0.010075
C158  C     C_3   0.919330 0.269682 0.660311 -0.459980
C159  C     C_3   0.090116 0.605373 0.936838 -0.244583
C160  C     C_3   0.167204 0.577538 0.944328 -0.299372
C161  C     C_3   0.212709 0.636670 0.960177 -0.465368
C162  C     C_3   0.876071 0.436182 0.063776 -0.245156
C163  C     C_3   0.815059 0.493384 0.061058 -0.288562
C164  C     C_3   0.750497 0.463944 0.042439 -0.460058
C165  C     C_3   0.513743 0.861325 0.935894 -0.246507
C166  C     C_3   0.594299 0.839568 0.939758 -0.286575
C167  C     C_3   0.601632 0.768111 0.957743 -0.457054
C168  C     C_R   0.322977 0.268643 0.241991 0.009623
C169  C     C_3   0.549281 0.130126 0.064147 -0.244205
C170  C     C_3   0.488854 0.184338 0.055391 -0.296981
C171  C     C_3   0.519484 0.247866 0.036425 -0.465684
C172  C     C_3   0.909536 0.394594 0.936787 -0.244597
C173  C     C_3   0.832449 0.422457 0.944280 -0.299334
C174  C     C_3   0.786891 0.363335 0.960115 -0.465322
C175  C     C_3   0.123644 0.563653 0.063678 -0.245132
C176  C     C_3   0.184682 0.506468 0.060988 -0.288564
C177  C     C_3   0.249236 0.535846 0.042333 -0.460099
C178  C     C_3   0.486275 0.138783 0.935891 -0.246515
C179  C     C_R   0.686799 0.741502 0.768804 0.014263
C180  C     C_3   0.405726 0.160557 0.939786 -0.286575
C181  C     C_3   0.398420 0.232032 0.957771 -0.457052
C182  C     C_3   0.450791 0.869942 0.064131 -0.244206
C183  C     C_3   0.511221 0.815742 0.055342 -0.297008
C184  C     C_3   0.480578 0.752194 0.036392 -0.465716
C185  C     C_3   0.633843 0.045731 0.435233 -0.244899
C186  C     C_3   0.685701 0.982987 0.443575 -0.296127
C187  C     C_3   0.753693 0.011556 0.460127 -0.466435
C188  C     C_3   0.361095 0.994837 0.563005 -0.240397
C189  C     C_3   0.328031 0.917645 0.562836 -0.296510
C190  C     C_R   0.258599 0.686706 0.231257 0.006639
C191  C     C_3   0.272102 0.908130 0.536789 -0.465018
C192  C     C_3   0.917679 0.386644 0.436748 -0.250597
C193  C     C_3   0.847612 0.416301 0.452078 -0.295258
C194  C     C_3   0.793612 0.354948 0.459280 -0.467182
C195  C     C_3   0.105167 0.589878 0.563001 -0.243408
C196  C     C_3   0.079407 0.668002 0.556005 -0.297966
C197  C     C_3   0.139944 0.712722 0.540710 -0.468718
C198  C     C_3   0.364981 0.976090 0.437049 -0.242042
C199  C     C_3   0.318248 0.045161 0.440957 -0.292880
C200  C     C_3   0.262287 0.036518 0.467036 -0.459267
C201  C     C_R   0.730862 0.323647 0.756653 0.005923
C202  C     C_3   0.639512 0.994128 0.564567 -0.247976
C203  C     C_3   0.664551 0.914770 0.559885 -0.290383
C204  C     C_3   0.739387 0.911475 0.544368 -0.459205
C205  C     C_3   0.064443 0.623135 0.436361 -0.243386
C206  C     C_3   0.009820 0.686530 0.439049 -0.287546
C207  C     C_3   0.041056 0.748982 0.458447 -0.458784
C208  C     C_3   0.890370 0.414041 0.563725 -0.245061
C209  C     C_3   0.914963 0.335893 0.555963 -0.295664
C210  C     C_3   0.849936 0.287681 0.547526 -0.464436
C211  C     C_R   0.677049 0.731448 0.241968 0.009717
C212  C     C_R   0.505427 0.932814 0.884664 -0.010343
C213  C     C_R   0.313177 0.258465 0.768823 0.014410
C214  C     C_R   0.741116 0.313630 0.231520 0.007139
C215  C     C_R   0.269085 0.676401 0.756738 0.005855
C216  C     C_R   0.814125 0.240324 0.268147 0.006162
C217  C     C_R   0.176533 0.769143 0.743131 0.005591
C218  C     C_R   0.768649 0.823008 0.257970 0.009128
C219  C     C_R   0.241420 0.186792 0.731133 0.014238
C220  C     C_R   0.186778 0.758524 0.268857 0.006834
C221  C     C_R   0.823615 0.230863 0.743312 0.005958
C222  C     C_R   0.231490 0.176965 0.257992 0.009286
C223  C     C_R   0.513006 0.066204 0.115214 -0.009162
C224  C     C_R   0.758572 0.813263 0.731143 0.014189
C225  C     C_R   0.813160 0.758786 0.731165 0.013499
C226  C     C_R   0.177095 0.231527 0.258231 0.009846
C227  C     C_R   0.769118 0.176379 0.743296 0.009743
C228  C     C_R   0.241608 0.812784 0.269082 0.014473
C229  C     C_R   0.186879 0.241319 0.731170 0.013782
C230  C     C_R   0.822908 0.768316 0.258317 0.009995
C231  C     C_R   0.231172 0.823491 0.742896 0.008841
C232  C     C_R   0.758955 0.186432 0.268563 0.015054
C233  C     C_R   0.304116 0.803974 0.749899 0.003693
C234  C     C_R   0.949339 0.454825 0.885284 -0.010114
C235  C     C_R   0.695989 0.195972 0.249986 0.010770
C236  C     C_R   0.196024 0.304012 0.750017 0.011412
C237  C     C_R   0.804023 0.695928 0.249999 0.004982
C238  C     C_R   0.695984 0.195974 0.749991 0.003379
C239  C     C_R   0.303974 0.804013 0.250034 0.010861
C240  C     C_R   0.804030 0.696059 0.749998 0.011280
C241  C     C_R   0.195920 0.303985 0.249968 0.004986
C242  C     C_R   0.304050 0.196040 0.250015 0.004945
C243  C     C_R   0.695936 0.804111 0.749965 0.011971
C244  C     C_R   0.195907 0.695903 0.250026 0.001076
C245  C     C_R   0.057001 0.536202 0.115011 -0.013187
C246  C     C_R   0.804022 0.304033 0.749996 -0.003425
C247  C     C_R   0.696052 0.804029 0.249992 0.004815
C248  C     C_R   0.304028 0.195869 0.749969 0.012181
C249  C     C_R   0.804271 0.303853 0.249935 0.000142
C250  C     C_R   0.195980 0.696016 0.749993 -0.003363
C251  C     C_R   0.046052 0.549086 0.918338 -0.006413
C252  C     C_R   0.941093 0.466804 0.082015 -0.005670
C253  C     C_R   0.506555 0.932859 0.917776 -0.004654
C254  C     C_R   0.519721 0.064536 0.082229 -0.004621
C255  C     C_R   0.953660 0.450890 0.918313 -0.006434
C256  C     C_R   0.494543 0.067241 0.884661 -0.010347
C257  C     C_R   0.058652 0.533081 0.081966 -0.005621
C258  C     C_R   0.493438 0.067231 0.917774 -0.004653
C259  C     C_R   0.480351 0.935522 0.082219 -0.004615
C260  C     C_R   0.566416 0.019218 0.417526 -0.005013
C261  C     C_R   0.432217 0.997840 0.581894 -0.002239
C262  C     C_R   0.958494 0.445461 0.418037 -0.003577
C263  C     C_R   0.048294 0.546817 0.581604 -0.006412
C264  C     C_R   0.434365 0.991326 0.418172 -0.003146
C265  C     C_R   0.567352 0.997048 0.582455 -0.004963
C266  C     C_R   0.031369 0.559340 0.418073 -0.006443
C267  C     C_R   0.487072 0.933831 0.115201 -0.009115
C268  C     C_R   0.948873 0.455891 0.581831 -0.006111
C269  C     C_R   0.000012 0.500163 0.665736 0.488089
C270  C     C_R   0.999985 0.500119 0.334187 0.482470
C271  C     C_R   0.498924 0.999885 0.665885 0.487348
C272  C     C_R   0.499976 0.000065 0.334147 0.486262
C273  C     C_R   0.500010 0.000003 0.165865 0.486080
C274  C     C_R   0.499991 0.000001 0.834105 0.486928
C275  C     C_R   0.999994 0.499996 0.165821 0.483905
C276  C     C_R   0.999993 0.500004 0.834274 0.487875
C277  C     C_R   0.860111 0.639928 0.749997 0.484620
C278  C     C_R   0.567204 0.011221 0.384576 -0.008689
C279  C     C_R   0.139856 0.360058 0.250010 0.483010
C280  C     C_R   0.360150 0.860066 0.750000 0.479031
C281  C     C_R   0.639857 0.139922 0.249982 0.483734
C282  C     C_R   0.139952 0.360139 0.750029 0.484689
C283  C     C_R   0.860074 0.639863 0.249984 0.482947
C284  C     C_R   0.639906 0.139890 0.749991 0.480921
C285  C     C_R   0.360075 0.860133 0.250024 0.483700
C286  C     C_R   0.860231 0.360023 0.250031 0.476664
C287  C     C_R   0.139885 0.639934 0.749991 0.476741
C288  C     C_R   0.360134 0.139953 0.249988 0.480804
H1    H     H_    0.249386 0.559905 0.765558 0.129805
H2    H     H_    0.772021 0.581253 0.788712 0.101955
H3    H     H_    0.154757 0.684579 0.177349 0.185097
H4    H     H_    0.207750 0.696433 0.142048 0.149650
H5    H     H_    0.138697 0.762267 0.152628 0.149454
H6    H     H_    0.090390 0.683933 0.111159 0.149057
H7    H     H_    0.042064 0.666896 0.146620 0.200386
H8    H     H_    0.124134 0.556525 0.156587 0.146627
H9    H     H_    0.170092 0.572376 0.121935 0.126615
H10   H     H_    0.536864 0.236696 0.821467 0.139937
H11   H     H_    0.544123 0.282212 0.858746 0.142697
H12   H     H_    0.625566 0.257522 0.837504 0.155292
H13   H     H_    0.417321 0.773589 0.210492 0.098631
H14   H     H_    0.601494 0.171614 0.881685 0.157059
H15   H     H_    0.599507 0.126670 0.844458 0.194955
H16   H     H_    0.462802 0.131895 0.843955 0.149380
H17   H     H_    0.461388 0.181724 0.878454 0.139851
H18   H     H_    0.526596 0.758586 0.176884 0.138261
H19   H     H_    0.539836 0.719894 0.138473 0.143966
H20   H     H_    0.617639 0.743663 0.162219 0.159669
H21   H     H_    0.597410 0.836776 0.120982 0.161557
H22   H     H_    0.586390 0.874078 0.159272 0.195799
H23   H     H_    0.450852 0.868037 0.154729 0.150643
H24   H     H_    0.559929 0.249464 0.765398 0.126323
H25   H     H_    0.457432 0.817505 0.120241 0.140123
H26   H     H_    0.743591 0.969325 0.323646 0.138805
H27   H     H_    0.779069 0.950508 0.362167 0.144878
H28   H     H_    0.753677 0.876209 0.336724 0.160352
H29   H     H_    0.659083 0.897162 0.377581 0.161762
H30   H     H_    0.624796 0.911628 0.339021 0.197897
H31   H     H_    0.633245 0.046006 0.344882 0.148302
H32   H     H_    0.684280 0.037214 0.379070 0.141344
H33   H     H_    0.244869 0.959574 0.672316 0.141956
H34   H     H_    0.226765 0.920809 0.634303 0.143894
H35   H     H_    0.752613 0.561887 0.230859 0.121997
H36   H     H_    0.249952 0.862051 0.666519 0.158125
H37   H     H_    0.356752 0.878266 0.631190 0.164203
H38   H     H_    0.372752 0.913929 0.669395 0.198997
H39   H     H_    0.363145 0.039036 0.652747 0.141068
H40   H     H_    0.313362 0.016999 0.619548 0.141569
H41   H     H_    0.820243 0.342410 0.320654 0.187050
H42   H     H_    0.815870 0.281440 0.353906 0.152305
H43   H     H_    0.742569 0.344840 0.346229 0.148735
H44   H     H_    0.816062 0.393501 0.388531 0.160980
H45   H     H_    0.828735 0.449630 0.354797 0.194351
H46   H     H_    0.228029 0.418764 0.788758 0.101781
H47   H     H_    0.944763 0.377634 0.342523 0.150308
H48   H     H_    0.936730 0.328400 0.376363 0.113381
H49   H     H_    0.122142 0.710590 0.677711 0.168268
H50   H     H_    0.112481 0.759354 0.641246 0.147852
H51   H     H_    0.045203 0.770460 0.671482 0.133356
H52   H     H_    0.999936 0.688685 0.629078 0.158161
H53   H     H_    0.005360 0.643320 0.666127 0.167063
H54   H     H_    0.124375 0.584662 0.650156 0.181597
H55   H     H_    0.127341 0.639270 0.617345 0.137191
H56   H     H_    0.254062 0.028953 0.324438 0.138706
H57   H     H_    0.581937 0.227317 0.210996 0.098471
H58   H     H_    0.221362 0.051058 0.363113 0.143927
H59   H     H_    0.244719 0.123090 0.336193 0.161012
H60   H     H_    0.342794 0.106887 0.375595 0.162777
H61   H     H_    0.373757 0.086925 0.337006 0.197576
H62   H     H_    0.367453 0.954363 0.346077 0.147484
H63   H     H_    0.316840 0.965570 0.380136 0.138282
H64   H     H_    0.736807 0.042566 0.678091 0.140989
H65   H     H_    0.780378 0.053643 0.640581 0.142700
H66   H     H_    0.753981 0.132949 0.662909 0.155488
H67   H     H_    0.667237 0.108003 0.618937 0.157252
H68   H     H_    0.440000 0.750568 0.765539 0.126758
H69   H     H_    0.623971 0.103740 0.656455 0.197765
H70   H     H_    0.631793 0.967700 0.656391 0.148545
H71   H     H_    0.681708 0.967336 0.621954 0.140116
H72   H     H_    0.185513 0.652819 0.322827 0.185186
H73   H     H_    0.199487 0.704475 0.358332 0.149574
H74   H     H_    0.263331 0.634103 0.347135 0.149749
H75   H     H_    0.184390 0.587155 0.388840 0.148972
H76   H     H_    0.166384 0.539476 0.353333 0.201272
H77   H     H_    0.057474 0.623860 0.343577 0.146563
H78   H     H_    0.074580 0.669219 0.378204 0.126569
H79   H     H_    0.726901 0.081786 0.289051 0.098728
H80   H     H_    0.879732 0.289818 0.677927 0.167684
H81   H     H_    0.889250 0.240655 0.641546 0.148136
H82   H     H_    0.956994 0.230470 0.671635 0.132635
H83   H     H_    0.000808 0.312127 0.628773 0.158485
H84   H     H_    0.996072 0.357571 0.665827 0.167877
H85   H     H_    0.875661 0.414836 0.650328 0.181375
H86   H     H_    0.873499 0.360323 0.617387 0.140207
H87   H     H_    0.218927 0.684596 0.944524 0.152914
H88   H     H_    0.186257 0.654268 0.982232 0.153757
H89   H     H_    0.267813 0.614883 0.965629 0.136293
H90   H     H_    0.251518 0.939464 0.733226 0.126001
H91   H     H_    0.163482 0.529511 0.960070 0.186120
H92   H     H_    0.195729 0.559966 0.922795 0.162677
H93   H     H_    0.091412 0.658684 0.924572 0.130096
H94   H     H_    0.062695 0.619691 0.959042 0.166183
H95   H     H_    0.767857 0.450673 0.018322 0.160743
H96   H     H_    0.727991 0.414151 0.053708 0.144398
H97   H     H_    0.706891 0.505971 0.041342 0.139853
H98   H     H_    0.795597 0.509760 0.084536 0.150207
H99   H     H_    0.836048 0.543205 0.049339 0.194714
H100  H     H_    0.892440 0.418158 0.040093 0.159061
H101  H     H_    0.937970 0.747164 0.269264 0.122099
H102  H     H_    0.854399 0.385660 0.074500 0.132723
H103  H     H_    0.578863 0.774386 0.981555 0.159841
H104  H     H_    0.572382 0.723426 0.945447 0.144422
H105  H     H_    0.660207 0.753195 0.959713 0.148612
H106  H     H_    0.620994 0.833182 0.916710 0.155862
H107  H     H_    0.624372 0.882909 0.952489 0.197722
H108  H     H_    0.487964 0.865354 0.959241 0.157346
H109  H     H_    0.482684 0.816796 0.924435 0.131762
H110  H     H_    0.561945 0.277340 0.049989 0.148202
H111  H     H_    0.543678 0.227597 0.014314 0.152675
H112  H     H_    0.771472 0.420156 0.212298 0.100809
H113  H     H_    0.081202 0.272178 0.711337 0.102017
H114  H     H_    0.474903 0.286731 0.030767 0.136982
H115  H     H_    0.446210 0.156177 0.041428 0.187645
H116  H     H_    0.462810 0.206725 0.076638 0.162435
H117  H     H_    0.593744 0.157529 0.077233 0.126731
H118  H     H_    0.577267 0.112192 0.042551 0.167031
H119  H     H_    0.780657 0.315432 0.944446 0.152893
H120  H     H_    0.813314 0.345693 0.982161 0.153748
H121  H     H_    0.731798 0.385152 0.965581 0.136302
H122  H     H_    0.836165 0.470472 0.960034 0.186147
H123  H     H_    0.803968 0.440054 0.922749 0.162616
H124  H     H_    0.273513 0.917425 0.289608 0.098929
H125  H     H_    0.908238 0.341301 0.924501 0.130098
H126  H     H_    0.936910 0.380232 0.958987 0.166179
H127  H     H_    0.231880 0.548975 0.018209 0.160760
H128  H     H_    0.271707 0.585712 0.053556 0.144402
H129  H     H_    0.292867 0.493839 0.041265 0.139848
H130  H     H_    0.204143 0.490212 0.084475 0.150237
H131  H     H_    0.163709 0.456585 0.049308 0.194644
H132  H     H_    0.107265 0.581543 0.039985 0.159136
H133  H     H_    0.145286 0.614247 0.074352 0.132659
H134  H     H_    0.421216 0.225780 0.981572 0.159824
H135  H     H_    0.749500 0.059827 0.734659 0.126237
H136  H     H_    0.427660 0.276702 0.945457 0.144419
H137  H     H_    0.339849 0.246955 0.959767 0.148612
H138  H     H_    0.379016 0.166924 0.916748 0.155877
H139  H     H_    0.375658 0.117231 0.952533 0.197715
H140  H     H_    0.512072 0.134772 0.959227 0.157321
H141  H     H_    0.517331 0.183297 0.924416 0.131743
H142  H     H_    0.438147 0.722717 0.049979 0.148199
H143  H     H_    0.456345 0.772443 0.014294 0.152670
H144  H     H_    0.525161 0.713337 0.030709 0.136988
H145  H     H_    0.553834 0.843908 0.041355 0.187632
H146  H     H_    0.061798 0.252292 0.268853 0.122036
H147  H     H_    0.537306 0.793376 0.076573 0.162449
H148  H     H_    0.406339 0.842526 0.077228 0.126764
H149  H     H_    0.422793 0.887886 0.042549 0.167014
H150  H     H_    0.784190 0.049522 0.444674 0.148107
H151  H     H_    0.738291 0.040650 0.481873 0.151072
H152  H     H_    0.789957 0.965107 0.466191 0.138270
H153  H     H_    0.657273 0.943557 0.459088 0.187657
H154  H     H_    0.703194 0.953523 0.422318 0.164704
H155  H     H_    0.662444 0.089281 0.422044 0.127059
H156  H     H_    0.618133 0.074198 0.457032 0.164400
H157  H     H_    0.918883 0.728059 0.711318 0.101788
H158  H     H_    0.229214 0.950849 0.538383 0.147665
H159  H     H_    0.299438 0.911389 0.513735 0.157749
H160  H     H_    0.245811 0.853669 0.538842 0.140768
H161  H     H_    0.371845 0.876269 0.559674 0.179331
H162  H     H_    0.300108 0.906973 0.585222 0.163291
H163  H     H_    0.321006 0.035726 0.571298 0.123035
H164  H     H_    0.369640 0.011727 0.538533 0.167818
H165  H     H_    0.772480 0.330722 0.437334 0.148954
H166  H     H_    0.820610 0.311493 0.473137 0.150331
H167  H     H_    0.746840 0.377001 0.472788 0.148104
H168  H     H_    0.727390 0.918810 0.711249 0.098374
H169  H     H_    0.861128 0.443981 0.474314 0.191069
H170  H     H_    0.820541 0.456770 0.436628 0.165419
H171  H     H_    0.903128 0.338527 0.422640 0.139447
H172  H     H_    0.954014 0.363643 0.454946 0.158508
H173  H     H_    0.187495 0.717481 0.556649 0.151298
H174  H     H_    0.157658 0.686549 0.518613 0.154241
H175  H     H_    0.119503 0.768454 0.535434 0.135438
H176  H     H_    0.031646 0.666175 0.540086 0.187730
H177  H     H_    0.062066 0.696137 0.577660 0.162855
H178  H     H_    0.158725 0.589388 0.575075 0.130922
H179  H     H_    0.251700 0.060930 0.267343 0.126245
H180  H     H_    0.118033 0.562587 0.540586 0.164031
H181  H     H_    0.228370 0.986994 0.463178 0.145002
H182  H     H_    0.290453 0.032393 0.489855 0.159015
H183  H     H_    0.225989 0.085056 0.467595 0.145242
H184  H     H_    0.353676 0.092829 0.446423 0.186094
H185  H     H_    0.288307 0.056713 0.419104 0.159882
H186  H     H_    0.332720 0.930966 0.426694 0.120498
H187  H     H_    0.378293 0.954220 0.460443 0.166254
H188  H     H_    0.737279 0.937728 0.521101 0.157146
H189  H     H_    0.780787 0.939610 0.558999 0.145098
H190  H     H_    0.940086 0.250503 0.734478 0.129688
H191  H     H_    0.756016 0.853585 0.541366 0.148410
H192  H     H_    0.667393 0.885702 0.582549 0.158381
H193  H     H_    0.624723 0.885105 0.545065 0.195940
H194  H     H_    0.634981 0.021186 0.541505 0.156962
H195  H     H_    0.682449 0.026201 0.576584 0.134769
H196  H     H_    0.052055 0.730113 0.482562 0.162386
H197  H     H_    0.092473 0.769576 0.447871 0.144781
H198  H     H_    0.001042 0.794460 0.459437 0.139352
H199  H     H_    0.995564 0.707668 0.415595 0.148295
H200  H     H_    0.958456 0.667409 0.450100 0.194590
H201  H     H_    0.080733 0.727773 0.288419 0.100261
H202  H     H_    0.081803 0.605925 0.460018 0.160794
H203  H     H_    0.115832 0.642837 0.425711 0.132106
H204  H     H_    0.814264 0.279883 0.568202 0.148677
H205  H     H_    0.817574 0.313097 0.528572 0.155118
H206  H     H_    0.869584 0.233395 0.539612 0.139385
H207  H     H_    0.953470 0.337400 0.535968 0.186525
H208  H     H_    0.944014 0.310706 0.575947 0.165967
H209  H     H_    0.837867 0.414946 0.576655 0.133024
H210  H     H_    0.875898 0.441984 0.541638 0.156679
H211  H     H_    0.272523 0.081239 0.711179 0.099662
H212  H     H_    0.418681 0.227200 0.788668 0.098362
H213  H     H_    0.748808 0.939230 0.267006 0.126268
H214  H     H_    0.059952 0.749710 0.734551 0.129968
H215  H     H_    0.921523 0.269449 0.286749 0.100915
H216  H     H_    0.030061 0.875301 0.722664 0.113652
H217  H     H_    0.933281 0.161853 0.319631 0.098194
H218  H     H_    0.164005 0.068584 0.678869 0.096964
H219  H     H_    0.873545 0.968353 0.281047 0.114626
H220  H     H_    0.970419 0.124731 0.723183 0.113914
H221  H     H_    0.069173 0.834883 0.321593 0.098112
H222  H     H_    0.835873 0.931785 0.678973 0.098897
H223  H     H_    0.561005 0.751537 0.232734 0.126035
H224  H     H_    0.126913 0.031410 0.281105 0.114422
H225  H     H_    0.032108 0.126851 0.281865 0.113130
H226  H     H_    0.931268 0.836774 0.678985 0.097572
H227  H     H_    0.165186 0.929356 0.322274 0.098006
H228  H     H_    0.875130 0.029466 0.723190 0.114795
H229  H     H_    0.967919 0.872472 0.282339 0.113120
H230  H     H_    0.068804 0.163533 0.678955 0.097856
H231  H     H_    0.836232 0.068453 0.320914 0.097675
H232  H     H_    0.125797 0.970079 0.721867 0.113736
H233  H     H_    0.569499 0.336253 0.178719 0.098149
H234  H     H_    0.750433 0.440211 0.765382 0.129960
H235  H     H_    0.470243 0.624927 0.777151 0.114657
H236  H     H_    0.627340 0.532159 0.217661 0.113060
H237  H     H_    0.336795 0.430991 0.821074 0.097428
H238  H     H_    0.429480 0.665119 0.177898 0.098393
H239  H     H_    0.529537 0.375155 0.776814 0.114850
H240  H     H_    0.372375 0.467951 0.217566 0.113095
H241  H     H_    0.663208 0.568937 0.821018 0.097507
H242  H     H_    0.568265 0.664215 0.820964 0.098895
H243  H     H_    0.468189 0.373487 0.218730 0.114391
H244  H     H_    0.624713 0.470536 0.776691 0.113937
H245  H     H_    0.228094 0.580441 0.211814 0.100460
H246  H     H_    0.335197 0.568922 0.178647 0.097972
H247  H     H_    0.431689 0.335660 0.820995 0.098967
H248  H     H_    0.531740 0.626841 0.218640 0.114447
H249  H     H_    0.375024 0.529594 0.777031 0.113822
H250  H     H_    0.663956 0.432262 0.179446 0.097754
H251  H     H_    0.210609 0.619782 0.822086 0.168152
H252  H     H_    0.260007 0.609756 0.858366 0.147795
H253  H     H_    0.269825 0.542302 0.828121 0.132441
H254  H     H_    0.188414 0.498255 0.871043 0.158153
H255  H     H_    0.142782 0.503317 0.834048 0.167665
H256  H     H_    0.581243 0.772691 0.788653 0.098435
H257  H     H_    0.085642 0.623528 0.849733 0.181476
H258  H     H_    0.140335 0.625912 0.882537 0.137143
H259  H     H_    0.844359 0.316018 0.177472 0.184877
H260  H     H_    0.791672 0.303901 0.142121 0.149369
H261  H     H_    0.860552 0.238078 0.152894 0.149617
H262  H     H_    0.909183 0.316091 0.111340 0.149038
H263  H     H_    0.957385 0.333141 0.146818 0.200574
H264  H     H_    0.875692 0.443781 0.156684 0.146514
H265  H     H_    0.829655 0.427887 0.122063 0.126711
H266  H     H_    0.463175 0.763052 0.821597 0.140031
H267  H     H_    0.439106 0.248751 0.232863 0.126038
H268  H     H_    0.455789 0.717777 0.858920 0.142685
H269  H     H_    0.374415 0.742374 0.837635 0.155399
H270  H     H_    0.398456 0.828537 0.881741 0.157127
H271  H     H_    0.400489 0.873251 0.844467 0.194950
H272  H     H_    0.537142 0.868113 0.843949 0.149381
H273  H     H_    0.538609 0.818338 0.878455 0.139885
H274  H     H_    0.473594 0.241423 0.176954 0.138298
H275  H     H_    0.460378 0.280155 0.138558 0.144064
H276  H     H_    0.382559 0.256420 0.162319 0.159648
H277  H     H_    0.402718 0.163321 0.121053 0.161546
H278  H     H_    0.247144 0.438027 0.230740 0.122084
H279  H     H_    0.413724 0.125984 0.159330 0.195805
H280  H     H_    0.549263 0.131948 0.154748 0.150756
H281  H     H_    0.542708 0.182509 0.120275 0.140140
H282  H     H_    0.789656 0.380349 0.821867 0.168132
H283  H     H_    0.739966 0.390120 0.858102 0.147813
H284  H     H_    0.730294 0.457714 0.827915 0.132370
H285  H     H_    0.811316 0.501672 0.870970 0.158063
H286  H     H_    0.857250 0.496818 0.834026 0.167728
H287  H     H_    0.914268 0.376472 0.849696 0.181533
H288  H     H_    0.859428 0.374144 0.882471 0.137079
N1    N     N_R   0.043935 0.453694 0.984592 -0.251807
N2    N     N_R   0.490872 0.064119 0.516128 -0.244600
N3    N     N_R   0.037189 0.453782 0.484160 -0.247824
N4    N     N_R   0.955478 0.550966 0.515776 -0.255792
N5    N     N_R   0.490870 0.065861 0.485107 -0.246603
N6    N     N_R   0.512429 0.938192 0.514876 -0.248955
N7    N     N_R   0.954444 0.551112 0.484795 -0.261521
N8    N     N_R   0.038061 0.453456 0.515147 -0.249305
N9    N     N_R   0.955933 0.546306 0.015604 -0.251337
N10   N     N_R   0.562119 0.985354 0.984564 -0.250775
N11   N     N_R   0.437951 0.015077 0.015603 -0.250753
N12   N     N_R   0.955706 0.546149 0.984619 -0.251847
N13   N     N_R   0.043708 0.453501 0.015578 -0.251283
N14   N     N_R   0.437910 0.014775 0.984588 -0.250755
N15   N     N_R   0.562091 0.985034 0.015579 -0.250774
N16   N     N_R   0.513005 0.940012 0.483864 -0.247996
O1    O     O_3   0.000000 0.500000 0.750000 -0.428760
O2    O     O_R   0.060770 0.500000 0.319330 -0.550760
O3    O     O_R   0.500000 0.939230 0.680670 -0.553667
O4    O     O_R   0.500000 0.060770 0.319330 -0.551512
O5    O     O_R   0.560770 1.000000 0.180670 -0.550640
O6    O     O_R   0.439230 0.000000 0.819330 -0.548114
O7    O     O_R   1.000000 0.560770 0.180670 -0.550067
O8    O     O_R   0.000000 0.439230 0.819330 -0.551100
O9    O     O_R   0.439230 1.000000 0.180670 -0.550536
O10   O     O_R   0.560770 0.000000 0.819330 -0.548144
O11   O     O_R   1.000000 0.439230 0.180670 -0.550023
O12   O     O_3   1.000000 0.500000 0.250000 -0.426673
O13   O     O_R   0.000000 0.560770 0.819330 -0.551156
O14   O     O_R   0.853860 0.585440 0.731810 -0.542182
O15   O     O_R   0.146140 0.414560 0.268190 -0.543656
O16   O     O_R   0.414560 0.853860 0.731810 -0.552822
O17   O     O_R   0.585440 0.146140 0.268190 -0.543292
O18   O     O_R   0.146140 0.414560 0.731810 -0.541976
O19   O     O_R   0.853860 0.585440 0.268190 -0.543450
O20   O     O_R   0.585440 0.146140 0.731810 -0.547618
O21   O     O_R   0.414560 0.853860 0.268190 -0.542947
O22   O     O_R   0.853860 0.414560 0.268190 -0.551221
O23   O     O_3   0.500000 1.000000 0.750000 -0.431203
O24   O     O_R   0.146140 0.585440 0.731810 -0.548781
O25   O     O_R   0.414560 0.146140 0.268190 -0.548703
O26   O     O_R   0.585440 0.853860 0.731810 -0.542170
O27   O     O_R   0.146140 0.585440 0.268190 -0.550790
O28   O     O_R   0.853860 0.414560 0.731810 -0.548929
O29   O     O_R   0.585440 0.853860 0.268190 -0.547741
O30   O     O_R   0.414560 0.146140 0.731810 -0.542521
O31   O     O_R   0.353860 0.085440 0.231810 -0.546585
O32   O     O_R   0.646140 0.914560 0.768190 -0.543004
O33   O     O_R   0.914560 0.353860 0.231810 -0.550659
O34   O     O_3   0.500000 1.000000 0.250000 -0.430212
O35   O     O_R   0.085440 0.646140 0.768190 -0.548794
O36   O     O_R   0.646140 0.914560 0.231810 -0.546896
O37   O     O_R   0.353860 0.085440 0.768190 -0.542934
O38   O     O_R   0.085440 0.646140 0.231810 -0.550644
O39   O     O_R   0.914560 0.353860 0.768190 -0.548759
O40   O     O_R   0.353860 0.914560 0.768190 -0.545539
O41   O     O_R   0.646140 0.085440 0.231810 -0.543228
O42   O     O_R   0.914560 0.646140 0.768190 -0.542296
O43   O     O_R   0.085440 0.353860 0.231810 -0.544144
O44   O     O_R   0.646140 0.085440 0.768190 -0.547077
O45   O     O_R   0.060770 0.500000 0.680670 -0.551384
O46   O     O_R   0.353860 0.914560 0.231810 -0.543300
O47   O     O_R   0.085440 0.353860 0.768190 -0.542280
O48   O     O_R   0.914560 0.646140 0.231810 -0.543848
O49   O     O_R   0.939230 0.500000 0.319330 -0.547389
O50   O     O_R   0.500000 0.060770 0.680670 -0.546791
O51   O     O_R   0.500000 0.939230 0.319330 -0.551239
O52   O     O_R   0.939230 0.500000 0.680670 -0.550934
Zn1   Zn    Zn3+2 0.000000 0.586740 0.775960 0.908685
Zn2   Zn    Zn3+2 0.500000 0.913260 0.724040 0.906768
Zn3   Zn    Zn3+2 0.913260 0.500000 0.275960 0.906474
Zn4   Zn    Zn3+2 0.086740 0.500000 0.724040 0.908803
Zn5   Zn    Zn3+2 0.500000 0.913260 0.275960 0.910204
Zn6   Zn    Zn3+2 0.500000 0.086740 0.724040 0.911616
Zn7   Zn    Zn3+2 0.086740 0.500000 0.275960 0.904903
Zn8   Zn    Zn3+2 0.913260 0.500000 0.724040 0.908525
Zn9   Zn    Zn3+2 1.000000 0.413260 0.224040 0.905057
Zn10  Zn    Zn3+2 0.413260 1.000000 0.775960 0.911775
Zn11  Zn    Zn3+2 0.586740 1.000000 0.224040 0.910988
Zn12  Zn    Zn3+2 0.000000 0.413260 0.775960 0.908750
Zn13  Zn    Zn3+2 1.000000 0.586740 0.224040 0.905420
Zn14  Zn    Zn3+2 0.586740 1.000000 0.775960 0.912251
Zn15  Zn    Zn3+2 0.413260 1.000000 0.224040 0.910898
Zn16  Zn    Zn3+2 0.500000 0.086740 0.275960 0.909306

loop_
_geom_bond_atom_site_label_1
_geom_bond_atom_site_label_2
_ccdc_geom_bond_type
C196  H176  S    
C131  H20   S    
C8    N2    A    
C126  C127  S    
C138  H36   S    
C188  H163  S    
C241  C279  S    
C177  H129  S    
C181  H137  S    
C169  H117  S    
C27   H112  S    
C222  C242  A    
C186  H153  S    
C282  O18   A    
C16   N10   A    
C13   C139  S    
C281  O17   A    
C204  H191  S    
O48   Zn13  S    
C197  H175  S    
C85   H225  S    
C106  C107  S    
C143  C144  S    
C57   C152  S    
C118  H274  S    
C189  H161  S    
C108  C109  S    
C35   C145  S    
C39   C74   A    
C233  C280  S    
C7    O37   A    
C182  C183  S    
C145  H62   S    
C178  C258  S    
C159  H94   S    
C66   C72   A    
C100  C264  A    
C101  C213  A    
C158  H81   S    
C2    C22   A    
C37   C135  A    
C207  H198  S    
C173  H122  S    
C121  H283  S    
C134  H26   S    
C36   C71   A    
C33   C69   A    
C287  O24   A    
C98   C258  A    
C146  C240  A    
C29   C64   A    
C195  H180  S    
C132  H31   S    
C4    O38   A    
C194  H166  S    
C20   C267  A    
C128  H12   S    
O4    Zn16  S    
N1    N13   A    
C202  C203  S    
N6    N16   A    
C19   C212  A    
C33   H267  S    
C163  H99   S    
O30   Zn6   S    
C38   H24   S    
C140  C141  S    
C59   C217  A    
O21   Zn5   S    
C206  C207  S    
C147  H60   S    
C154  H72   S    
C133  H30   S    
C141  H43   S    
C26   C215  A    
C35   C264  A    
C213  C248  A    
C183  C184  S    
C47   H113  S    
O2    Zn7   S    
O51   Zn5   S    
O31   Zn15  S    
C200  H182  S    
C175  C176  S    
C143  H53   S    
C12   N13   A    
C95   H217  S    
O40   Zn10  S    
C202  H194  S    
C171  H114  S    
C164  H97   S    
C151  H64   S    
C12   C97   S    
C164  H96   S    
O20   Zn6   S    
C175  C257  S    
C273  O5    A    
C154  H73   S    
C131  H18   S    
C182  H148  S    
C52   C224  A    
C275  O7    A    
N10   N15   A    
C138  H34   S    
N9    N12   A    
C50   C226  A    
C33   C168  A    
C109  H262  S    
O50   Zn6   S    
C116  H280  S    
C90   C214  A    
C152  H78   S    
C137  H38   S    
O6    Zn10  S    
O1    Zn4   S    
C205  C206  S    
C177  H127  S    
C172  C255  S    
O7    Zn13  S    
C8    N6    A    
C26   C61   A    
C45   C81   A    
C158  H80   S    
C196  C197  S    
C118  H276  S    
C139  C140  S    
C83   H227  S    
C21   C35   A    
C120  H286  S    
C83   C91   A    
C221  C227  A    
C7    O30   A    
C124  C201  A    
C140  H45   S    
C229  C236  A    
C156  C158  S    
O37   Zn10  S    
C48   H124  S    
C133  H29   S    
C167  H103  S    
C218  C247  A    
C41   C76   A    
C16   C98   S    
C94   H216  S    
C116  C223  S    
C46   C265  A    
C149  H70   S    
C14   N1    A    
O32   Zn14  S    
C90   C235  A    
C130  C131  S    
O47   Zn12  S    
C69   C70   A    
C69   H243  S    
C117  H277  S    
C280  O40   A    
O34   Zn16  S    
C199  H184  S    
C274  O10   A    
C28   C63   A    
C195  C263  S    
C273  O9    A    
C153  H75   S    
C195  H178  S    
C193  C194  S    
C73   H239  S    
C155  C156  S    
C141  H41   S    
C219  C248  A    
C136  H39   S    
C271  O3    A    
C75   H237  S    
C96   C251  A    
C186  C187  S    
C109  C110  S    
O12   Zn7   S    
C179  C243  A    
C193  H170  S    
C77   H235  S    
C21   C272  S    
C1    C105  S    
C115  H268  S    
C22   C271  S    
O1    Zn8   S    
C15   N11   A    
C23   C270  S    
C143  H52   S    
C173  H123  S    
O41   Zn11  S    
C70   H240  S    
C147  C148  S    
C283  O48   A    
C5    C246  S    
C53   H179  S    
C123  H7    S    
C286  O22   A    
C200  H181  S    
C162  H100  S    
C17   C234  A    
C31   C190  A    
C220  C228  A    
C235  C281  S    
C165  H109  S    
C196  H177  S    
C180  H139  S    
C288  O31   A    
C9    N5    A    
N4    N7    A    
C48   C228  A    
C40   H46   S    
N2    N5    A    
C170  C171  S    
O18   Zn4   S    
C13   C23   A    
O29   Zn5   S    
N3    N8    A    
C11   N7    A    
C211  C247  A    
C212  C253  A    
C189  C191  S    
C111  C212  S    
C169  H118  S    
C40   C101  A    
C106  H254  S    
C84   H228  S    
C198  H187  S    
C61   C77   A    
C216  C249  A    
C39   C113  A    
C256  C258  A    
C27   C214  A    
C67   C71   A    
C128  H10   S    
C67   H242  S    
C239  C285  S    
C42   C79   A    
C214  C249  A    
C276  O8    A    
C71   H241  S    
C192  H171  S    
C279  O15   A    
C58   H213  S    
C4    O27   A    
C105  H257  S    
C236  C282  S    
C188  H164  S    
C126  H17   S    
C174  H121  S    
C38   C73   A    
C54   C221  A    
C159  C251  S    
C227  C238  A    
O44   Zn14  S    
C188  C261  S    
C93   H219  S    
C286  O33   A    
C276  O13   A    
C117  H279  S    
C135  C190  A    
C27   C62   A    
O36   Zn11  S    
C124  C238  A    
C185  C260  S    
C107  H252  S    
C147  H61   S    
C209  H208  S    
C99   C259  A    
C3    O32   A    
C242  C288  S    
C101  C236  A    
C209  C210  S    
C108  H264  S    
C88   H224  S    
O12   Zn9   S    
C160  H91   S    
C6    O36   A    
C125  H3    S    
C32   C67   A    
C50   H146  S    
C57   C266  A    
C49   H135  S    
C9    C100  S    
C249  C286  S    
C115  H266  S    
C187  H152  S    
C148  H59   S    
C54   H190  S    
C122  H8    S    
C45   C230  A    
C200  H183  S    
C120  C121  S    
C142  H54   S    
C129  C130  S    
C130  H22   S    
C85   C88   A    
C36   C146  A    
C28   C213  A    
C23   C57   A    
C131  H19   S    
C176  C177  S    
O24   Zn4   S    
C74   H236  S    
C189  H162  S    
C20   C223  A    
C136  C137  S    
C220  C244  A    
C126  C256  S    
C167  H105  S    
C224  C243  A    
C114  C115  S    
C156  H83   S    
C10   N4    A    
C186  H154  S    
C1    C17   A    
C48   C83   A    
C122  H9    S    
C60   C216  A    
C176  H131  S    
C117  C118  S    
C72   H238  S    
C58   C218  A    
C18   C245  A    
C197  H174  S    
C198  H186  S    
C63   C75   A    
C55   H201  S    
C24   C263  A    
O33   Zn9   S    
C165  C253  S    
C140  H44   S    
N11   N14   A    
C25   C269  S    
C30   C65   A    
C159  H93   S    
C191  H160  S    
C34   C157  A    
O26   Zn2   S    
C46   C149  S    
C126  H16   S    
C152  C153  S    
C42   C77   A    
C158  H82   S    
C155  H86   S    
C150  C151  S    
C207  H197  S    
C230  C237  A    
C279  O43   A    
C121  H282  S    
C134  H27   S    
C4    C244  S    
C98   C253  A    
C38   C124  A    
C5    O28   A    
C61   H249  S    
C60   H215  S    
C190  C244  A    
O14   Zn8   S    
C132  H32   S    
C194  H167  S    
C203  C204  S    
C68   C155  S    
C63   H247  S    
C224  C225  A    
O5    Zn11  S    
C127  H14   S    
C174  H119  S    
C129  H23   S    
C115  H269  S    
C119  H288  S    
C43   C78   A    
O23   Zn2   S    
C172  H125  S    
C150  H69   S    
C170  H115  S    
C148  H56   S    
C144  H49   S    
C56   H211  S    
C18   C112  A    
C99   C254  A    
C288  O25   A    
C123  C125  S    
C19   C274  S    
C221  C246  A    
C184  H143  S    
C52   C87   A    
O27   Zn7   S    
C151  H66   S    
C82   C92   A    
C141  H42   S    
C157  C168  A    
C161  H88   S    
C277  O14   A    
C169  C170  S    
O34   Zn5   S    
C180  H138  S    
C110  H260  S    
C20   C273  S    
C218  C230  A    
O3    Zn2   S    
C55   C91   A    
C50   C85   A    
C206  H199  S    
C39   H35   S    
O1    Zn12  S    
C15   N15   A    
C24   C142  S    
C208  C209  S    
C32   H256  S    
C102  C265  A    
C187  H150  S    
C250  C287  S    
C284  O44   A    
C66   H246  S    
C202  H195  S    
C59   C94   A    
C92   H218  S    
C49   C227  A    
C245  C257  A    
C13   C262  A    
C34   C70   A    
C45   H101  S    
C113  C237  A    
C154  H74   S    
C182  H149  S    
O39   Zn12  S    
C62   C76   A    
C25   C68   A    
C219  C229  A    
C51   C86   A    
C14   C96   S    
C114  H271  S    
C145  C147  S    
C11   N3    A    
C29   C211  A    
C59   H214  S    
C282  O47   A    
O38   Zn13  S    
C31   H245  S    
C285  O21   A    
C6    C247  S    
C44   C80   A    
C113  C211  A    
O23   Zn6   S    
C86   C87   A    
C195  C196  S    
C28   H212  S    
C53   C222  A    
C120  H285  S    
C183  H147  S    
C222  C226  A    
C108  C112  S    
C9    N16   A    
C36   H2    S    
C145  H63   S    
C191  H158  S    
C260  C278  A    
C78   H231  S    
C207  H196  S    
C125  H5    S    
C159  C160  S    
C80   H232  S    
C78   C95   A    
O43   Zn9   S    
C1    C251  A    
C102  C261  A    
O19   Zn3   S    
C231  C233  A    
C121  H284  S    
O1    Zn1   S    
C79   C233  A    
C122  C245  S    
C30   H234  S    
C210  H206  S    
C22   C46   A    
C129  H25   S    
C133  C134  S    
C6    O29   A    
C136  H40   S    
C194  H165  S    
C80   C94   A    
C127  C128  S    
C181  H134  S    
C272  O4    A    
C193  H169  S    
C180  C181  S    
C49   C84   A    
C128  H11   S    
C162  C163  S    
C277  O42   A    
C30   C201  A    
C171  H110  S    
C201  C246  A    
C43   C232  A    
C148  H58   S    
C144  H51   S    
C114  H270  S    
C82   H230  S    
C178  C180  S    
C119  C120  S    
C139  H48   S    
C52   H168  S    
O52   Zn8   S    
O35   Zn1   S    
C105  C106  S    
O15   Zn7   S    
C40   C75   A    
C269  O45   A    
O34   Zn11  S    
C208  C268  S    
C149  C150  S    
C192  C193  S    
C65   H244  S    
C198  C264  S    
C223  C254  A    
C185  C186  S    
C43   H79   S    
C144  H50   S    
C103  C262  A    
C146  C179  A    
C111  C114  S    
C16   N14   A    
C175  H133  S    
C68   C268  A    
C164  H95   S    
C176  H130  S    
C162  H102  S    
C106  H255  S    
C19   C256  A    
C205  C266  S    
C138  H33   S    
C225  C240  A    
C64   C74   A    
C142  C143  S    
C58   C93   A    
C150  H67   S    
C109  H263  S    
C285  O46   A    
C234  C255  A    
C56   C219  A    
C152  H77   S    
C165  H108  S    
C10   N8    A    
C31   C66   A    
C166  H107  S    
C100  C260  A    
C177  H128  S    
C165  C166  S    
C42   H68   S    
C116  H281  S    
C26   H1    S    
C163  C164  S    
C110  H259  S    
C118  H275  S    
C192  H172  S    
C97   C257  A    
C173  C174  S    
C44   C231  A    
C182  C259  S    
C183  H145  S    
C204  H188  S    
C5    O39   A    
O34   Zn15  S    
O13   Zn1   S    
C167  H104  S    
C178  H141  S    
C127  H15   S    
C47   C82   A    
C2    C261  A    
C270  O2    A    
C37   H13   S    
C149  H71   S    
C203  H193  S    
C65   C73   A    
C116  C117  S    
C103  C266  A    
C111  H273  S    
C157  C241  A    
O22   Zn3   S    
C162  C252  S    
C216  C232  A    
O49   Zn3   S    
C107  H251  S    
C209  H207  S    
C153  H76   S    
C184  H142  S    
C132  C133  S    
C51   C225  A    
C215  C250  A    
C32   C179  A    
C198  C199  S    
C104  C263  A    
C160  H92   S    
C181  H136  S    
C129  C267  S    
C79   C215  A    
C41   C90   A    
C10   C104  S    
C60   C95   A    
C187  H151  S    
C163  H98   S    
C37   C72   A    
C271  O50   A    
C175  H132  S    
C44   H90   S    
C110  H261  S    
C269  O52   A    
C119  H287  S    
C142  H55   S    
C112  C252  A    
C97   C252  A    
C29   H223  S    
C3    O26   A    
C275  O11   A    
C62   H250  S    
C24   C25   A    
C228  C239  A    
C64   H248  S    
O28   Zn8   S    
C54   C89   A    
C226  C241  A    
O16   Zn2   S    
C156  H84   S    
O25   Zn16  S    
C281  O41   A    
C7    C248  S    
C232  C235  A    
C2    C136  S    
C188  C189  S    
C270  O49   A    
C14   N12   A    
C41   H57   S    
O42   Zn1   S    
C81   H229  S    
C89   H220  S    
C204  H189  S    
C81   C93   A    
C119  C234  S    
C197  H173  S    
C132  C278  S    
C199  H185  S    
C205  H203  S    
C283  O19   A    
C210  H204  S    
C76   H233  S    
C3    C243  S    
C108  H265  S    
C208  H209  S    
C161  H89   S    
C191  H159  S    
C168  C242  A    
C205  H202  S    
C208  H210  S    
C34   H278  S    
C155  H85   S    
C166  C167  S    
O17   Zn16  S    
C21   C278  A    
C185  H155  S    
O46   Zn15  S    
C84   C89   A    
C111  H272  S    
O23   Zn10  S    
C134  H28   S    
C17   C276  S    
C172  C173  S    
O45   Zn4   S    
C18   C275  S    
O9    Zn15  S    
C272  O51   A    
C105  H258  S    
C86   H226  S    
C178  H140  S    
C107  H253  S    
O12   Zn13  S    
C169  C254  S    
C87   H222  S    
C104  C268  A    
C96   C255  A    
C15   C99   S    
C185  H156  S    
C174  H120  S    
C210  H205  S    
C55   C220  A    
C47   C229  A    
C172  H126  S    
C137  C138  S    
C171  H111  S    
C51   H157  S    
C170  H116  S    
C160  C161  S    
C284  O20   A    
C280  O16   A    
C122  C123  S    
O10   Zn14  S    
C217  C231  A    
C139  H47   S    
C184  H144  S    
C259  C267  A    
C287  O35   A    
C151  H65   S    
C135  C239  A    
C161  H87   S    
C53   C88   A    
C199  C200  S    
C166  H106  S    
C237  C283  S    
C202  C265  S    
C192  C262  S    
C274  O6    A    
C125  H4    S    
C238  C284  S    
C206  H200  S    
O12   Zn3   S    
C56   C92   A    
C217  C250  A    
C240  C277  S    
C11   C103  S    
C91   H221  S    
C153  C154  S    
C12   N9    A    
C123  H6    S    
C8    C102  S    
O8    Zn12  S    
O23   Zn14  S    
C137  H37   S    
C203  H192  S    
O11   Zn9   S    
C130  H21   S    
