data_mof_unit_35357.cif
_audit_creation_date              2012-12-10T17:46:58-0500
_audit_creation_method            fapswitch 2.2
_symmetry_space_group_name_H-M    P1
_symmetry_Int_Tables_number       1
_space_group_crystal_system       triclinic
_cell_length_a                    9.946776
_cell_length_b                    10.6826
_cell_length_c                    13.582111
_cell_angle_alpha                 92.593686
_cell_angle_beta                  81.788341
_cell_angle_gamma                 90.678325
_cell_volume                      1426.91894105

loop_
_atom_site_label
_atom_site_type_symbol
_atom_type_description
_atom_site_fract_x
_atom_site_fract_y
_atom_site_fract_z
_atom_type_partial_charge
C1    C     C_R   0.502036 0.738942 0.490357 0.872725
C2    C     C_R   0.620238 0.937770 0.496255 -0.206731
C3    C     C_R   0.615002 0.064962 0.512423 -0.195203
C4    C     C_R   0.474794 0.498130 0.685718 0.895247
C5    C     C_R   0.490947 0.126841 0.517473 -0.145608
C6    C     C_R   0.838541 0.690364 0.605989 -0.320016
C7    C     C_R   0.898565 0.801172 0.638335 0.400515
C8    C     C_R   0.037364 0.803537 0.635994 -0.314911
C9    C     C_R   0.112726 0.693675 0.612505 0.447131
C10   C     C_R   0.061552 0.594533 0.553893 0.039613
C11   C     C_R   0.917569 0.594068 0.552515 0.073453
C12   C     C_1   0.455706 0.490093 0.789689 -0.222344
C13   C     C_R   0.937530 0.409916 0.449797 -0.115822
C14   C     C_R   0.080344 0.410126 0.449589 -0.064795
C15   C     C_R   0.496905 0.260560 0.508385 0.879386
C16   C     C_R   0.525535 0.499655 0.314131 0.876212
C17   C     C_1   0.546248 0.499392 0.209587 -0.182517
C18   C     C_2   0.560454 0.497480 0.016979 -0.158983
C19   C     C_2   0.444102 0.478730 0.981327 -0.172355
C20   C     C_1   0.445383 0.483726 0.877530 -0.004219
C21   C     C_1   0.558068 0.498758 0.121242 0.002169
C22   C     C_3   0.707939 0.889625 0.735447 0.070912
C23   C     C_R   0.274250 0.881710 0.425929 -0.153097
C24   C     C_3   0.666918 0.013665 0.791762 -0.297551
C25   C     C_3   0.528995 0.004345 0.856265 -0.997110
C26   C     C_3   0.182794 0.677648 0.765888 0.076071
C27   C     C_3   0.263968 0.776253 0.817715 -0.350706
C28   C     C_3   0.225066 0.777751 0.930585 -0.950040
C29   C     C_3   0.237898 0.170933 0.699924 0.096395
C30   C     C_3   0.159766 0.253716 0.782825 -0.309074
C31   C     C_3   0.195369 0.222538 0.884543 -0.984891
C32   C     C_R   0.149196 0.941771 0.434866 -0.244021
C33   C     C_R   0.127575 0.051363 0.494087 -0.203024
C34   C     C_R   0.234540 0.107452 0.536714 0.491512
C35   C     C_R   0.368878 0.058777 0.510265 -0.044854
C36   C     C_R   0.382196 0.935959 0.470847 0.067405
C37   C     C_R   0.503328 0.872055 0.479185 -0.122759
H1    H     H_    0.348908 0.462602 0.029406 0.157032
H2    H     H_    0.508090 0.092814 0.901700 0.272152
H3    H     H_    0.527650 0.925589 0.907058 0.273348
H4    H     H_    0.083386 0.884355 0.669083 0.174977
H5    H     H_    0.203927 0.583849 0.791411 0.160881
H6    H     H_    0.072072 0.692649 0.791366 0.110593
H7    H     H_    0.374278 0.756621 0.798372 0.223085
H8    H     H_    0.243815 0.870019 0.791202 0.204760
H9    H     H_    0.115904 0.801208 0.951361 0.261216
H10   H     H_    0.286367 0.849642 0.965964 0.270130
H11   H     H_    0.244522 0.684993 0.959281 0.269426
H12   H     H_    0.731905 0.681025 0.624284 0.216647
H13   H     H_    0.655403 0.514542 0.968868 0.153296
H14   H     H_    0.715754 0.891026 0.498020 0.199582
H15   H     H_    0.066566 0.899081 0.401221 0.165427
H16   H     H_    0.026643 0.091024 0.509309 0.170196
H17   H     H_    0.348525 0.186204 0.700703 0.135183
H18   H     H_    0.211978 0.071255 0.715647 0.112730
H19   H     H_    0.184544 0.353625 0.769186 0.227212
H20   H     H_    0.048858 0.239746 0.782668 0.223761
H21   H     H_    0.167591 0.123812 0.900887 0.271932
H22   H     H_    0.138503 0.285285 0.943030 0.264136
H23   H     H_    0.140920 0.336623 0.408195 0.141951
H24   H     H_    0.305787 0.236268 0.886450 0.274196
H25   H     H_    0.708774 0.114624 0.520313 0.180517
H26   H     H_    0.891394 0.336157 0.408557 0.137307
H27   H     H_    0.286402 0.794214 0.382351 0.161195
H28   H     H_    0.723204 0.818668 0.790584 0.126949
H29   H     H_    0.625011 0.858394 0.692997 0.150863
H30   H     H_    0.744985 0.041206 0.839743 0.220248
H31   H     H_    0.662294 0.088114 0.737699 0.231319
H32   H     H_    0.448242 0.990250 0.808288 0.262771
N1    N     N_R   0.857120 0.501200 0.500900 -0.088841
N2    N     N_R   0.142720 0.501280 0.500940 -0.090431
O1    O     O_R   0.385310 0.683220 0.500000 -0.573953
O2    O     O_3   0.223335 0.679266 0.660869 -0.587426
O3    O     O_3   0.202192 0.204162 0.607448 -0.627760
O4    O     O_R   0.614640 0.683250 0.500010 -0.646629
O5    O     O_R   0.368830 0.499960 0.640340 -0.546628
O6    O     O_R   0.598160 0.499980 0.640350 -0.633005
O7    O     O_R   0.385360 0.316750 0.499990 -0.574614
O8    O     O_R   0.614690 0.316780 0.500000 -0.629445
O9    O     O_R   0.401840 0.500020 0.359650 -0.623978
O10   O     O_R   0.631170 0.500040 0.359660 -0.604464
O11   O     O_3   0.828056 0.910778 0.669258 -0.641032
Zn1   Zn    Zn3+2 0.346870 0.499980 0.499990 0.998997
Zn2   Zn    Zn3+2 0.653130 0.500020 0.500010 0.936073

loop_
_geom_bond_atom_site_label_1
_geom_bond_atom_site_label_2
_ccdc_geom_bond_type
C28   H10   S    
C18   C21   S    
C14   N2    A    
C31   H24   S    
C35   C36   A    
C11   N1    A    
C7    C8    A    
C28   H9    S    
C26   C27   S    
C22   O11   S    
C31   H21   S    
C36   C37   A    
C18   C19   D    
C25   H3    S    
O8    Zn2   S    
O4    Zn2   S    
C15   O7    A    
C29   H17   S    
C30   H20   S    
C26   O2    S    
C34   C35   A    
C31   H22   S    
C22   H29   S    
C24   H30   S    
C27   H7    S    
C15   O8    A    
C19   C20   S    
C8    C9    A    
C4    C12   S    
N1    Zn2   S    
C9    C10   A    
C1    C37   S    
C10   N2    A    
C27   H8    S    
C6    H12   S    
C13   C14   A    
C9    O2    S    
O9    Zn1   S    
O7    Zn1   S    
O5    Zn1   S    
C26   H6    S    
N2    Zn1   S    
C33   H16   S    
C1    O1    A    
C4    O5    A    
C1    O4    A    
C32   H15   S    
C24   C25   S    
C10   C11   A    
C6    C11   A    
C16   C17   S    
C29   O3    S    
C29   H18   S    
O6    Zn2   S    
C30   H19   S    
C17   C21   T    
C16   O9    A    
C22   H28   S    
C29   C30   S    
C19   H1    S    
C13   H26   S    
C12   C20   T    
C33   C34   A    
C8    H4    S    
C34   O3    S    
C23   H27   S    
C22   C24   S    
C25   H32   S    
O10   Zn2   S    
C18   H13   S    
C3    H25   S    
C28   H11   S    
C23   C32   A    
C3    C5    A    
C6    C7    A    
C14   H23   S    
C32   C33   A    
C2    C3    A    
C4    O6    A    
C25   H2    S    
C2    C37   A    
C30   C31   S    
C5    C35   A    
C16   O10   A    
C26   H5    S    
C5    C15   S    
O1    Zn1   S    
C2    H14   S    
C24   H31   S    
C7    O11   S    
C23   C36   A    
C13   N1    A    
C27   C28   S    
