data_mof_unit_27412.cif
_audit_creation_date              2013-03-05T16:01:46-0500
_audit_creation_method            fapswitch 2.2
_symmetry_space_group_name_H-M    P1
_symmetry_Int_Tables_number       1
_space_group_crystal_system       triclinic
_cell_length_a                    14.736481
_cell_length_b                    14.657508
_cell_length_c                    27.815725
_cell_angle_alpha                 76.652384
_cell_angle_beta                  102.90653
_cell_angle_gamma                 114.754304
_cell_volume                      5253.87486996

loop_
_atom_site_label
_atom_site_type_symbol
_atom_site_description
_atom_site_fract_x
_atom_site_fract_y
_atom_site_fract_z
_atom_type_partial_charge
O1    O     O_R   0.977900 0.338120 0.517190 -0.544015
O2    O     O_R   0.022100 0.661880 0.482810 -0.544242
O3    O     O_R   0.839850 0.379180 0.495160 -0.605611
O4    O     O_R   0.160150 0.620820 0.504840 -0.605666
C1    C     C_R   0.880492 0.312127 0.507868 0.836383
C2    C     C_R   0.119507 0.687874 0.492115 0.836208
O5    O     O_R   0.069030 0.479490 0.580750 -0.546030
O6    O     O_R   0.930970 0.520510 0.419250 -0.545732
O7    O     O_R   0.930970 0.520550 0.558720 -0.596594
O8    O     O_R   0.069030 0.479450 0.441280 -0.596324
C3    C     C_R   0.999889 0.500513 0.592402 0.812450
C4    C     C_R   0.000172 0.499601 0.407602 0.811716
Cu1   Cu    Cu3+1 0.081740 0.475690 0.513040 1.003767
Cu2   Cu    Cu3+1 0.918260 0.524310 0.486960 1.003621
C5    C     C_R   0.930756 0.421893 0.823225 0.541568
C6    C     C_R   0.064242 0.582827 0.175823 0.541807
O9    O     O_2   0.865781 0.342147 0.800349 -0.529620
O10   O     O_2   0.123889 0.665359 0.197833 -0.527658
N1    N     N_R   0.998020 0.503821 0.797189 -0.467387
N2    N     N_R   0.002496 0.497691 0.202805 -0.468262
C7    C     C_R   0.065349 0.585360 0.819476 0.540547
C8    C     C_R   0.940674 0.413105 0.181510 0.540566
C9    C     C_R   0.081973 0.500119 0.731095 -0.099580
C10   C     C_R   0.917071 0.497551 0.269139 -0.099918
C11   C     C_R   0.082581 0.499365 0.681152 -0.154275
C12   C     C_R   0.916415 0.498121 0.319101 -0.153081
C13   C     C_R   0.916382 0.506081 0.659912 -0.207470
C14   C     C_R   0.085247 0.497890 0.339819 -0.206422
C15   C     C_R   0.915987 0.506915 0.709897 -0.090314
C16   C     C_R   0.085817 0.497589 0.289786 -0.091354
C17   C     C_R   0.998674 0.503741 0.745685 0.343479
C18   C     C_R   0.001790 0.497500 0.254297 0.346081
C19   C     C_R   0.998726 0.502647 0.897667 -0.043171
C20   C     C_R   0.001774 0.499102 0.102333 -0.042991
C21   C     C_R   0.929757 0.419880 0.873822 -0.022741
C22   C     C_R   0.065150 0.585045 0.125193 -0.023375
C23   C     C_R   0.861352 0.337022 0.900815 -0.138542
C24   C     C_R   0.127218 0.671556 0.097077 -0.138749
C25   C     C_R   0.067070 0.586187 0.870051 -0.022520
C26   C     C_R   0.939030 0.412308 0.130942 -0.023150
C27   C     C_R   0.999579 0.501868 0.645124 -0.038227
C28   C     C_R   0.000637 0.498606 0.354874 -0.036276
H1    H     H_    0.851390 0.508126 0.632958 0.163961
H2    H     H_    0.151218 0.498333 0.366589 0.162613
H3    H     H_    0.851469 0.510081 0.720876 0.149456
H4    H     H_    0.151458 0.497315 0.278539 0.147362
H5    H     H_    0.806648 0.272960 0.883187 0.189926
H6    H     H_    0.175778 0.739106 0.113621 0.190101
C29   C     C_R   0.934828 0.413358 0.028299 0.041975
C30   C     C_R   0.068140 0.587048 0.972129 0.042210
C31   C     C_R   0.066507 0.587529 0.023001 0.042543
C32   C     C_R   0.931493 0.415716 0.976550 0.042623
C33   C     C_R   0.001053 0.499992 0.050994 0.070052
C34   C     C_R   0.999437 0.501815 0.948998 0.069957
C35   C     C_R   0.874470 0.326737 0.058529 -0.197905
C36   C     C_R   0.136797 0.668929 0.943361 -0.197729
C37   C     C_R   0.876502 0.326549 0.108694 -0.136306
C38   C     C_R   0.135913 0.668399 0.893409 -0.136466
O11   O     O_2   0.881369 0.329886 0.209276 -0.526869
O12   O     O_2   0.129973 0.665680 0.792667 -0.528598
C39   C     C_R   0.861823 0.334892 0.951028 -0.197970
C40   C     C_R   0.127881 0.673089 0.047060 -0.197894
H7    H     H_    0.849761 0.497417 0.329728 0.186196
H8    H     H_    0.148266 0.497514 0.670764 0.188763
H9    H     H_    0.851867 0.497439 0.241861 0.149093
H10   H     H_    0.146163 0.497653 0.758554 0.151223
H11   H     H_    0.828511 0.258325 0.130049 0.191342
H12   H     H_    0.190053 0.733103 0.873146 0.190892
H13   H     H_    0.825480 0.256577 0.044938 0.143618
H14   H     H_    0.193827 0.734565 0.958355 0.143087
H15   H     H_    0.805063 0.268877 0.968449 0.142943
H16   H     H_    0.176626 0.743731 0.028225 0.143263
C41   C     C_R   0.813051 0.204353 0.509495 -0.117911
C42   C     C_R   0.186949 0.795659 0.490430 -0.117708
C43   C     C_R   0.782072 0.029503 0.506182 0.324160
C44   C     C_R   0.217920 0.970574 0.493590 0.324168
C45   C     C_R   0.848704 0.130579 0.508171 -0.168381
C46   C     C_R   0.151282 0.869486 0.491645 -0.168519
C47   C     C_R   0.710140 0.177189 0.508767 -0.240805
C48   C     C_R   0.289863 0.822797 0.491180 -0.240744
C49   C     C_R   0.639837 0.077833 0.504353 0.054425
C50   C     C_R   0.360166 0.922186 0.495513 0.054483
C51   C     C_R   0.677249 0.002269 0.505220 0.026599
C52   C     C_R   0.322751 0.997781 0.494588 0.026642
C53   C     C_R   0.533707 0.051681 0.499902 0.100992
C54   C     C_R   0.466296 0.948338 0.499948 0.101009
C55   C     C_R   0.507357 0.874178 0.505473 -0.229677
C56   C     C_R   0.492654 0.125856 0.494340 -0.229741
C57   C     C_R   0.609872 0.900820 0.507184 -0.155302
C58   C     C_R   0.390134 0.099234 0.492598 -0.155193
H17   H     H_    0.635860 0.840023 0.511590 0.197257
H18   H     H_    0.364149 0.160046 0.488150 0.197295
H19   H     H_    0.312819 0.764411 0.487510 0.153232
H20   H     H_    0.687178 0.235514 0.512525 0.153376
H21   H     H_    0.071880 0.848131 0.492711 0.227011
H22   H     H_    0.928087 0.151971 0.507046 0.227244
H23   H     H_    0.462768 0.793713 0.509495 0.143122
H24   H     H_    0.537262 0.206321 0.490289 0.143194
N3    N     N_R   0.795430 0.560780 0.467350 -0.241315
N4    N     N_R   0.204570 0.439220 0.532650 -0.241216
C59   C     C_R   0.717461 0.674855 0.420755 -0.272468
C60   C     C_R   0.282482 0.325026 0.579149 -0.272460
C61   C     C_R   0.797319 0.642818 0.431463 0.534675
C62   C     C_R   0.202550 0.356952 0.568406 0.534846
C63   C     C_R   0.713992 0.507532 0.492306 -0.065702
C64   C     C_R   0.286142 0.492672 0.507798 -0.065241
C65   C     C_R   0.628914 0.535553 0.481874 -0.016398
C66   C     C_R   0.371225 0.464652 0.518213 -0.016327
C67   C     C_R   0.633817 0.622428 0.445839 0.090547
C68   C     C_R   0.366260 0.377671 0.554181 0.090278
C69   C     C_R   0.540382 0.482022 0.505988 0.097502
C70   C     C_R   0.459791 0.518234 0.494124 0.097727
C71   C     C_R   0.470798 0.607026 0.458874 -0.242052
C72   C     C_R   0.529365 0.393206 0.541219 -0.241700
C73   C     C_R   0.555732 0.657346 0.435053 -0.141594
C74   C     C_R   0.444376 0.342798 0.564988 -0.141241
H25   H     H_    0.560541 0.724961 0.407936 0.162959
H26   H     H_    0.439526 0.275118 0.592062 0.163067
H27   H     H_    0.281882 0.555094 0.479428 0.141215
H28   H     H_    0.718354 0.445260 0.520756 0.141575
H29   H     H_    0.721161 0.740994 0.392715 0.189600
H30   H     H_    0.278691 0.258736 0.607097 0.189658
H31   H     H_    0.414966 0.640128 0.448826 0.131154
H32   H     H_    0.585190 0.360096 0.551260 0.131481
N5    N     N_R   0.821873 0.956841 0.503364 0.122933
O13   O     O_R   0.907566 0.959850 0.529896 -0.274197
O14   O     O_R   0.782800 0.900539 0.468178 -0.359156
N6    N     N_R   0.178112 0.043286 0.496323 0.123012
O15   O     O_R   0.092456 0.040264 0.469741 -0.273879
O16   O     O_R   0.217123 0.099650 0.531484 -0.359024
N7    N     N_R   0.118495 0.300824 0.595068 0.137278
O17   O     O_R   0.120492 0.326596 0.637098 -0.371849
O18   O     O_R   0.062100 0.208064 0.587503 -0.326813
N8    N     N_R   0.881090 0.698462 0.404569 0.137304
O19   O     O_R   0.878402 0.672307 0.362524 -0.369985
O20   O     O_R   0.937990 0.791199 0.411998 -0.326785

loop_
_geom_bond_atom_site_label_1
_geom_bond_atom_site_label_2
_geom_bond_distance
_ccdc_geom_bond_type
N3    C61   1.368685 A    
C64   H27   1.075362 S    
C13   C15   1.394593 A    
C69   C70   1.439799 A    
C12   H7    1.082634 S    
N1    C17   1.435061 S    
N6    O15   1.301287 A    
C44   C52   1.419989 A    
Cu2   N3    2.023438 S    
C53   C54   1.421567 A    
O5    C3    1.301808 A    
C63   C65   1.427756 A    
C19   C25   1.407945 A    
O1    C1    1.301629 A    
C44   C46   1.399090 A    
C9    H10   1.082873 S    
N1    C7    1.367987 A    
C61   N8    1.427037 S    
C10   C12   1.393880 A    
C32   C39   1.416197 A    
C59   C67   1.392875 A    
N4    C62   1.368785 A    
C14   C28   1.405831 A    
O4    Cu1   1.935868 S    
C50   C52   1.422854 A    
C4    C28   1.471669 S    
C36   C38   1.388397 A    
C73   H25   1.084471 S    
C62   N7    1.427030 S    
C71   H31   1.076776 S    
C63   H28   1.075371 S    
C24   C40   1.388407 A    
C57   H17   1.081774 S    
C24   H6    1.083551 S    
O6    C4    1.301565 A    
C72   H32   1.076771 S    
C39   H15   1.075881 S    
C59   C61   1.391328 A    
C42   C48   1.393977 A    
Cu1   Cu2   2.693763 S    
C65   C67   1.413282 A    
O2    C2    1.301614 A    
C31   C40   1.416273 A    
C52   C58   1.396541 A    
C37   H11   1.083562 S    
N3    C63   1.367057 A    
C5    C21   1.404104 A    
C70   C71   1.409460 A    
C49   C51   1.422812 A    
C32   C34   1.421441 A    
C49   C53   1.428854 A    
C2    C42   1.468872 S    
C51   C57   1.396518 A    
C47   H20   1.074987 S    
C48   C50   1.404090 A    
C11   C27   1.405270 A    
C8    O11   1.349797 S    
C47   C49   1.404088 A    
C54   C55   1.415446 A    
N8    O20   1.300482 A    
O3    C1    1.299069 A    
C29   C35   1.416224 A    
C25   C38   1.395242 A    
C14   H2    1.083150 S    
C59   H29   1.084777 S    
C66   C70   1.434754 A    
C15   H3    1.082861 S    
C72   C74   1.386009 A    
C43   N5    1.437618 S    
C11   H8    1.082469 S    
C9    C17   1.400509 A    
C5    N1    1.367985 A    
O7    Cu2   1.952744 S    
C10   C18   1.400093 A    
C43   C45   1.399082 A    
C13   C27   1.405900 A    
C58   H18   1.081769 S    
C7    C25   1.404104 A    
C46   H21   1.082818 S    
C6    N2    1.367541 A    
C29   C32   1.422118 A    
C8    C26   1.404041 A    
C30   C31   1.422286 A    
C41   C47   1.393980 A    
C40   H16   1.075810 S    
C30   C34   1.421509 A    
C60   C62   1.391248 A    
O7    C3    1.301227 A    
C35   H13   1.075873 S    
O3    Cu2   1.935867 S    
O8    C4    1.301180 A    
C10   H9    1.082859 S    
C7    O12   1.349810 S    
C38   H12   1.083558 S    
C56   C58   1.385421 A    
C36   H14   1.075803 S    
C35   C37   1.388380 A    
N5    O13   1.301287 A    
C44   N6    1.437612 S    
C20   C26   1.408132 A    
C60   C68   1.392745 A    
O4    C2    1.299092 A    
C23   H5    1.083551 S    
N7    O17   1.299839 A    
C68   C74   1.394286 A    
C12   C28   1.405273 A    
N2    C18   1.433991 S    
C53   C56   1.415397 A    
C19   C34   1.422787 A    
C5    O9    1.349799 S    
O6    Cu2   1.949397 S    
C26   C37   1.395190 A    
C21   C23   1.395253 A    
C65   C69   1.434677 A    
C16   H4    1.082864 S    
N2    C8    1.367521 A    
N7    O18   1.300480 A    
O8    Cu1   1.952742 S    
N6    O16   1.301434 A    
C23   C39   1.388372 A    
C66   C68   1.413289 A    
N8    O19   1.299950 A    
C45   H22   1.082780 S    
N4    C64   1.367164 A    
Cu1   N4    2.023441 S    
C14   C16   1.394630 A    
C15   C17   1.400761 A    
C50   C54   1.428908 A    
C6    C22   1.404093 A    
C16   C18   1.400348 A    
C43   C51   1.419958 A    
C71   C73   1.386120 A    
C64   C66   1.427839 A    
C29   C33   1.421452 A    
C22   C24   1.395191 A    
C19   C21   1.407987 A    
C74   H26   1.084476 S    
C3    C27   1.472270 S    
C69   C72   1.409432 A    
C20   C22   1.408104 A    
C9    C11   1.393846 A    
C1    C41   1.468859 S    
O2    Cu2   1.951492 S    
C30   C36   1.416244 A    
C67   C73   1.394333 A    
C13   H1    1.083127 S    
O5    Cu1   1.949397 S    
O1    Cu1   1.951492 S    
C20   C33   1.422760 A    
C6    O10   1.349783 S    
C42   C46   1.396252 A    
N5    O14   1.301432 A    
C55   C57   1.385428 A    
C41   C45   1.396259 A    
C31   C33   1.421520 A    
C48   H19   1.074919 S    
C60   H30   1.084789 S    
C56   H24   1.076241 S    
C55   H23   1.076196 S    
