data_mof_unit_10068.cif
_audit_creation_date              2012-12-11T14:15:48-0500
_audit_creation_method            fapswitch 2.2
_symmetry_space_group_name_H-M    P1
_symmetry_Int_Tables_number       1
_space_group_crystal_system       triclinic
_cell_length_a                    11.101289
_cell_length_b                    12.719024
_cell_length_c                    23.463933
_cell_angle_alpha                 90.83551
_cell_angle_beta                  97.479465
_cell_angle_gamma                 68.78845
_cell_volume                      3060.41947601

loop_
_atom_site_label
_atom_site_type_symbol
_atom_type_description
_atom_site_fract_x
_atom_site_fract_y
_atom_site_fract_z
_atom_type_partial_charge
Br1   Br    Br    0.755050 0.504427 0.775923 -0.404446
Br2   Br    Br    0.868178 0.179915 0.603003 -0.382371
Br3   Br    Br    0.854993 0.893499 0.702927 -0.471792
Br4   Br    Br    0.560625 0.481928 0.199703 -0.461093
Br5   Br    Br    0.576410 0.458933 0.339964 -0.436546
C1    C     C_R   0.150868 0.617280 0.429755 0.543619
C2    C     C_2   0.232716 0.160643 0.240458 -0.088468
C3    C     C_2   0.144147 0.138858 0.267895 0.015157
C4    C     C_R   0.747875 0.603888 0.403537 0.554885
C5    C     C_1   0.128015 0.180960 0.324837 -0.072725
C6    C     C_1   0.255351 0.128279 0.182542 0.036553
C7    C     C_1   0.115225 0.222191 0.371216 0.018555
C8    C     C_1   0.203277 0.786234 0.134166 0.063134
C9    C     C_2   0.159522 0.754093 0.239657 0.018753
C10   C     C_2   0.255240 0.685400 0.278589 -0.082734
C11   C     C_1   0.232114 0.658592 0.334856 0.061546
C12   C     C_R   0.641429 0.564571 0.308115 0.172989
C13   C     C_1   0.186884 0.768905 0.182440 -0.020292
C14   C     C_1   0.202087 0.638255 0.379854 0.070782
C15   C     C_1   0.620371 0.762384 0.864369 0.103279
C16   C     C_R   0.100940 0.280461 0.423996 0.555349
C17   C     C_2   0.657642 0.744708 0.755890 -0.079284
C18   C     C_2   0.693590 0.644262 0.731775 0.172057
C19   C     C_1   0.697501 0.638044 0.671157 0.005852
C20   C     C_1   0.643186 0.754163 0.815634 0.051510
C21   C     C_1   0.711595 0.626872 0.621389 0.030189
C22   C     C_R   0.190735 0.192009 0.856420 0.063515
C23   C     C_R   0.703280 0.729585 0.317707 -0.140379
C24   C     C_R   0.110510 0.221572 0.640472 0.004987
C25   C     C_R   0.002091 0.178785 0.714812 -0.034908
C26   C     C_R   0.007247 0.194502 0.656838 0.204251
C27   C     C_R   0.213592 0.219981 0.681912 -0.099545
C28   C     C_R   0.152491 0.617334 0.590480 0.524695
C29   C     C_R   0.209410 0.205340 0.740193 0.032950
C30   C     C_R   0.099532 0.188019 0.757268 -0.030579
C31   C     C_R   0.091123 0.179287 0.816267 -0.018454
C32   C     C_R   0.277386 0.238752 0.838368 -0.035131
C33   C     C_R   0.304907 0.221966 0.781669 -0.041130
C34   C     C_R   0.695548 0.738629 0.258085 -0.000443
C35   C     C_R   0.125153 0.748130 0.849921 -0.007248
C36   C     C_R   0.204622 0.640853 0.647940 -0.051961
C37   C     C_R   0.320719 0.565828 0.742187 0.003963
C38   C     C_R   0.301004 0.554769 0.682575 -0.165378
C39   C     C_R   0.137338 0.742203 0.672914 0.039317
C40   C     C_R   0.750163 0.601878 0.565858 0.544135
C41   C     C_R   0.125261 0.738788 0.731499 0.055432
C42   C     C_R   0.223562 0.653293 0.767521 0.004041
C43   C     C_R   0.220668 0.659143 0.826887 -0.121474
C44   C     C_R   0.011864 0.815162 0.813703 0.000453
C45   C     C_R   0.681536 0.650294 0.224122 -0.031422
C46   C     C_R   0.013413 0.812347 0.753895 0.136350
C47   C     C_R   0.292365 0.062789 0.077116 0.517691
C48   C     C_R   0.603128 0.774606 0.081079 0.580688
C49   C     C_R   0.218170 0.813607 0.077019 0.526793
C50   C     C_R   0.238517 0.118900 0.908829 0.601936
C51   C     C_R   0.574859 0.776432 0.918878 0.575512
C52   C     C_R   0.100499 0.277134 0.584960 0.553009
C53   C     C_R   0.162620 0.786419 0.906753 0.580952
C54   C     C_R   0.682705 0.752686 0.138478 0.053625
C55   C     C_R   0.688533 0.636905 0.343353 -0.020585
C56   C     C_R   0.703083 0.649247 0.166430 0.006480
C57   C     C_R   0.640193 0.570098 0.248279 0.132299
C58   C     C_2   0.766675 0.540566 0.138533 0.307452
C59   C     C_2   0.024177 0.818057 0.251363 0.244985
C60   C     C_2   0.979378 0.158576 0.836059 0.283347
C61   C     C_2   0.341701 0.299164 0.879617 0.257747
C62   C     C_2   0.438518 0.206930 0.768770 0.190834
C63   C     C_2   0.707407 0.944446 0.147247 0.244813
C64   C     C_2   0.891664 0.885490 0.837647 0.272776
C65   C     C_2   0.441082 0.482632 0.774135 0.223079
C66   C     C_2   0.104498 0.850879 0.640574 0.308947
C67   C     C_R   0.697557 0.841957 0.172140 -0.049375
C68   C     C_2   0.057340 0.079722 0.242588 0.254953
C69   C     C_R   0.708059 0.831904 0.232123 -0.146546
C70   C     C_1   0.273226 0.100175 0.134198 0.048717
Cr1   Cr    Cr6+3 0.189770 0.415650 0.511620 1.072260
Cr2   Cr    Cr6+3 0.930400 0.667320 0.496770 1.073358
Cr3   Cr    Cr6+3 0.879870 0.417010 0.491650 1.126320
Cr4   Cr    Cr6+3 0.149500 0.973980 0.985330 1.144953
Cr5   Cr    Cr6+3 0.457000 0.976510 0.994660 1.127003
Cr6   Cr    Cr6+3 0.411170 0.724270 0.995270 1.125243
H1    H     H_    0.627934 0.821839 0.729668 0.157370
H2    H     H_    0.794652 0.460969 0.162251 0.155762
H3    H     H_    0.953141 0.868519 0.216776 0.141794
H4    H     H_    0.940520 0.099446 0.814534 0.088573
H5    H     H_    0.413801 0.330107 0.867440 0.125431
H6    H     H_    0.501287 0.239874 0.796347 0.113836
H7    H     H_    0.682279 0.021634 0.170997 0.119729
H8    H     H_    0.822196 0.960438 0.814394 0.150882
H9    H     H_    0.495297 0.407090 0.753042 0.133045
H10   H     H_    0.102722 0.853607 0.594314 0.137749
H11   H     H_    0.989805 0.065656 0.268378 0.130902
H12   H     H_    0.918524 0.162947 0.725770 0.164084
H13   H     H_    0.289130 0.245723 0.669173 0.191899
H14   H     H_    0.295283 0.598872 0.856363 0.205760
H15   H     H_    0.361080 0.479450 0.663091 0.139947
H16   H     H_    0.721021 0.898852 0.258419 0.139093
H17   H     H_    0.729546 0.790629 0.344174 0.164388
H18   H     H_    0.290608 0.206089 0.262193 0.135715
H19   H     H_    0.352104 0.643579 0.266788 0.171047
O1    O     O_R   0.196340 0.303200 0.448500 -0.494804
O2    O     O_R   0.555390 0.700940 0.062700 -0.469032
O3    O     O_R   0.295020 0.731920 0.049950 -0.472770
O4    O     O_R   0.199310 0.519670 0.454880 -0.491891
O5    O     O_R   0.094290 0.884230 0.921550 -0.466342
O6    O     O_R   0.168980 0.069410 0.926940 -0.477265
O7    O     O_R   0.358400 0.089990 0.927950 -0.481021
O8    O     O_R   0.544850 0.873850 0.939920 -0.487359
O9    O     O_R   0.536020 0.701900 0.936430 -0.461987
O10   O     O_R   0.277070 0.732810 0.932890 -0.498159
O11   O     O_3   0.339220 0.891590 0.991750 -0.344424
O12   O     O_R   0.811960 0.658090 0.547150 -0.482072
O13   O     O_R   0.045660 0.691380 0.441680 -0.486258
O14   O     O_R   0.811930 0.659460 0.430950 -0.505495
O15   O     O_R   0.757900 0.507620 0.421760 -0.453962
O16   O     O_R   0.988630 0.322990 0.439840 -0.478844
O17   O     O_R   0.196380 0.301720 0.573850 -0.519024
O18   O     O_R   0.199350 0.518300 0.571080 -0.494441
O19   O     O_R   0.045700 0.689900 0.567030 -0.511359
O20   O     O_2   0.796494 0.538638 0.090120 -0.437628
O21   O     O_2   0.990541 0.817843 0.298842 -0.525894
O22   O     O_2   0.928977 0.208880 0.876648 -0.417235
O23   O     O_R   0.757930 0.506140 0.547110 -0.483072
O24   O     O_2   0.308884 0.321035 0.927420 -0.435098
O25   O     O_2   0.485333 0.148436 0.729641 -0.474216
O26   O     O_2   0.750865 0.942145 0.101853 -0.433661
O27   O     O_2   0.866899 0.858241 0.883144 -0.464908
O28   O     O_2   0.487251 0.500088 0.821769 -0.469730
O29   O     O_2   0.088834 0.938129 0.666054 -0.478001
O30   O     O_2   0.058628 0.047028 0.193425 -0.506725
O31   O     O_R   0.988670 0.321620 0.556040 -0.457431
O32   O     O_3   0.000020 0.499990 0.500010 -0.273954
O33   O     O_R   0.113660 0.883270 0.047820 -0.451263
O34   O     O_R   0.186930 0.068530 0.043990 -0.462928
O35   O     O_R   0.377770 0.089040 0.054220 -0.464245
O36   O     O_R   0.562800 0.872960 0.056970 -0.484272

loop_
_geom_bond_atom_site_label_1
_geom_bond_atom_site_label_2
_ccdc_geom_bond_type
Cr1   O4    S    
C27   H13   S    
C43   H14   S    
C47   O34   A    
C9    C13   S    
Cr3   O15   S    
C10   H19   S    
C15   C51   S    
C47   C70   S    
C48   C54   S    
C40   O12   A    
C2    C3    D    
C40   O23   A    
C2    C6    S    
C1    C14   S    
Cr5   O7    S    
Cr5   O35   S    
C2    H18   S    
C25   C30   A    
C4    O14   A    
C17   H1    S    
C19   C21   T    
C24   C27   A    
C62   O25   D    
C25   C26   A    
C22   C50   S    
Br5   C12   S    
C15   C20   T    
C65   O28   D    
C35   C44   A    
Br4   C57   S    
C37   C65   S    
Cr4   O5    S    
C39   C66   S    
C29   C30   A    
C34   C69   A    
C56   C58   S    
Cr3   O32   S    
C51   O8    A    
C21   C40   S    
C41   C42   A    
C53   O10   A    
C59   H3    S    
C30   C31   A    
C44   C46   A    
C17   C20   S    
C18   C19   S    
C1    O4    A    
C54   C67   A    
C16   O1    A    
C28   O18   A    
C44   C64   S    
C36   C38   A    
C65   H9    S    
C48   O36   A    
C16   O16   A    
C64   H8    S    
C39   C41   A    
C59   O21   D    
C69   H16   S    
Cr6   O2    S    
C23   C55   A    
Cr4   O33   S    
C54   C56   A    
C35   C53   S    
C50   O6    A    
C4    O15   A    
Cr6   O11   S    
C49   O3    A    
C67   C69   A    
Br3   C46   S    
C31   C60   S    
C23   C34   A    
C49   O33   A    
C7    C16   S    
Cr1   O18   S    
Cr4   O6    S    
C50   O7    A    
Br2   C26   S    
Cr2   O32   S    
C27   C29   A    
Cr2   O12   S    
Cr3   O31   S    
C1    O13   A    
C32   C33   A    
C12   C57   A    
C66   O29   D    
C42   C43   A    
C9    C10   D    
C48   O2    A    
C63   C67   S    
C9    C59   S    
C32   C61   S    
C38   H15   S    
C60   O22   D    
C33   C62   S    
Cr3   O23   S    
C5    C7    T    
C8    C13   T    
Cr2   O13   S    
Cr6   O9    S    
Br1   C18   S    
C45   C57   A    
C36   C39   A    
C61   O24   D    
C37   C38   A    
Cr2   O14   S    
C63   O26   D    
C51   O9    A    
C52   O17   A    
C8    C49   S    
Cr6   O3    S    
C23   H17   S    
Cr1   O1    S    
C35   C43   A    
Cr4   O34   S    
C68   O30   D    
C29   C33   A    
C52   O31   A    
Cr3   O16   S    
C68   H11   S    
C24   C52   S    
Cr2   O19   S    
C61   H5    S    
C60   H4    S    
C22   C31   A    
C25   H12   S    
Cr5   O8    S    
C62   H6    S    
Cr1   O17   S    
Cr5   O36   S    
Cr4   O11   S    
C4    C55   S    
C28   C36   S    
C53   O5    A    
C24   C26   A    
C6    C70   T    
C58   O20   D    
Cr1   O32   S    
C22   C32   A    
C11   C14   T    
C63   H7    S    
C41   C46   A    
Cr5   O11   S    
C3    C68   S    
C37   C42   A    
C12   C55   A    
C45   C56   A    
C34   C45   A    
C66   H10   S    
Cr6   O10   S    
C64   O27   D    
C28   O19   A    
C3    C5    S    
C58   H2    S    
C47   O35   A    
C17   C18   D    
C10   C11   S    
