data_mof_unit_51280.cif
_audit_creation_date              2013-03-05T15:40:16-0500
_audit_creation_method            fapswitch 2.2
_symmetry_space_group_name_H-M    P1
_symmetry_Int_Tables_number       1
_space_group_crystal_system       triclinic
_cell_length_a                    29.343334
_cell_length_b                    17.395797
_cell_length_c                    18.942038
_cell_angle_alpha                 90.000692
_cell_angle_beta                  139.821133
_cell_angle_gamma                 89.999227
_cell_volume                      6238.1906675

loop_
_atom_site_label
_atom_site_type_symbol
_atom_site_description
_atom_site_fract_x
_atom_site_fract_y
_atom_site_fract_z
_atom_type_partial_charge
C1    C     C_R   0.188676 0.397967 0.795985 -0.091359
C2    C     C_R   0.811324 0.397970 0.204014 -0.091384
C3    C     C_R   0.688676 0.897971 0.795987 -0.091371
C4    C     C_R   0.311324 0.897967 0.204015 -0.091344
H1    H     H_    0.239342 0.424450 0.845646 0.085698
H2    H     H_    0.760659 0.424455 0.154353 0.085673
H3    H     H_    0.739341 0.924457 0.845648 0.085682
H4    H     H_    0.260658 0.924451 0.154354 0.085704
N1    N     N_R   0.126390 0.429310 0.705280 -0.043657
N2    N     N_R   0.873610 0.429310 0.294720 -0.043641
N3    N     N_R   0.626390 0.929310 0.705280 -0.043646
N4    N     N_R   0.373610 0.929310 0.294720 -0.043660
C5    C     C_R   0.833485 0.603910 0.419572 -0.136230
C6    C     C_R   0.166512 0.603905 0.580416 -0.136223
C7    C     C_R   0.333486 0.103909 0.419575 -0.136224
C8    C     C_R   0.666510 0.103906 0.580408 -0.136227
H5    H     H_    0.782769 0.575709 0.361506 0.085087
H6    H     H_    0.217229 0.575705 0.638485 0.085088
H7    H     H_    0.282770 0.075708 0.361512 0.085090
H8    H     H_    0.717227 0.075708 0.638471 0.085089
N5    N     N_R   0.889410 0.573560 0.453390 -0.038638
N6    N     N_R   0.110590 0.573560 0.546610 -0.038635
N7    N     N_R   0.389410 0.073560 0.453390 -0.038635
N8    N     N_R   0.610590 0.073560 0.546610 -0.038637
C9    C     C_R   0.942713 0.331495 0.570145 -0.115112
C10   C     C_R   0.057289 0.331491 0.429859 -0.115113
C11   C     C_R   0.442716 0.831496 0.570149 -0.115108
C12   C     C_R   0.557289 0.831491 0.429858 -0.115107
H9    H     H_    0.978548 0.284552 0.622542 0.095741
H10   H     H_    0.021452 0.284550 0.377459 0.095733
H11   H     H_    0.478555 0.784555 0.622549 0.095731
H12   H     H_    0.521451 0.784550 0.377457 0.095739
N9    N     N_R   0.940610 0.372370 0.507810 -0.043561
N10   N     N_R   0.059390 0.372370 0.492190 -0.043560
N11   N     N_R   0.440610 0.872370 0.507810 -0.043560
N12   N     N_R   0.559390 0.872370 0.492190 -0.043560
C13   C     C_R   0.089931 0.675348 0.723508 -0.135676
C14   C     C_R   0.910058 0.675358 0.276489 -0.135668
C15   C     C_R   0.589936 0.175354 0.723510 -0.135676
C16   C     C_R   0.410067 0.175349 0.276490 -0.135674
H13   H     H_    0.059747 0.724832 0.704451 0.108936
H14   H     H_    0.940236 0.724847 0.295544 0.108925
H15   H     H_    0.559755 0.224841 0.704453 0.108923
H16   H     H_    0.440249 0.224833 0.295545 0.108930
N13   N     N_R   0.075190 0.630500 0.650860 -0.049850
N14   N     N_R   0.924810 0.630500 0.349140 -0.049853
N15   N     N_R   0.575190 0.130500 0.650860 -0.049851
N16   N     N_R   0.424810 0.130500 0.349140 -0.049848
C17   C     C_R   0.858925 0.421277 0.480494 -0.121052
C18   C     C_R   0.141079 0.421270 0.519511 -0.121050
C19   C     C_R   0.358927 0.921275 0.480499 -0.121053
C20   C     C_R   0.641079 0.921269 0.519511 -0.121046
H17   H     H_    0.816434 0.457396 0.448346 0.093408
H18   H     H_    0.183572 0.457384 0.551659 0.093403
H19   H     H_    0.316434 0.957390 0.448354 0.093408
H20   H     H_    0.683575 0.957380 0.551662 0.093403
N17   N     N_R   0.889410 0.427540 0.453390 -0.045140
N18   N     N_R   0.110590 0.427540 0.546610 -0.045138
N19   N     N_R   0.389410 0.927540 0.453390 -0.045139
N20   N     N_R   0.610590 0.927540 0.546610 -0.045138
C21   C     C_R   0.173645 0.584942 0.812822 -0.055698
C22   C     C_R   0.826347 0.584950 0.187177 -0.055668
C23   C     C_R   0.673649 0.084947 0.812822 -0.055681
C24   C     C_R   0.326353 0.084944 0.187178 -0.055694
H21   H     H_    0.221267 0.551519 0.876027 0.114170
H22   H     H_    0.778723 0.551528 0.123972 0.114078
H23   H     H_    0.721273 0.051525 0.876028 0.114104
H24   H     H_    0.278730 0.051522 0.123974 0.114185
N21   N     N_R   0.126390 0.575330 0.705280 -0.059625
N22   N     N_R   0.873610 0.575330 0.294720 -0.059617
N23   N     N_R   0.626390 0.075330 0.705280 -0.059620
N24   N     N_R   0.373610 0.075330 0.294720 -0.059625
C25   C     C_R   0.915738 0.694291 0.507353 -0.129588
C26   C     C_R   0.084257 0.694287 0.492630 -0.129558
C27   C     C_R   0.415739 0.194290 0.507356 -0.129570
C28   C     C_R   0.584254 0.194288 0.492626 -0.129587
H25   H     H_    0.940427 0.749823 0.530099 0.090735
H26   H     H_    0.059567 0.749820 0.469877 0.090723
H27   H     H_    0.440427 0.249823 0.530103 0.090726
H28   H     H_    0.559566 0.249821 0.469880 0.090735
N25   N     N_R   0.940610 0.629500 0.507810 -0.036274
N26   N     N_R   0.059390 0.629500 0.492190 -0.036270
N27   N     N_R   0.440610 0.129500 0.507810 -0.036271
N28   N     N_R   0.559390 0.129500 0.492190 -0.036274
C29   C     C_R   0.106075 0.307972 0.707690 -0.124979
C30   C     C_R   0.893923 0.307972 0.292308 -0.124958
C31   C     C_R   0.606079 0.807973 0.707693 -0.124966
C32   C     C_R   0.393925 0.807972 0.292310 -0.124981
H29   H     H_    0.080482 0.252500 0.675261 0.090979
H30   H     H_    0.919514 0.252499 0.324734 0.090969
H31   H     H_    0.580489 0.752499 0.675268 0.090969
H32   H     H_    0.419518 0.752500 0.324739 0.090980
N29   N     N_R   0.075190 0.373370 0.650860 -0.044391
N30   N     N_R   0.924810 0.373370 0.349140 -0.044385
N31   N     N_R   0.575190 0.873370 0.650860 -0.044386
N32   N     N_R   0.424810 0.873370 0.349140 -0.044392
C33   C     C_R   0.177537 0.321630 0.798402 0.173919
C34   C     C_R   0.822461 0.321633 0.201595 0.173888
C35   C     C_R   0.677541 0.821634 0.798406 0.173884
C36   C     C_R   0.322463 0.821630 0.201598 0.173908
C37   C     C_R   0.848089 0.680119 0.452043 0.067793
C38   C     C_R   0.151904 0.680111 0.547930 0.067788
C39   C     C_R   0.348090 0.180118 0.452048 0.067784
C40   C     C_R   0.651899 0.180113 0.547919 0.067793
C41   C     C_R   0.892497 0.362089 0.556376 0.066122
C42   C     C_R   0.107507 0.362078 0.443631 0.066120
C43   C     C_R   0.392501 0.862086 0.556383 0.066119
C44   C     C_R   0.607507 0.862078 0.443630 0.066110
C45   C     C_R   0.150438 0.646327 0.825895 0.205751
C46   C     C_R   0.849546 0.646340 0.174102 0.205855
C47   C     C_R   0.650446 0.146334 0.825897 0.205826
C48   C     C_R   0.349558 0.146328 0.174103 0.205733
Ni1   Ni    Ni4+2 0.118300 0.501760 0.624810 0.217643
Ni2   Ni    Ni4+2 0.881700 0.501760 0.375190 0.217642
Ni3   Ni    Ni4+2 0.618300 0.001760 0.624810 0.217645
Ni4   Ni    Ni4+2 0.381700 0.001760 0.375190 0.217642
Ni5   Ni    Ni4+2 0.000000 0.373470 0.500000 0.222688
Ni6   Ni    Ni4+2 0.500000 0.873470 0.500000 0.222686
Ni7   Ni    Ni4+2 0.000000 0.628290 0.500000 0.226129
Ni8   Ni    Ni4+2 0.500000 0.128290 0.500000 0.226128
C49   C     C_2   0.780892 0.192264 0.124442 -0.203370
C50   C     C_2   0.219096 0.192261 0.875557 -0.203469
C51   C     C_2   0.280903 0.692261 0.124443 -0.203437
C52   C     C_2   0.719114 0.692265 0.875560 -0.203361
C53   C     C_2   0.766730 0.265204 0.125533 -0.244499
C54   C     C_2   0.233264 0.265197 0.874462 -0.244487
C55   C     C_2   0.266735 0.765197 0.125540 -0.244479
C56   C     C_2   0.733274 0.765208 0.874474 -0.244488
H33   H     H_    0.833761 0.168995 0.192172 0.160282
H34   H     H_    0.166223 0.169001 0.807829 0.160327
H35   H     H_    0.333776 0.669000 0.192167 0.160314
H36   H     H_    0.666248 0.668992 0.807823 0.160270
H37   H     H_    0.712833 0.286648 0.060726 0.144325
H38   H     H_    0.287163 0.286635 0.939262 0.144328
H39   H     H_    0.212836 0.786635 0.060745 0.144332
H40   H     H_    0.787169 0.786655 0.939292 0.144335
C57   C     C_2   0.229092 0.646206 0.023500 0.409188
C58   C     C_2   0.770925 0.646219 0.976511 0.409168
C59   C     C_2   0.729080 0.146214 0.023493 0.409177
C60   C     C_2   0.270904 0.146207 0.976500 0.409215
C61   C     C_2   0.187884 0.683170 0.927476 -0.386253
C62   C     C_2   0.812085 0.683187 0.072517 -0.386400
C63   C     C_2   0.687901 0.183180 0.927480 -0.386354
C64   C     C_2   0.312112 0.183170 0.072523 -0.386255
H41   H     H_    0.186886 0.745471 0.923543 0.151850
H42   H     H_    0.813036 0.745485 0.076429 0.151878
H43   H     H_    0.686932 0.245479 0.923561 0.151856
H44   H     H_    0.313112 0.245470 0.076456 0.151846
C65   C     C_R   0.125971 0.334021 0.394773 0.130002
C66   C     C_R   0.874030 0.334033 0.605228 0.129992
C67   C     C_R   0.625971 0.834020 0.394771 0.129997
C68   C     C_R   0.374037 0.834025 0.605239 0.130005
C69   C     C_R   0.798211 0.736352 0.422369 0.124995
C70   C     C_R   0.201779 0.736339 0.577592 0.125007
C71   C     C_R   0.298213 0.236352 0.422374 0.125004
C72   C     C_R   0.701769 0.236347 0.577572 0.125004
C73   C     C_R   0.777829 0.859204 0.454959 -0.205189
C74   C     C_R   0.222171 0.859198 0.545032 -0.205211
C75   C     C_R   0.277832 0.359203 0.454968 -0.205207
C76   C     C_R   0.722140 0.359196 0.544964 -0.205197
C77   C     C_R   0.820190 0.811619 0.464018 -0.156843
C78   C     C_R   0.179805 0.811610 0.535961 -0.156863
C79   C     C_R   0.320193 0.311617 0.464026 -0.156855
C80   C     C_R   0.679780 0.311608 0.535901 -0.156855
C81   C     C_R   0.730056 0.712519 0.361045 -0.268464
C82   C     C_R   0.269931 0.712500 0.638903 -0.268473
C83   C     C_R   0.230056 0.212520 0.361047 -0.268466
C84   C     C_R   0.769928 0.212520 0.638910 -0.268469
C85   C     C_R   0.689140 0.758108 0.356720 0.186656
C86   C     C_R   0.310853 0.758096 0.643250 0.186661
C87   C     C_R   0.189141 0.258109 0.356722 0.186655
C88   C     C_R   0.810845 0.258113 0.643246 0.186653
C89   C     C_R   0.214489 0.330828 0.407686 0.181277
C90   C     C_R   0.785492 0.330829 0.592272 0.181281
C91   C     C_R   0.714487 0.830828 0.407681 0.181270
C92   C     C_R   0.285513 0.830823 0.592310 0.181277
C93   C     C_R   0.180609 0.369976 0.421782 -0.262769
C94   C     C_R   0.819379 0.369981 0.578194 -0.262766
C95   C     C_R   0.680606 0.869976 0.421776 -0.262769
C96   C     C_R   0.319401 0.869979 0.578233 -0.262775
C97   C     C_R   0.096171 0.265794 0.333272 -0.155867
C98   C     C_R   0.903835 0.265813 0.666740 -0.155858
C99   C     C_R   0.596172 0.765792 0.333273 -0.155862
C100  C     C_R   0.403832 0.765792 0.666723 -0.155867
C101  C     C_R   0.127089 0.228546 0.312785 -0.216009
C102  C     C_R   0.872907 0.228559 0.687209 -0.215999
C103  C     C_R   0.627090 0.728543 0.312787 -0.216005
C104  C     C_R   0.372905 0.728533 0.687188 -0.216017
H45   H     H_    0.202022 0.424542 0.464078 0.119115
H46   H     H_    0.797961 0.424544 0.535891 0.119114
H47   H     H_    0.702018 0.924544 0.464068 0.119118
H48   H     H_    0.297993 0.924551 0.535953 0.119120
H49   H     H_    0.052177 0.238167 0.307244 0.120114
H50   H     H_    0.947840 0.238193 0.692789 0.120125
H51   H     H_    0.552179 0.738163 0.307249 0.120121
H52   H     H_    0.447826 0.738165 0.692749 0.120110
H53   H     H_    0.297424 0.415431 0.493141 0.130243
H54   H     H_    0.702542 0.415420 0.506779 0.130247
H55   H     H_    0.797420 0.915433 0.493131 0.130251
H56   H     H_    0.202584 0.915432 0.506877 0.130248
H57   H     H_    0.606278 0.673405 0.271489 0.128372
H58   H     H_    0.393713 0.673391 0.728473 0.128367
H59   H     H_    0.106276 0.173409 0.271484 0.128370
H60   H     H_    0.893725 0.173426 0.728518 0.128377
H61   H     H_    0.871603 0.832568 0.509213 0.120567
H62   H     H_    0.128396 0.832563 0.490775 0.120562
H63   H     H_    0.371606 0.332565 0.509225 0.120557
H64   H     H_    0.628362 0.332551 0.490688 0.120567
H65   H     H_    0.710816 0.655843 0.325136 0.115473
H66   H     H_    0.289164 0.655818 0.674791 0.115473
H67   H     H_    0.210816 0.155845 0.325133 0.115475
H68   H     H_    0.789172 0.155847 0.674831 0.115476
N33   N     N_R   0.729482 0.063658 0.030723 0.234056
O1    O     O_R   0.785266 0.028777 0.120930 -0.415448
O2    O     O_R   0.671076 0.024809 0.955091 -0.391260
N34   N     N_R   0.270460 0.063648 0.969261 0.234037
O3    O     O_R   0.214605 0.028767 0.879120 -0.415517
O4    O     O_R   0.328860 0.024775 0.044818 -0.391259
N35   N     N_R   0.229531 0.563647 0.030741 0.234038
O5    O     O_R   0.285369 0.528769 0.120904 -0.415497
O6    O     O_R   0.171130 0.524777 0.955166 -0.391257
N36   N     N_R   0.770544 0.563666 0.969289 0.234066
O7    O     O_R   0.714781 0.528776 0.879065 -0.415418
O8    O     O_R   0.828953 0.524827 0.044949 -0.391255

loop_
_geom_bond_atom_site_label_1
_geom_bond_atom_site_label_2
_geom_bond_distance
_ccdc_geom_bond_type
C28   C40   1.385986 A    
C27   C39   1.385986 A    
C50   C60   1.472142 S    
C32   N32   1.335522 A    
N2    N30   1.378476 A    
N9    Ni5   1.858284 S    
C49   C59   1.472144 S    
N1    N29   1.378485 A    
C36   C55   1.453754 S    
C62   H42   1.085163 S    
C34   C53   1.453747 S    
C3    N3    1.338359 A    
C64   H44   1.085164 S    
C21   C45   1.386695 A    
C10   C42   1.391103 A    
C9    C41   1.391101 A    
C16   C48   1.380873 A    
C86   C92   1.410030 A    
N33   O1    1.301283 A    
N22   Ni2   1.861390 S    
C2    C34   1.376655 A    
C63   H43   1.085174 S    
C41   C66   1.467800 S    
C87   C89   1.410033 A    
C75   H53   1.083919 S    
N21   Ni1   1.861371 S    
C18   H18   1.077032 S    
C27   H27   1.080148 S    
N29   Ni5   1.843795 S    
C13   H13   1.080375 S    
C1    H1    1.081849 S    
N6    N26   1.378473 A    
N32   Ni6   1.843797 S    
C8    H8    1.078849 S    
C26   N26   1.339173 A    
C14   H14   1.080371 S    
N34   O4    1.301734 A    
C3    H3    1.081849 S    
C56   H40   1.086577 S    
C94   H46   1.080947 S    
N30   Ni5   1.843797 S    
C17   H17   1.077022 S    
C6    C38   1.384471 A    
C72   C84   1.403899 A    
C53   H37   1.086575 S    
C76   C80   1.390594 A    
C3    C35   1.376649 A    
C17   N17   1.333187 A    
C52   H36   1.084053 S    
C9    H9    1.078366 S    
N11   N19   1.369051 A    
C98   C102  1.389809 A    
C73   C77   1.390635 A    
C79   H63   1.080780 S    
C4    H4    1.081848 S    
C46   C62   1.445579 S    
C84   H68   1.080121 S    
C57   C61   1.350250 D    
C20   N20   1.333238 A    
N7    Ni4   1.814736 S    
C20   H20   1.077036 S    
C59   C63   1.350244 D    
C10   N10   1.338755 A    
N6    Ni1   1.814757 S    
C32   H32   1.080550 S    
C88   C102  1.398881 A    
N19   Ni4   1.843982 S    
C95   H47   1.080953 S    
C31   N31   1.335537 A    
N18   Ni1   1.843961 S    
C99   H51   1.080743 S    
C98   H50   1.080757 S    
C89   C93   1.388894 A    
C14   C46   1.380882 A    
N12   Ni6   1.858282 S    
C4    N4    1.338368 A    
C38   C70   1.468940 S    
C13   C45   1.380872 A    
N2    Ni2   1.848025 S    
C61   H41   1.085192 S    
C52   C56   1.340236 D    
C69   C81   1.403924 A    
N13   Ni7   1.844195 S    
N10   Ni5   1.858282 S    
C7    N7    1.332558 A    
C8    N8    1.332580 A    
C42   C65   1.467799 S    
C90   C94   1.388867 A    
C78   H62   1.080776 S    
C65   C97   1.404904 A    
C22   N22   1.335686 A    
C77   H61   1.080785 S    
C2    H2    1.081847 S    
C29   N29   1.335519 A    
N26   Ni7   1.858304 S    
N16   N24   1.369062 A    
C30   C34   1.378502 A    
C54   H38   1.086572 S    
C25   N25   1.339167 A    
C8    C40   1.384491 A    
C31   C35   1.378508 A    
N33   O2    1.301738 A    
N31   Ni6   1.843795 S    
C81   C85   1.388084 A    
C23   H23   1.080591 S    
C28   N28   1.339174 A    
C18   C42   1.390310 A    
C93   H45   1.080951 S    
C31   H31   1.080551 S    
C22   H22   1.080594 S    
N13   N21   1.369050 A    
C18   N18   1.333222 A    
C58   N36   1.441824 S    
C28   H28   1.080157 S    
C12   H12   1.078371 S    
C1    N1    1.338369 A    
N34   O3    1.301376 A    
C85   C103  1.398877 A    
C66   C98   1.404896 A    
C30   H30   1.080552 S    
C1    C33   1.376667 A    
N35   O5    1.301359 A    
C97   C101  1.389799 A    
C33   C54   1.453748 S    
C83   C87   1.388087 A    
C71   C79   1.405403 A    
C37   C69   1.468944 S    
C100  H52   1.080740 S    
C11   H11   1.078367 S    
N23   Ni3   1.861371 S    
C100  C104  1.389790 A    
C69   C77   1.405403 A    
C73   H55   1.083920 S    
N27   Ni8   1.858305 S    
C50   C54   1.340250 D    
C60   N34   1.441813 S    
C7    H7    1.078848 S    
C49   C53   1.340242 D    
C87   C101  1.398877 A    
C99   C103  1.389793 A    
N35   O6    1.301764 A    
C44   C67   1.467808 S    
C92   C96   1.388903 A    
C74   H56   1.083915 S    
C22   C46   1.386674 A    
C11   C43   1.391100 A    
N28   Ni8   1.858304 S    
N15   N23   1.369050 A    
C57   N35   1.441836 S    
C65   C93   1.403559 A    
C30   N30   1.335532 A    
C85   C91   1.410033 A    
C102  H60   1.083918 S    
N9    N17   1.369051 A    
C48   C64   1.445599 S    
C40   C72   1.468957 S    
N36   O8    1.301725 A    
C6    N6    1.332554 A    
C12   N12   1.338769 A    
C32   C36   1.378492 A    
N7    N27   1.378484 A    
C73   C91   1.398858 A    
C43   C68   1.467795 S    
C74   C92   1.398857 A    
N15   Ni8   1.844195 S    
N5    N25   1.378484 A    
C82   C86   1.388073 A    
C4    C36   1.376666 A    
C96   H48   1.080953 S    
C67   C95   1.403560 A    
C75   C79   1.390625 A    
C68   C100  1.404902 A    
C52   C58   1.472138 S    
C13   N13   1.334116 A    
C2    N2    1.338361 A    
C24   H24   1.080588 S    
C51   C55   1.340250 D    
C27   N27   1.339167 A    
N14   N22   1.369061 A    
N3    Ni3   1.848048 S    
N16   Ni8   1.844197 S    
C15   N15   1.334123 A    
C70   C82   1.403918 A    
C84   C88   1.388060 A    
N3    N31   1.378485 A    
C16   N16   1.334122 A    
C51   C57   1.472147 S    
C59   N33   1.441831 S    
C29   H29   1.080550 S    
C25   C37   1.385982 A    
C58   C62   1.350238 D    
C51   H35   1.084053 S    
N24   Ni4   1.861390 S    
C76   C90   1.398846 A    
C6    H6    1.078849 S    
C70   C78   1.405401 A    
C17   C41   1.390296 A    
C60   C64   1.350219 D    
C49   H33   1.084054 S    
N5    Ni2   1.814736 S    
N12   N20   1.369062 A    
C91   C95   1.388892 A    
C67   C99   1.404904 A    
N17   Ni2   1.843982 S    
C47   C63   1.445591 S    
N25   Ni7   1.858305 S    
C66   C94   1.403580 A    
C26   C38   1.386000 A    
C11   N11   1.338751 A    
C101  H59   1.083921 S    
N8    N28   1.378473 A    
N1    Ni1   1.848048 S    
N11   Ni6   1.858284 S    
C5    N5    1.332556 A    
C72   C80   1.405416 A    
C15   C47   1.380878 A    
C81   H65   1.080118 S    
C103  H57   1.083922 S    
C71   C83   1.403920 A    
C12   C44   1.391110 A    
C76   H54   1.083923 S    
C104  H58   1.083921 S    
C88   C90   1.410032 A    
N14   Ni7   1.844197 S    
C35   C56   1.453750 S    
C19   H19   1.077033 S    
C21   N21   1.335690 A    
C24   N24   1.335690 A    
C23   C47   1.386683 A    
N36   O7    1.301303 A    
C55   H39   1.086573 S    
C14   N14   1.334121 A    
C24   C48   1.386693 A    
C29   C33   1.378492 A    
C74   C78   1.390632 A    
C83   H67   1.080117 S    
C5    H5    1.078846 S    
C80   H64   1.080769 S    
C21   H21   1.080592 S    
C16   H16   1.080372 S    
C19   N19   1.333237 A    
C20   C44   1.390316 A    
N8    Ni3   1.814757 S    
C19   C43   1.390313 A    
C75   C89   1.398855 A    
C15   H15   1.080373 S    
C86   C104  1.398872 A    
N10   N18   1.369062 A    
C25   H25   1.080148 S    
N4    N32   1.378476 A    
N20   Ni3   1.843961 S    
C45   C61   1.445608 S    
C97   H49   1.080741 S    
C68   C96   1.403555 A    
C7    C39   1.384467 A    
C5    C37   1.384464 A    
C23   N23   1.335690 A    
C50   H34   1.084052 S    
C82   H66   1.080112 S    
C39   C71   1.468942 S    
C9    N9    1.338743 A    
N4    Ni4   1.848025 S    
C10   H10   1.078366 S    
C26   H26   1.080146 S    
