data_mof_unit_31012.cif
_audit_creation_date              2012-12-11T14:17:50-0500
_audit_creation_method            fapswitch 2.2
_symmetry_space_group_name_H-M    P1
_symmetry_Int_Tables_number       1
_space_group_crystal_system       triclinic
_cell_length_a                    6.943614
_cell_length_b                    13.660483
_cell_length_c                    20.380737
_cell_angle_alpha                 102.12149
_cell_angle_beta                  89.742732
_cell_angle_gamma                 90.951881
_cell_volume                      1889.81364179

loop_
_atom_site_label
_atom_site_type_symbol
_atom_type_description
_atom_site_fract_x
_atom_site_fract_y
_atom_site_fract_z
_atom_type_partial_charge
O1    O     O_R   0.506860 0.599390 0.449240 -0.540522
O2    O     O_R   0.180220 0.594600 0.586780 -0.545739
O3    O     O_R   0.004500 0.400610 0.550760 -0.540805
C1    C     C_R   0.349409 0.615841 0.613528 0.759235
O4    O     O_R   0.177490 0.611290 0.451970 -0.543987
O5    O     O_R   0.001750 0.417420 0.414990 -0.521417
C2    C     C_R   0.347600 0.638239 0.435553 0.699907
O6    O     O_R   0.509610 0.582580 0.585010 -0.543854
O7    O     O_3   0.337420 0.436370 0.488020 -0.363433
V1    V     V_3+5 0.064680 0.511800 0.502220 1.428857
O8    O     O_R   0.671710 0.405400 0.413220 -0.540218
C3    C     C_R   0.840521 0.385652 0.385776 0.749363
O9    O     O_R   0.674440 0.388710 0.548030 -0.542994
C4    C     C_R   0.841653 0.362013 0.564785 0.712498
V2    V     V_3+5 0.564010 0.488200 0.497780 1.431695
O10   O     O_3   0.841140 0.563630 0.511980 -0.378681
C5    C     C_R   0.757759 0.114866 0.613824 0.302947
H1    H     H_    0.694565 0.997401 0.702545 0.165407
C6    C     C_R   0.842043 0.284251 0.604322 -0.071310
C7    C     C_R   0.929531 0.312852 0.926849 -0.166550
C8    C     C_R   0.954794 0.386807 0.889975 -0.122216
C9    C     C_R   0.926855 0.364948 0.820740 -0.156750
C10   C     C_R   0.869303 0.267646 0.786393 0.097516
C11   C     C_R   0.835834 0.193425 0.825150 0.075142
C12   C     C_R   0.845239 0.241363 0.715043 0.022946
C13   C     C_R   0.784676 0.142076 0.684224 0.108050
C14   C     C_R   0.746463 0.072297 0.724257 -0.186368
C15   C     C_R   0.772310 0.097379 0.793144 -0.238897
C16   C     C_R   0.876346 0.310802 0.673268 -0.227099
C17   C     C_R   0.782361 0.187114 0.574917 -0.237547
C18   C     C_R   0.870013 0.216277 0.895297 -0.081578
H2    H     H_    0.958872 0.330648 0.980259 0.103878
H3    H     H_    0.952490 0.426047 0.795838 0.106882
H4    H     H_    0.000277 0.461438 0.915085 0.119171
H5    H     H_    0.740096 0.040737 0.821500 0.134482
C19   C     C_2   0.004571 0.308684 0.277108 0.340786
C20   C     C_2   0.850054 0.315373 0.319286 -0.385600
C21   C     C_2   0.013039 0.228198 0.214231 -0.166755
C22   C     C_2   0.857483 0.189054 0.178328 -0.372325
C23   C     C_2   0.200637 0.794991 0.779300 0.339052
C24   C     C_2   0.355069 0.810879 0.821050 -0.393354
H6    H     H_    0.480840 0.764764 0.808423 0.113859
C25   C     C_2   0.203727 0.714644 0.716493 -0.169256
C26   C     C_2   0.361895 0.687214 0.679063 -0.372370
C27   C     C_R   0.420843 0.886541 0.387282 -0.157680
H7    H     H_    0.417901 0.836176 0.480182 0.110878
H8    H     H_    0.453363 0.010434 0.303548 0.123081
H9    H     H_    0.451580 0.963474 0.412000 0.107335
C28   C     C_R   0.361182 0.715052 0.395551 -0.032152
C29   C     C_R   0.314027 0.686610 0.071961 -0.164829
C30   C     C_R   0.293851 0.611362 0.108019 -0.118511
C31   C     C_R   0.309885 0.633470 0.177707 -0.162856
C32   C     C_R   0.347378 0.732690 0.213456 0.077504
C33   C     C_R   0.369612 0.809414 0.176013 0.066997
C34   C     C_R   0.363129 0.758362 0.284957 0.072996
C35   C     C_R   0.402391 0.859571 0.317162 0.144810
C36   C     C_R   0.423687 0.933162 0.279303 -0.204893
C37   C     C_R   0.407247 0.908732 0.209926 -0.197239
C38   C     C_R   0.341939 0.687121 0.325862 -0.220507
C39   C     C_R   0.401321 0.814503 0.426210 -0.183347
C40   C     C_R   0.352161 0.785252 0.105170 -0.073819
H10   H     H_    0.299338 0.667938 0.017827 0.102584
H11   H     H_    0.291825 0.571001 0.201847 0.111568
H12   H     H_    0.424709 0.968759 0.183039 0.118967
O11   O     O_R   0.203230 0.917310 0.915020 -0.521179
O12   O     O_R   0.535500 0.888690 0.048040 -0.541405
O13   O     O_R   0.711080 0.082610 0.085000 -0.545562
C41   C     C_R   0.365552 0.862305 0.064970 0.686283
O14   O     O_R   0.532630 0.905370 0.913230 -0.543851
O15   O     O_R   0.708190 0.099410 0.949230 -0.542001
C42   C     C_R   0.363372 0.884103 0.886309 0.751263
O16   O     O_R   0.206120 0.900510 0.050790 -0.538939
O17   O     O_3   0.375360 0.063570 0.011990 -0.377640
V3    V     V_3+5 0.648170 0.988200 0.997780 1.430569
O18   O     O_R   0.038240 0.111390 0.951940 -0.542526
C43   C     C_R   0.870957 0.137991 0.935021 0.685511
O19   O     O_R   0.041120 0.094710 0.086750 -0.544550
C44   C     C_R   0.872140 0.116603 0.113285 0.761614
V4    V     V_3+5 0.148810 0.011930 0.002180 1.434930
O20   O     O_3   0.871750 0.936430 0.988010 -0.362195
H13   H     H_    0.753829 0.167552 0.521461 0.108148
H14   H     H_    0.728139 0.264385 0.306531 0.108730
H15   H     H_    0.153557 0.203674 0.194617 0.148271
H16   H     H_    0.714377 0.213643 0.195100 0.130377
N1    N     N_2   0.032952 0.855232 0.795547 -0.479875
H17   H     H_    0.059918 0.931287 0.803287 0.255934
C45   C     C_3   0.854987 0.823226 0.760281 -0.575300
H18   H     H_    0.737172 0.872777 0.782776 0.193705
H19   H     H_    0.815339 0.746058 0.765303 0.192827
H20   H     H_    0.868735 0.827131 0.706551 0.188547
H21   H     H_    0.067479 0.680157 0.697880 0.148938
H22   H     H_    0.501564 0.720211 0.694944 0.134236
H23   H     H_    0.312680 0.609110 0.305376 0.093392
H24   H     H_    0.264577 0.535106 0.081759 0.116194
N2    N     N_2   0.698830 0.015907 0.582055 -0.537396
H25   H     H_    0.609147 0.013078 0.541440 0.253621
C46   C     C_3   0.855523 0.946303 0.566354 -0.569594
H26   H     H_    0.952610 0.968789 0.528383 0.201666
H27   H     H_    0.796455 0.870087 0.545606 0.201187
H28   H     H_    0.939552 0.943535 0.612174 0.205702
H29   H     H_    0.919402 0.387446 0.692831 0.105186
N3    N     N_2   0.160543 0.380059 0.293087 -0.484118
H30   H     H_    0.117918 0.453672 0.304823 0.244625
C47   C     C_3   0.338104 0.365178 0.255096 -0.571812
H31   H     H_    0.444302 0.424644 0.276988 0.193630
H32   H     H_    0.312059 0.369418 0.202025 0.185060
H33   H     H_    0.400730 0.291954 0.257951 0.194864

loop_
_geom_bond_atom_site_label_1
_geom_bond_atom_site_label_2
_ccdc_geom_bond_type
O12   C41   A    
C34   C35   A    
C27   C39   A    
O11   V4    S    
C34   C38   A    
C21   H15   S    
C24   H6    S    
C32   C34   A    
N2    H25   S    
C1    O6    A    
C47   H32   S    
C46   H26   S    
C36   C37   A    
C32   C33   A    
C13   C14   A    
C28   C39   A    
C5    C13   A    
C19   C20   D    
C22   H16   S    
O16   V4    S    
C33   C37   A    
C21   C22   D    
V2    O10   S    
O12   V3    S    
C35   C36   A    
C19   N3    S    
O17   V3    S    
C3    C20   S    
O14   C42   A    
O18   C43   A    
O8    V2    S    
C23   C25   S    
C15   H5    S    
O15   V3    S    
C10   C11   A    
O1    V2    S    
O7    V1    S    
C26   H22   S    
C24   C42   S    
O19   V4    S    
V3    O20   S    
C8    C9    A    
C12   C16   A    
C5    C17   A    
O13   C44   A    
C47   H31   S    
C46   H27   S    
N1    C45   S    
C37   H12   S    
C30   C31   A    
C22   C44   S    
C2    C28   S    
O4    C2    A    
C8    H4    S    
C1    C26   S    
C12   C13   A    
O19   C44   A    
C25   H21   S    
C23   N1    S    
O2    C1    A    
C25   C26   D    
H8    C36   S    
C41   O16   A    
C29   C30   A    
O17   V4    S    
C16   H29   S    
O14   V3    S    
O13   V3    S    
N3    C47   S    
N1    H17   S    
O3    C4    A    
C5    N2    S    
C23   C24   D    
O6    V2    S    
C45   H19   S    
O15   C43   A    
C29   H10   S    
C20   H14   S    
C6    C16   A    
C46   H28   S    
C31   C32   A    
C7    H2    S    
C27   H9    S    
C9    H3    S    
C27   C35   A    
H7    C39   S    
O1    C2    A    
C4    C6    S    
H1    C14   S    
C11   C15   A    
C31   H11   S    
O5    V1    S    
O8    C3    A    
N2    C46   S    
C33   C40   A    
C28   C38   A    
C17   H13   S    
O9    V2    S    
O7    V2    S    
C11   C18   A    
O4    V1    S    
O3    V1    S    
O11   C42   A    
O5    C3    A    
C40   C41   S    
C18   C43   S    
C19   C21   S    
C10   C12   A    
N3    H30   S    
C30   H24   S    
V4    O20   S    
C7    C8    A    
C45   H18   S    
C45   H20   S    
C14   C15   A    
C29   C40   A    
C9    C10   A    
V1    O10   S    
C38   H23   S    
O9    C4    A    
C6    C17   A    
O18   V4    S    
C47   H33   S    
C7    C18   A    
O2    V1    S    
