data_mof_unit_37921.cif
_audit_creation_date              2012-12-10T17:07:49-0500
_audit_creation_method            fapswitch 2.2
_symmetry_space_group_name_H-M    P1
_symmetry_Int_Tables_number       1
_space_group_crystal_system       triclinic
_cell_length_a                    10.639105
_cell_length_b                    10.684737
_cell_length_c                    10.051775
_cell_angle_alpha                 88.887001
_cell_angle_beta                  89.972886
_cell_angle_gamma                 90.262668
_cell_volume                      1142.41819758

loop_
_atom_site_label
_atom_site_type_symbol
_atom_type_description
_atom_site_fract_x
_atom_site_fract_y
_atom_site_fract_z
_atom_type_partial_charge
C1    C     C_R   0.490008 0.263012 0.501188 0.805875
C2    C     C_3   0.878107 0.507832 0.498209 -0.079024
C3    C     C_3   0.926967 0.577781 0.369676 0.203837
C4    C     C_3   0.923254 0.368678 0.504242 0.228837
C5    C     C_2   0.461911 0.933394 0.398220 -0.194600
C6    C     C_2   0.524725 0.869437 0.492327 0.390203
C7    C     C_2   0.467955 0.067684 0.392629 -0.283124
C8    C     C_2   0.458051 0.132732 0.504547 0.468200
C9    C     C_2   0.554860 0.584476 0.925513 0.565507
C10   C     C_2   0.521714 0.598364 0.071804 0.400710
C11   C     C_R   0.258140 0.502980 0.499765 0.938174
C12   C     C_R   0.506341 0.737146 0.498523 0.751027
C13   C     C_R   0.741756 0.506538 0.499719 0.943928
C14   C     C_3   0.071993 0.571214 0.626271 -0.522990
C15   C     C_3   0.928579 0.577622 0.622023 -0.493951
C16   C     C_3   0.071636 0.575851 0.369354 0.428696
C17   C     C_3   0.069458 0.367971 0.507541 0.241164
C18   C     C_3   0.122224 0.506159 0.498507 -0.175508
H1    H     H_    0.112958 0.664542 0.643799 0.200709
H2    H     H_    0.095731 0.515589 0.285972 0.065590
H3    H     H_    0.894318 0.526380 0.279953 0.096193
H4    H     H_    0.404254 0.886886 0.324635 0.167379
H5    H     H_    0.485242 0.112289 0.296267 0.153900
H6    H     H_    0.099511 0.516656 0.717161 0.207574
H7    H     H_    0.519691 0.415465 0.107523 0.164203
H8    H     H_    0.891336 0.534098 0.715544 0.202235
H9    H     H_    0.897738 0.676992 0.619666 0.234383
H10   H     H_    0.090984 0.336613 0.611353 0.088417
H11   H     H_    0.888432 0.329191 0.601801 0.066183
N1    N     N_2   0.501360 0.501330 0.852150 0.001546
N2    N     N_2   0.501390 0.501360 0.147810 -0.186576
O1    O     O_R   0.499980 0.319060 0.613040 -0.597524
O2    O     O_R   0.500020 0.319100 0.386900 -0.648367
O3    O     O_R   0.314770 0.499960 0.613070 -0.645547
O4    O     O_R   0.314820 0.500000 0.386930 -0.592869
O5    O     O_R   0.499980 0.680900 0.613100 -0.575085
O6    O     O_R   0.500020 0.680940 0.386960 -0.562216
O7    O     O_R   0.685180 0.500000 0.613070 -0.616459
O8    O     O_R   0.685230 0.500040 0.386930 -0.610792
Zn1   Zn    Zn3+2 0.499970 0.499970 0.650990 1.012158
Zn2   Zn    Zn3+2 0.500030 0.500030 0.349010 1.004497
O9    O     O_3   0.872874 0.301439 0.395862 -0.622509
C19   C     C_3   0.841919 0.177522 0.435173 -0.206995
H12   H     H_    0.761500 0.176422 0.505887 0.166579
H13   H     H_    0.924001 0.128235 0.479962 0.180410
H14   H     H_    0.812649 0.125427 0.345893 0.191149
O10   O     O_3   0.610926 0.927265 0.574616 -0.733286
H15   H     H_    0.652188 0.862450 0.631228 0.351013
O11   O     O_3   0.422833 0.076292 0.624605 -0.553251
C20   C     C_3   0.293214 0.095494 0.643738 -0.282465
H16   H     H_    0.236890 0.057246 0.560314 0.167794
H17   H     H_    0.272558 0.196395 0.657054 0.168981
H18   H     H_    0.263808 0.044876 0.736052 0.185293
O12   O     O_3   0.634764 0.670133 0.863218 -0.608128
C21   C     C_3   0.751997 0.670258 0.928802 -0.389669
H19   H     H_    0.790207 0.573854 0.941633 0.146632
H20   H     H_    0.746072 0.716709 0.026491 0.193063
H21   H     H_    0.819877 0.724790 0.866873 0.205741
O13   O     O_3   0.405740 0.436882 0.908027 -0.776390
H22   H     H_    0.369911 0.387039 0.835169 0.376862
O14   O     O_3   0.516772 0.715386 0.126866 -0.744143
H23   H     H_    0.524208 0.778880 0.054083 0.339789
O15   O     O_3   0.130057 0.690461 0.326276 -0.564510
C22   C     C_3   0.140856 0.783418 0.423055 -0.168654
H24   H     H_    0.053702 0.796251 0.481371 0.197069
H25   H     H_    0.159229 0.874136 0.370990 0.165704
H26   H     H_    0.223628 0.765190 0.487460 0.112612
O16   O     O_3   0.881766 0.701495 0.362774 -0.762907
H27   H     H_    0.804655 0.701709 0.307220 0.345904
O17   O     O_3   0.130889 0.272401 0.434292 -0.638150
C23   C     C_3   0.127689 0.283641 0.294200 -0.239713
H28   H     H_    0.211414 0.335328 0.257014 0.183984
H29   H     H_    0.040890 0.324952 0.252648 0.187906
H30   H     H_    0.134019 0.188156 0.253445 0.177794

loop_
_geom_bond_atom_site_label_1
_geom_bond_atom_site_label_2
_ccdc_geom_bond_type
H7    N2    S    
C23   H30   S    
C2    C4    S    
C19   H12   S    
C11   C18   S    
O17   C23   S    
C5    H4    S    
C16   O15   S    
C12   O5    A    
C1    C8    S    
C9    C10   S    
C14   C18   S    
C15   H9    S    
C3    O16   S    
C11   O3    A    
C16   H2    S    
O2    Zn2   S    
N1    O13   S    
C21   H19   S    
C11   O4    A    
C17   C18   S    
N1    Zn1   S    
C17   O17   S    
O8    Zn2   S    
O13   H22   S    
C12   O6    A    
C22   H24   S    
O7    Zn1   S    
C2    C15   S    
C19   H13   S    
C13   O7    A    
C5    C6    D    
C4    O9    S    
C9    N1    D    
O3    Zn1   S    
C4    C17   S    
C14   H1    S    
C6    C12   S    
C20   H16   S    
C2    C3    S    
C21   H20   S    
O6    Zn2   S    
O14   H23   S    
O4    Zn2   S    
C19   H14   S    
C7    H5    S    
C3    H3    S    
C10   O14   S    
C7    C8    D    
O9    C19   S    
C3    C16   S    
C1    O2    A    
O15   C22   S    
C20   H18   S    
C22   H26   S    
C23   H29   S    
O5    Zn1   S    
O1    Zn1   S    
C23   H28   S    
C16   C18   S    
O11   C20   S    
C6    O10   S    
C21   H21   S    
C14   H6    S    
C20   H17   S    
C5    C7    S    
C2    C13   S    
C14   C15   S    
C15   H8    S    
C9    O12   S    
N2    Zn2   S    
C8    O11   S    
O12   C21   S    
C17   H10   S    
C10   N2    D    
C1    O1    A    
C13   O8    A    
C4    H11   S    
O16   H27   S    
O10   H15   S    
C22   H25   S    
