data_mof_unit_53064.cif
_audit_creation_date              2012-12-11T16:51:27-0500
_audit_creation_method            fapswitch 2.2
_symmetry_space_group_name_H-M    P1
_symmetry_Int_Tables_number       1
_space_group_crystal_system       triclinic
_cell_length_a                    24.409462
_cell_length_b                    17.173337
_cell_length_c                    15.61661
_cell_angle_alpha                 89.856772
_cell_angle_beta                  129.464207
_cell_angle_gamma                 89.84909
_cell_volume                      5053.83863984

loop_
_atom_site_label
_atom_site_type_symbol
_atom_type_description
_atom_site_fract_x
_atom_site_fract_y
_atom_site_fract_z
_atom_type_partial_charge
C1    C     C_R   0.836124 0.879700 0.210414 -0.068567
C2    C     C_R   0.144111 0.184456 0.504568 0.095530
C3    C     C_R   0.355940 0.684929 0.494894 0.091268
C4    C     C_R   0.644486 0.683487 0.502030 0.096407
C5    C     C_R   0.864209 0.159508 0.167060 0.218810
C6    C     C_R   0.146462 0.128573 0.861855 0.213327
C7    C     C_R   0.352238 0.629754 0.137104 0.198820
C8    C     C_R   0.635610 0.658963 0.832542 0.219565
C9    C     C_R   0.783964 0.829987 0.607411 0.133853
C10   C     C_R   0.214158 0.828500 0.389983 0.134454
C11   C     C_R   0.285973 0.326811 0.609560 0.142988
C12   C     C_R   0.152537 0.860129 0.762079 -0.077307
C13   C     C_R   0.716951 0.332942 0.392282 0.140813
C14   C     C_R   0.761515 0.862874 0.507547 -0.059553
C15   C     C_R   0.237273 0.861717 0.489809 -0.045410
C16   C     C_R   0.262869 0.361073 0.509999 -0.057654
C17   C     C_R   0.739194 0.364369 0.492534 -0.066914
C18   C     C_R   0.688057 0.860231 0.415145 0.195261
C19   C     C_R   0.311131 0.860632 0.580500 0.200286
C20   C     C_R   0.189027 0.360516 0.419054 0.203693
C21   C     C_R   0.812634 0.360684 0.584911 0.193588
C22   C     C_R   0.146258 0.306445 0.419749 -0.199631
C23   C     C_R   0.354296 0.354553 0.251976 -0.008520
C24   C     C_R   0.854951 0.305677 0.584041 -0.210266
C25   C     C_R   0.645800 0.805124 0.415492 -0.222603
C26   C     C_R   0.354021 0.806722 0.579445 -0.203253
C27   C     C_R   0.176515 0.257468 0.512185 -0.007656
C28   C     C_R   0.824657 0.258600 0.490356 0.006612
C29   C     C_R   0.676154 0.756999 0.508785 0.011053
C30   C     C_R   0.323744 0.758405 0.486974 0.001097
C31   C     C_R   0.243234 0.276195 0.610881 0.202225
C32   C     C_R   0.759184 0.281026 0.391074 0.247794
C33   C     C_R   0.741795 0.778036 0.608167 0.243521
C34   C     C_R   0.664197 0.379642 0.790334 -0.073416
C35   C     C_R   0.256971 0.777961 0.388352 0.143541
C36   C     C_3   0.804100 0.729173 0.697105 -0.489470
C37   C     C_3   0.195877 0.727236 0.302896 -0.464837
C38   C     C_3   0.304428 0.224729 0.696257 -0.472023
C39   C     C_3   0.696908 0.233522 0.301117 -0.496389
C40   C     C_R   0.113961 0.899885 0.407480 -0.133571
C41   C     C_R   0.885140 0.901206 0.591627 -0.141175
C42   C     C_R   0.615322 0.402288 0.408745 -0.152934
C43   C     C_R   0.386117 0.399578 0.592648 -0.132756
C44   C     C_3   0.850431 0.786084 0.696236 -0.496912
C45   C     C_R   0.909166 0.142706 0.591398 -0.117546
C46   C     C_3   0.148743 0.782639 0.304627 -0.472187
C47   C     C_3   0.351487 0.280214 0.694789 -0.484521
C48   C     C_3   0.650513 0.290345 0.302403 -0.504785
C49   C     C_2   0.150643 0.747181 0.864131 -0.353037
C50   C     C_2   0.810795 0.815191 0.045562 -0.401474
C51   C     C_2   0.689908 0.315770 0.956251 -0.407862
C52   C     C_2   0.369402 0.236217 0.170260 -0.209716
C53   C     C_2   0.187789 0.694225 0.855510 0.439893
C54   C     C_2   0.743424 0.839718 0.967639 0.445059
C55   C     C_2   0.756548 0.341445 0.034147 0.446385
C56   C     C_R   0.092873 0.142280 0.410069 -0.100958
C57   C     C_2   0.309689 0.202521 0.137851 0.358301
C58   C     C_2   0.829947 0.226252 0.092633 -0.380937
C59   C     C_2   0.196370 0.147480 0.979280 -0.284382
C60   C     C_2   0.304706 0.661753 0.024082 -0.357856
C61   C     C_2   0.670038 0.724989 0.907441 -0.374783
C62   C     C_2   0.809749 0.287698 0.120511 0.439796
C63   C     C_2   0.252292 0.192810 0.017940 0.375108
C64   C     C_2   0.235855 0.641702 0.949062 0.429730
C65   C     C_2   0.691619 0.785954 0.881066 0.437101
C66   C     C_R   0.188587 0.896212 0.590994 -0.048092
C67   C     C_R   0.407198 0.642389 0.589584 -0.099525
C68   C     C_R   0.811489 0.896317 0.408278 -0.102716
C69   C     C_R   0.688833 0.396556 0.591895 -0.106463
C70   C     C_R   0.311513 0.396638 0.409192 -0.071733
C71   C     C_R   0.060584 0.859545 0.762518 -0.140008
C72   C     C_R   0.926624 0.880971 0.206559 -0.109031
C73   C     C_R   0.573592 0.381005 0.793923 -0.109673
C74   C     C_R   0.446674 0.355119 0.252921 -0.125165
C75   C     C_R   0.857897 0.853962 0.152599 0.212260
C76   C     C_R   0.120780 0.818088 0.795850 0.208504
C77   C     C_R   0.391138 0.310418 0.228349 0.163864
C78   C     C_R   0.591112 0.642346 0.408093 -0.129067
C79   C     C_R   0.642493 0.353947 0.848321 0.213591
C80   C     C_R   0.183055 0.883745 0.498100 0.094123
C81   C     C_R   0.816269 0.884929 0.500614 0.102502
C82   C     C_R   0.684305 0.385860 0.499707 0.106138
C83   C     C_R   0.317094 0.383701 0.502071 0.100150
C84   C     C_R   0.834108 0.140832 0.406620 -0.072027
C85   C     C_R   0.164102 0.141594 0.594812 -0.109334
C86   C     C_R   0.335774 0.642027 0.404998 -0.120437
C87   C     C_R   0.666060 0.640100 0.592945 -0.073361
C88   C     C_R   0.929370 0.125670 0.213796 -0.107743
C89   C     C_R   0.855897 0.184399 0.497193 0.097028
C90   C     C_R   0.076579 0.106804 0.801815 -0.148956
C91   C     C_R   0.423056 0.609145 0.198468 -0.126033
C92   C     C_R   0.570625 0.625283 0.786201 -0.112645
C93   C     C_R   0.166927 0.107338 0.800809 -0.058009
C94   C     C_R   0.838051 0.123605 0.212734 -0.027480
C95   C     C_R   0.661791 0.623144 0.786891 -0.021082
C96   C     C_R   0.332794 0.609419 0.199716 -0.093254
Cl1   Cl    Cl    0.842473 0.304535 0.257353 -0.616679
Cl2   Cl    Cl    0.253754 0.252036 0.925156 -0.657451
Cl3   Cl    Cl    0.199383 0.557701 0.960659 -0.573866
Cl4   Cl    Cl    0.661521 0.803051 0.745567 -0.632268
Cl5   Cl    Cl    0.186605 0.689235 0.741382 -0.608722
Cl6   Cl    Cl    0.714269 0.934547 0.965376 -0.600515
Cl7   Cl    Cl    0.783246 0.437185 0.035131 -0.595994
Cl8   Cl    Cl    0.295310 0.184291 0.233942 -0.664439
H1    H     H_    0.783704 0.875130 0.186028 0.134502
H2    H     H_    0.185689 0.728184 0.222645 0.194134
H3    H     H_    0.314517 0.224968 0.776434 0.229992
H4    H     H_    0.688752 0.235837 0.222511 0.214814
H5    H     H_    0.804634 0.670267 0.668118 0.213118
H6    H     H_    0.198198 0.668260 0.334755 0.223567
H7    H     H_    0.302222 0.166031 0.664230 0.214975
H8    H     H_    0.696009 0.174198 0.328998 0.211227
H9    H     H_    0.885447 0.819604 0.774623 0.199194
H10   H     H_    0.111493 0.815174 0.225269 0.188594
H11   H     H_    0.388614 0.312054 0.774229 0.201111
H12   H     H_    0.202096 0.847541 0.779405 0.138922
H13   H     H_    0.615763 0.325047 0.224515 0.203294
H14   H     H_    0.877457 0.759505 0.666875 0.216562
H15   H     H_    0.124093 0.755268 0.337431 0.221915
H16   H     H_    0.376236 0.253238 0.661903 0.218902
H17   H     H_    0.623172 0.263190 0.330844 0.210829
H18   H     H_    0.813278 0.221243 0.009706 0.146505
H19   H     H_    0.190076 0.118889 0.034597 0.173171
H20   H     H_    0.324926 0.709843 0.006083 0.146591
H21   H     H_    0.684766 0.720200 0.989163 0.147700
H22   H     H_    0.148873 0.742660 0.931796 0.136460
H23   H     H_    0.306565 0.339436 0.238565 0.154513
H24   H     H_    0.828142 0.759649 0.036692 0.149550
H25   H     H_    0.673974 0.259403 0.965471 0.148142
H26   H     H_    0.385756 0.228544 0.120275 0.151944
H27   H     H_    0.093085 0.908318 0.322911 0.103467
H28   H     H_    0.905195 0.910436 0.675539 0.105990
H29   H     H_    0.595315 0.412583 0.324962 0.112571
H30   H     H_    0.406923 0.407293 0.677214 0.107475
H31   H     H_    0.235972 0.895475 0.676514 0.128271
H32   H     H_    0.764706 0.894756 0.322339 0.137885
H33   H     H_    0.735634 0.394911 0.677856 0.136079
H34   H     H_    0.716814 0.375274 0.815307 0.133535
H35   H     H_    0.264132 0.396284 0.323659 0.142064
H36   H     H_    0.024456 0.843946 0.777565 0.110780
H37   H     H_    0.956251 0.877924 0.176763 0.103650
H38   H     H_    0.544009 0.378237 0.823806 0.105741
H39   H     H_    0.485076 0.338481 0.242988 0.108762
H40   H     H_    0.793147 0.155319 0.321420 0.115811
H41   H     H_    0.201906 0.157080 0.680985 0.134800
H42   H     H_    0.297656 0.657991 0.319018 0.103515
H43   H     H_    0.707070 0.654111 0.678068 0.117299
H44   H     H_    0.959968 0.133787 0.186543 0.101496
H45   H     H_    0.091532 0.299120 0.346026 0.171382
H46   H     H_    0.048008 0.101878 0.833255 0.105638
H47   H     H_    0.452393 0.607598 0.168126 0.110454
H48   H     H_    0.540197 0.633212 0.813806 0.103359
H49   H     H_    0.221008 0.100733 0.832309 0.119841
H50   H     H_    0.784195 0.127717 0.182272 0.102787
H51   H     H_    0.715598 0.626917 0.817183 0.104781
H52   H     H_    0.279536 0.608961 0.172235 0.143081
H53   H     H_    0.937995 0.159135 0.676878 0.109810
H54   H     H_    0.068782 0.157832 0.325998 0.102085
H55   H     H_    0.431428 0.657784 0.673572 0.102566
H56   H     H_    0.909108 0.296047 0.658577 0.172439
H57   H     H_    0.562611 0.658852 0.322530 0.104813
H58   H     H_    0.591585 0.796425 0.341000 0.163423
H59   H     H_    0.408796 0.798788 0.653077 0.170160
H60   H     H_    0.812612 0.730285 0.776029 0.214283
I1    I     I_    0.636238 0.935074 0.274799 -0.400497
I2    I     I_    0.362721 0.935845 0.719355 -0.383706
I3    I     I_    0.137196 0.437049 0.280470 -0.336291
I4    I     I_    0.864344 0.433624 0.726114 -0.356186
N1    N     N_R   0.888400 0.921830 0.294620 -0.057128
N2    N     N_R   0.874350 0.922400 0.443380 -0.047705
N3    N     N_R   0.625650 0.422400 0.556620 -0.049047
N4    N     N_R   0.374350 0.422400 0.443380 -0.055668
N5    N     N_R   0.054230 0.922730 0.705400 -0.052429
N6    N     N_R   0.945770 0.922730 0.294600 -0.053270
N7    N     N_R   0.554230 0.422730 0.705400 -0.054572
N8    N     N_R   0.445770 0.422730 0.294600 -0.048706
N9    N     N_R   0.873790 0.077030 0.443380 -0.049300
N10   N     N_R   0.126210 0.077030 0.556620 -0.049415
N11   N     N_R   0.373790 0.577030 0.443380 -0.044672
N12   N     N_R   0.111600 0.921830 0.705380 -0.062351
N13   N     N_R   0.626210 0.577030 0.556620 -0.049332
N14   N     N_R   0.945200 0.076700 0.294600 -0.052484
N15   N     N_R   0.054800 0.076700 0.705400 -0.045866
N16   N     N_R   0.445200 0.576700 0.294600 -0.049281
N17   N     N_R   0.554800 0.576700 0.705400 -0.053063
N18   N     N_R   0.111030 0.077600 0.705380 -0.057422
N19   N     N_R   0.888970 0.077600 0.294620 -0.053061
N20   N     N_R   0.611030 0.577600 0.705380 -0.054567
N21   N     N_R   0.388970 0.577600 0.294620 -0.053664
N22   N     N_R   0.919490 0.077280 0.556590 -0.045378
N23   N     N_R   0.388400 0.421830 0.294620 -0.059620
N24   N     N_R   0.080510 0.077280 0.443410 -0.046885
N25   N     N_R   0.419490 0.577280 0.556590 -0.047095
N26   N     N_R   0.580510 0.577280 0.443410 -0.044898
N27   N     N_R   0.611600 0.421830 0.705380 -0.057682
N28   N     N_R   0.079940 0.922160 0.443410 -0.041736
N29   N     N_R   0.920060 0.922160 0.556590 -0.040651
N30   N     N_R   0.579940 0.422160 0.443410 -0.045112
N31   N     N_R   0.420060 0.422160 0.556590 -0.045353
N32   N     N_R   0.125650 0.922400 0.556620 -0.047900
Ni1   Ni    Ni4+2 0.882160 0.999430 0.370180 0.253079
Ni2   Ni    Ni4+2 0.117840 0.999430 0.629820 0.228854
Ni3   Ni    Ni4+2 0.382160 0.499430 0.370180 0.254229
Ni4   Ni    Ni4+2 0.617840 0.499430 0.629820 0.246507
Ni5   Ni    Ni4+2 0.012460 0.999430 0.370180 0.228333
Ni6   Ni    Ni4+2 0.987540 0.999430 0.629820 0.218857
Ni7   Ni    Ni4+2 0.512460 0.499430 0.370180 0.226276
Ni8   Ni    Ni4+2 0.487540 0.499430 0.629820 0.224137

loop_
_geom_bond_atom_site_label_1
_geom_bond_atom_site_label_2
_ccdc_geom_bond_type
C34   N27   A    
C58   C62   D    
C74   H39   S    
C56   N24   A    
N4    Ni3   S    
C29   C33   A    
C43   H30   S    
C43   C83   A    
N24   Ni5   S    
C14   C18   A    
C13   C32   A    
C11   C47   S    
C42   C82   A    
C90   H46   S    
C23   N23   A    
C5    C94   A    
C51   H25   S    
C67   H55   S    
C54   C65   S    
N21   Ni3   S    
C15   C19   A    
C49   H22   S    
C18   C25   A    
C50   C54   D    
C21   I4    S    
C87   H43   S    
C5    C58   S    
C2    C85   A    
C42   H29   S    
C68   C81   A    
N8    Ni7   S    
C35   C37   S    
C85   H41   S    
C63   Cl2   S    
N12   Ni2   S    
C10   C15   A    
C78   N26   A    
C71   C76   A    
C53   C64   S    
C84   H40   S    
C55   C62   S    
C55   Cl7   S    
C26   H59   S    
N28   Ni5   S    
C33   C36   S    
N18   Ni2   S    
N4    N31   A    
C17   C82   S    
C69   N3    A    
C32   C39   S    
C1    N1    A    
C38   H3    S    
C60   H20   S    
C19   C26   A    
C70   N4    A    
C86   N11   A    
N2    Ni1   S    
C56   H54   S    
C69   C82   A    
C5    C88   A    
C68   N2    A    
N22   Ni6   S    
C64   Cl3   S    
C53   Cl5   S    
C85   N10   A    
C74   C77   A    
C10   C46   S    
N6    Ni5   S    
N1    N6    A    
C40   C80   A    
C28   C89   S    
C8    C92   A    
C19   I2    S    
C72   N6    A    
N3    N30   A    
C45   C89   A    
C95   H51   S    
C4    C29   S    
C94   H50   S    
C8    C61   S    
C93   N18   A    
C22   H45   S    
C11   C31   A    
C70   H35   S    
N25   Ni8   S    
C91   N16   A    
C3    C86   A    
C9    C33   A    
N17   Ni8   S    
N11   N25   A    
N29   Ni6   S    
C39   H4    S    
C8    C95   A    
N23   Ni3   S    
N7    Ni8   S    
C72   C75   A    
C86   H42   S    
N7    N27   A    
C18   I1    S    
C95   N20   A    
C57   C63   S    
C73   H38   S    
C69   H33   S    
C72   H37   S    
C58   H18   S    
C46   H10   S    
C48   H13   S    
C27   C31   A    
C1    C75   A    
C70   C83   A    
C28   C32   A    
C45   H53   S    
C94   N19   A    
C41   N29   A    
N15   N18   A    
C48   H17   S    
C4    C87   A    
C92   N17   A    
N17   N20   A    
N27   Ni4   S    
N5    N12   A    
C59   H19   S    
C6    C90   A    
C34   H34   S    
C16   C83   S    
C17   C21   A    
C71   N5    A    
C96   N21   A    
C73   N7    A    
C3    C30   S    
C47   H11   S    
C9    C14   A    
C74   N8    A    
N26   Ni7   S    
C34   C79   A    
C13   C48   S    
C62   Cl1   S    
N10   N24   A    
C11   C16   A    
C45   N22   A    
C88   N14   A    
C15   C80   S    
C20   I3    S    
C42   N30   A    
C25   H58   S    
C16   C20   A    
C6    C93   A    
C41   C81   A    
C73   C79   A    
C49   C76   S    
N28   N32   A    
C23   C77   A    
C68   H32   S    
N13   N26   A    
N16   Ni7   S    
C38   C47   S    
C2    C27   S    
C30   C35   A    
C39   H8    S    
C12   N12   A    
C40   H27   S    
N11   Ni3   S    
C44   H9    S    
C26   C30   A    
C22   C27   A    
N10   Ni2   S    
N5    Ni6   S    
N9    Ni1   S    
C36   C44   S    
N13   Ni4   S    
C37   H6    S    
C44   H14   S    
C52   C77   S    
C7    C60   S    
C23   H23   S    
C40   N28   A    
C57   Cl8   S    
C47   H16   S    
C9    C44   S    
N9    N22   A    
N30   Ni7   S    
C6    C59   S    
C54   Cl6   S    
C3    C67   A    
C24   C28   A    
C65   Cl4   S    
C20   C22   A    
N8    N23   A    
C87   N13   A    
C41   H28   S    
C61   H21   S    
C24   H56   S    
C71   H36   S    
C4    C78   A    
C66   C80   A    
N19   Ni1   S    
C59   C63   D    
C31   C38   S    
C13   C17   A    
C60   C64   D    
N14   Ni5   S    
C52   H26   S    
C12   C76   A    
C37   C46   S    
C37   H2    S    
C2    C56   A    
C50   C75   S    
C7    C91   A    
C91   H47   S    
C88   H44   S    
C25   C29   A    
C96   H52   S    
C49   C53   D    
C93   H49   S    
N31   Ni8   S    
N20   Ni4   S    
C46   H15   S    
C51   C55   D    
N14   N19   A    
C84   N9    A    
C51   C79   S    
C52   C57   D    
N3    Ni4   S    
N1    Ni1   S    
C66   H31   S    
C10   C35   A    
C61   C65   D    
C92   H48   S    
C50   H24   S    
C90   N15   A    
C78   H57   S    
N32   Ni2   S    
C84   C89   A    
C21   C24   A    
C7    C96   A    
C36   H5    S    
C36   H60   S    
N15   Ni6   S    
N16   N21   A    
C43   N31   A    
C14   C81   S    
C38   H7    S    
C67   N25   A    
N2    N29   A    
C66   N32   A    
C1    H1    S    
C39   C48   S    
C12   H12   S    
