data_mof_unit_28832.cif
_audit_creation_date              2012-12-10T17:57:24-0500
_audit_creation_method            fapswitch 2.2
_symmetry_space_group_name_H-M    P1
_symmetry_Int_Tables_number       1
_space_group_crystal_system       triclinic
_cell_length_a                    9.530569
_cell_length_b                    10.833422
_cell_length_c                    13.506051
_cell_angle_alpha                 90.216016
_cell_angle_beta                  73.361471
_cell_angle_gamma                 90.008531
_cell_volume                      1336.08514039

loop_
_atom_site_label
_atom_site_type_symbol
_atom_type_description
_atom_site_fract_x
_atom_site_fract_y
_atom_site_fract_z
_atom_type_partial_charge
C1    C     C_R   0.499995 0.737893 0.500109 0.780822
C2    C     C_R   0.444838 0.555201 0.975815 0.080457
C3    C     C_R   0.490896 0.555556 0.866228 0.090406
C4    C     C_R   0.551365 0.535840 0.029751 0.072204
C5    C     C_R   0.701319 0.524721 0.973499 0.175423
C6    C     C_R   0.745685 0.547900 0.868288 -0.253338
C7    C     C_R   0.642227 0.569179 0.816671 -0.194376
C8    C     C_R   0.513777 0.523313 0.137352 -0.251914
C9    C     C_R   0.767188 0.485313 0.130339 -0.198641
C10   C     C_R   0.383877 0.545013 0.810920 -0.107939
C11   C     C_R   0.627159 0.936165 0.500899 -0.184951
C12   C     C_R   0.423765 0.514006 0.699035 0.795005
C13   C     C_R   0.627189 0.063879 0.500774 -0.183372
C14   C     C_R   0.499956 0.128230 0.500071 -0.019637
C15   C     C_R   0.372685 0.063812 0.499517 -0.184022
C16   C     C_R   0.372660 0.936101 0.499632 -0.184267
C17   C     C_R   0.499927 0.871756 0.500249 -0.014371
C18   C     C_R   0.906812 0.592780 0.547077 -0.034953
C19   C     C_R   0.054956 0.592018 0.548096 -0.029099
C20   C     C_R   0.094137 0.408531 0.451022 -0.026044
C21   C     C_R   0.945326 0.408361 0.451322 -0.024672
C22   C     C_R   0.499966 0.262109 0.499995 0.798535
C23   C     C_R   0.577507 0.498965 0.300504 0.803638
C24   C     C_R   0.806396 0.494689 0.023448 -0.204638
C25   C     C_R   0.621019 0.502127 0.187748 -0.046567
C26   C     C_R   0.235903 0.563600 0.864526 -0.195140
C27   C     C_R   0.193905 0.585583 0.970457 -0.156613
C28   C     C_R   0.295052 0.576195 0.026414 -0.179509
Cu1   Cu    Cu3+1 0.359340 0.499980 0.500000 0.942012
Cu2   Cu    Cu3+1 0.640660 0.500020 0.500000 0.941666
H1    H     H_    0.850861 0.465075 0.167870 0.153714
H2    H     H_    0.273207 0.111802 0.498957 0.145311
H3    H     H_    0.273157 0.888055 0.499169 0.144861
H4    H     H_    0.836730 0.668258 0.583647 0.104363
H5    H     H_    0.094921 0.665654 0.587038 0.114286
H6    H     H_    0.165905 0.335377 0.411407 0.117285
H7    H     H_    0.905494 0.335044 0.411983 0.114939
H8    H     H_    0.860966 0.551688 0.825892 0.139987
H9    H     H_    0.918620 0.478057 0.979200 0.135419
H10   H     H_    0.401560 0.529494 0.183759 0.153568
H11   H     H_    0.152579 0.563467 0.824289 0.146565
H12   H     H_    0.253047 0.589967 0.108655 0.126676
H13   H     H_    0.081605 0.608001 0.010584 0.142560
H14   H     H_    0.684469 0.601842 0.739067 0.173778
H15   H     H_    0.726628 0.888170 0.501475 0.144616
N1    N     N_R   0.147940 0.499970 0.499970 -0.156128
N2    N     N_R   0.852060 0.500060 0.499990 -0.154571
O1    O     O_R   0.381250 0.680340 0.500010 -0.594230
O2    O     O_R   0.618820 0.680370 0.500010 -0.596559
O3    O     O_R   0.323240 0.499950 0.650980 -0.576858
O4    O     O_R   0.560810 0.499980 0.650980 -0.584775
O5    O     O_R   0.381180 0.319630 0.499990 -0.589367
O6    O     O_R   0.618750 0.319660 0.499990 -0.588784
O7    O     O_R   0.439190 0.500020 0.349020 -0.585773
O8    O     O_R   0.676760 0.500050 0.349020 -0.582684
H16   H     H_    0.726692 0.111923 0.501239 0.145696

loop_
_geom_bond_atom_site_label_1
_geom_bond_atom_site_label_2
_ccdc_geom_bond_type
C12   O3    A    
Cu2   O4    S    
C6    H8    S    
C9    C24   A    
C23   O8    A    
C6    C7    A    
C16   H3    S    
C11   C13   A    
Cu2   O8    S    
C1    C17   S    
Cu1   N1    S    
C4    C8    A    
C13   H16   S    
C18   N2    A    
C14   C22   S    
C2    C3    A    
C19   N1    A    
C9    C25   A    
C15   H2    S    
C1    O1    A    
C3    C10   A    
C19   H5    S    
C13   C14   A    
C8    C25   A    
C18   H4    S    
C10   C26   A    
C26   C27   A    
Cu1   Cu2   S    
C5    C24   A    
C10   C12   S    
C2    C4    A    
C28   H12   S    
Cu2   O2    S    
C22   O6    A    
C3    C7    A    
Cu1   O3    S    
C23   C25   S    
C5    C6    A    
Cu2   O6    S    
C11   H15   S    
Cu1   O7    S    
C9    H1    S    
Cu1   O1    S    
C15   C16   A    
C20   H6    S    
C27   H13   S    
Cu2   N2    S    
C4    C5    A    
C12   O4    A    
C21   H7    S    
C20   C21   A    
C23   O7    A    
C22   O5    A    
C18   C19   A    
C27   C28   A    
C14   C15   A    
C11   C17   A    
C2    C28   A    
C8    H10   S    
C7    H14   S    
C1    O2    A    
C24   H9    S    
C20   N1    A    
C26   H11   S    
C16   C17   A    
C21   N2    A    
Cu1   O5    S    
