data_mof_unit_52337.cif
_audit_creation_date              2012-12-10T17:23:40-0500
_audit_creation_method            fapswitch 2.2
_symmetry_space_group_name_H-M    P1
_symmetry_Int_Tables_number       1
_space_group_crystal_system       triclinic
_cell_length_a                    9.580301
_cell_length_b                    10.863995
_cell_length_c                    17.307498
_cell_angle_alpha                 92.647888
_cell_angle_beta                  85.280324
_cell_angle_gamma                 90.404803
_cell_volume                      1793.33578038

loop_
_atom_site_label
_atom_site_type_symbol
_atom_type_description
_atom_site_fract_x
_atom_site_fract_y
_atom_site_fract_z
_atom_type_partial_charge
C1    C     C_R   0.500638 0.736868 0.493777 0.800927
C2    C     C_R   0.360511 0.426310 0.770601 -0.212314
C3    C     C_R   0.442646 0.579749 0.150752 -0.154024
C4    C     C_R   0.437378 0.578778 0.231036 -0.206367
C5    C     C_R   0.631417 0.434858 0.221207 -0.203541
C6    C     C_R   0.633796 0.433102 0.140571 -0.160120
C7    C     C_R   0.536027 0.502151 0.105173 0.173765
C8    C     C_2   0.420103 0.491426 0.981200 0.239415
C9    C     C_2   0.536780 0.495854 0.020336 -0.318913
C10   C     C_R   0.530354 0.505044 0.266439 -0.007954
C11   C     C_R   0.253636 0.876965 0.448401 -0.161343
C12   C     C_R   0.480712 0.499546 0.649647 0.791405
C13   C     C_R   0.123559 0.934628 0.457027 -0.158359
C14   C     C_R   0.110028 0.049437 0.495398 -0.140913
C15   C     C_R   0.228817 0.111854 0.517837 -0.166013
C16   C     C_R   0.364384 0.060185 0.501422 0.093878
C17   C     C_R   0.372733 0.934332 0.478132 0.097547
C18   C     C_R   0.499100 0.870623 0.486666 -0.121001
C19   C     C_R   0.621518 0.937038 0.499069 -0.214000
C20   C     C_R   0.618926 0.064242 0.505652 -0.214907
C21   C     C_R   0.491841 0.127641 0.507039 -0.115107
C22   C     C_R   0.869597 0.336243 0.396739 -0.158389
C23   C     C_R   0.497791 0.262381 0.504163 0.780242
C24   C     C_R   0.948544 0.255505 0.346611 -0.230913
C25   C     C_R   0.092320 0.255070 0.346749 -0.188847
C26   C     C_R   0.157971 0.335336 0.397036 -0.136218
C27   C     C_R   0.081656 0.419057 0.449403 0.190558
C28   C     C_R   0.931983 0.419291 0.449333 0.210394
C29   C     C_R   0.919561 0.577239 0.547942 -0.068149
C30   C     C_R   0.067591 0.577235 0.547898 -0.068707
C31   C     C_R   0.519085 0.500682 0.350387 0.762254
C32   C     C_R   0.466702 0.497118 0.733752 -0.014467
C33   C     C_R   0.557277 0.567062 0.777629 -0.186822
C34   C     C_R   0.540564 0.567559 0.858171 -0.199889
C35   C     C_R   0.436078 0.494502 0.895623 0.152596
C36   C     C_R   0.346466 0.423706 0.851087 -0.158146
Cu1   Cu    Cu3+1 0.359340 0.500010 0.500010 0.919856
Cu2   Cu    Cu3+1 0.640660 0.499990 0.499990 0.931703
H1    H     H_    0.638484 0.623472 0.749637 0.137005
H2    H     H_    0.709441 0.375782 0.105872 0.129120
H3    H     H_    0.720051 0.890746 0.503800 0.161706
H4    H     H_    0.259781 0.788632 0.416964 0.158194
H5    H     H_    0.032562 0.888558 0.435994 0.136438
H6    H     H_    0.210755 0.198009 0.550458 0.166899
H7    H     H_    0.760328 0.329466 0.391435 0.198847
H8    H     H_    0.153782 0.191801 0.307715 0.151931
H9    H     H_    0.117710 0.640565 0.587104 0.145797
H10   H     H_    0.704894 0.378578 0.248145 0.135266
H11   H     H_    0.639356 0.492443 0.988430 0.133241
H12   H     H_    0.265918 0.366069 0.878497 0.157648
N1    N     N_R   0.852190 0.498790 0.499250 -0.198497
N2    N     N_R   0.148060 0.498710 0.499220 -0.205550
O1    O     O_R   0.381190 0.680360 0.500010 -0.587472
O2    O     O_R   0.618760 0.680340 0.500000 -0.581304
O3    O     O_R   0.367440 0.500030 0.613600 -0.581599
O4    O     O_R   0.605010 0.500010 0.613590 -0.578394
O5    O     O_R   0.381240 0.319660 0.500000 -0.615047
O6    O     O_R   0.618810 0.319640 0.499990 -0.598379
O7    O     O_R   0.394990 0.499990 0.386410 -0.604141
O8    O     O_R   0.632560 0.499970 0.386400 -0.595816
H13   H     H_    0.007772 0.091539 0.506345 0.138378
H14   H     H_    0.717016 0.112881 0.511055 0.164861
H15   H     H_    0.858894 0.640545 0.587213 0.134243
H16   H     H_    0.897475 0.192896 0.307272 0.148598
H17   H     H_    0.361506 0.636177 0.265560 0.140143
H18   H     H_    0.268556 0.326772 0.392445 0.202567
H19   H     H_    0.372746 0.639879 0.124410 0.147198
H20   H     H_    0.290127 0.371457 0.737027 0.143626
N3    N     N_2   0.284183 0.469283 0.019164 -0.434118
H21   H     H_    0.279646 0.434541 0.073711 0.266472
C37   C     C_3   0.177730 0.559699 0.008799 -0.713438
H22   H     H_    0.076880 0.531577 0.039360 0.226112
H23   H     H_    0.161373 0.566760 0.946442 0.239243
H24   H     H_    0.208138 0.651513 0.032923 0.221143
H25   H     H_    0.608748 0.625761 0.891038 0.129961

loop_
_geom_bond_atom_site_label_1
_geom_bond_atom_site_label_2
_ccdc_geom_bond_type
C23   O6    A    
C29   H15   S    
C16   C21   A    
C19   C20   A    
C1    C18   S    
C33   H1    S    
Cu1   Cu2   S    
C15   H6    S    
C18   C19   A    
C2    H20   S    
C5    C6    A    
C28   N1    A    
C15   C16   A    
C11   H4    S    
C2    C32   A    
C34   C35   A    
C31   O7    A    
N3    C37   S    
C1    O1    A    
Cu2   O6    S    
C10   C31   S    
C35   C36   A    
C16   C17   A    
C34   H25   S    
Cu1   O1    S    
C24   H16   S    
C22   C28   A    
C13   C14   A    
C12   C32   S    
C33   C34   A    
C5    H10   S    
C26   H18   S    
C30   H9    S    
C9    H11   S    
C24   C25   A    
C37   H23   S    
Cu1   N2    S    
C8    C9    D    
Cu2   N1    S    
C25   C26   A    
C14   H13   S    
C8    C35   S    
C31   O8    A    
C1    O2    A    
C29   C30   A    
Cu2   O2    S    
C17   C18   A    
C8    N3    S    
Cu1   O7    S    
C12   O4    A    
Cu2   O8    S    
C21   C23   S    
C26   C27   A    
C22   C24   A    
C4    C10   A    
C3    C4    A    
C13   H5    S    
C36   H12   S    
C27   N2    A    
C29   N1    A    
C2    C36   A    
C23   O5    A    
C30   N2    A    
C11   C17   A    
C3    H19   S    
C37   H24   S    
C6    C7    A    
C3    C7    A    
C32   C33   A    
C37   H22   S    
C11   C13   A    
C4    H17   S    
C6    H2    S    
C20   H14   S    
N3    H21   S    
C12   O3    A    
Cu1   O3    S    
C7    C9    S    
C5    C10   A    
C22   H7    S    
Cu2   O4    S    
C20   C21   A    
C27   C28   A    
C14   C15   A    
C25   H8    S    
Cu1   O5    S    
C19   H3    S    
