data_mof_unit_46032.cif
_audit_creation_date              2012-12-11T17:44:07-0500
_audit_creation_method            fapswitch 2.2
_symmetry_space_group_name_H-M    P1
_symmetry_Int_Tables_number       1
_space_group_crystal_system       triclinic
_cell_length_a                    20.218831
_cell_length_b                    22.73715
_cell_length_c                    6.939815
_cell_angle_alpha                 90.000024
_cell_angle_beta                  86.847767
_cell_angle_gamma                 90.0
_cell_volume                      3185.53482845

loop_
_atom_site_label
_atom_site_type_symbol
_atom_type_description
_atom_site_fract_x
_atom_site_fract_y
_atom_site_fract_z
_atom_type_partial_charge
O1    O     O_R   0.751270 0.447300 0.600030 -0.545389
O2    O     O_R   0.248730 0.947300 0.399970 -0.545389
O3    O     O_R   0.613530 0.440160 0.952150 -0.542527
O4    O     O_R   0.386470 0.940160 0.047850 -0.542527
O5    O     O_R   0.613050 0.552700 0.122560 -0.535537
O6    O     O_R   0.386950 0.052700 0.877440 -0.535537
C1    C     C_R   0.591549 0.425327 0.787005 0.675616
C2    C     C_R   0.408451 0.925327 0.212995 0.675617
O7    O     O_R   0.750780 0.440350 0.929820 -0.546385
O8    O     O_R   0.249220 0.940350 0.070180 -0.546386
O9    O     O_R   0.751280 0.552900 0.100070 -0.518939
O10   O     O_R   0.248720 0.052900 0.899930 -0.518939
C3    C     C_R   0.773776 0.425980 0.757297 0.690992
C4    C     C_R   0.226224 0.925980 0.242703 0.690992
O11   O     O_R   0.613040 0.447100 0.622520 -0.539687
O12   O     O_R   0.386960 0.947100 0.377480 -0.539687
O13   O     O_3   0.682160 0.536920 0.777780 -0.336389
O14   O     O_3   0.317840 0.036920 0.222220 -0.336389
V1    V     V_3+5 0.682160 0.493150 0.052630 1.457570
V2    V     V_3+5 0.317840 0.993150 0.947370 1.457569
O15   O     O_R   0.750790 0.559840 0.429870 -0.528958
O16   O     O_R   0.249210 0.059840 0.570130 -0.528958
C5    C     C_R   0.772515 0.575441 0.256983 0.741508
C6    C     C_R   0.227485 0.075441 0.743017 0.741508
O17   O     O_R   0.613540 0.559650 0.452200 -0.534133
O18   O     O_R   0.386460 0.059650 0.547800 -0.534132
C7    C     C_R   0.591381 0.574285 0.286567 0.700632
C8    C     C_R   0.408619 0.074285 0.713433 0.700630
V3    V     V_3+5 0.682160 0.506850 0.552630 1.481913
V4    V     V_3+5 0.317840 0.006850 0.447370 1.481914
O19   O     O_3   0.682150 0.463080 0.277610 -0.379177
O20   O     O_3   0.317850 0.963080 0.722390 -0.379178
C9    C     C_R   0.580081 0.860894 0.179972 -0.099913
C10   C     C_R   0.419919 0.360894 0.820030 -0.099911
H1    H     H_    0.538230 0.946297 0.140109 0.109212
H2    H     H_    0.461770 0.446298 0.859890 0.109212
H3    H     H_    0.629633 0.877986 0.153498 0.172648
H4    H     H_    0.370367 0.377986 0.846504 0.172648
C11   C     C_R   0.462802 0.881937 0.212286 -0.031315
C12   C     C_R   0.537198 0.381937 0.787714 -0.031316
C13   C     C_R   0.469854 0.594010 0.285319 0.133080
C14   C     C_R   0.530146 0.094011 0.714677 0.133081
C15   C     C_R   0.416530 0.633056 0.284893 -0.138697
C16   C     C_R   0.583469 0.133056 0.715101 -0.138696
C17   C     C_R   0.426458 0.693518 0.276418 -0.175272
C18   C     C_R   0.573542 0.193519 0.723578 -0.175273
C19   C     C_R   0.490807 0.717820 0.266007 0.077085
C20   C     C_R   0.509192 0.217821 0.733992 0.077085
C21   C     C_R   0.545776 0.678330 0.270034 -0.023319
C22   C     C_R   0.454223 0.178330 0.729967 -0.023318
C23   C     C_R   0.502171 0.779870 0.244925 0.044071
C24   C     C_R   0.497828 0.279870 0.755076 0.044071
C25   C     C_R   0.568485 0.800755 0.218009 0.054625
C26   C     C_R   0.431515 0.300755 0.781993 0.054624
C27   C     C_R   0.621903 0.761202 0.227769 0.273558
C28   C     C_R   0.378097 0.261202 0.772235 0.273558
C29   C     C_R   0.610328 0.701336 0.255104 -0.171754
C30   C     C_R   0.389672 0.201337 0.744899 -0.171754
C31   C     C_R   0.449938 0.822075 0.247462 -0.185314
C32   C     C_R   0.550062 0.322075 0.752538 -0.185313
C33   C     C_R   0.527777 0.900535 0.172823 -0.205453
C34   C     C_R   0.472223 0.400535 0.827177 -0.205455
C35   C     C_R   0.535178 0.616336 0.284041 -0.093157
C36   C     C_R   0.464822 0.116336 0.715958 -0.093158
H5    H     H_    0.398810 0.810087 0.276466 0.089348
H6    H     H_    0.601190 0.310087 0.723534 0.089348
H7    H     H_    0.382367 0.719919 0.272259 0.116280
H8    H     H_    0.617633 0.219919 0.727736 0.116280
H9    H     H_    0.366257 0.616403 0.288413 0.126413
H10   H     H_    0.633743 0.116403 0.711578 0.126414
H11   H     H_    0.652941 0.672658 0.260280 0.153407
H12   H     H_    0.347059 0.172658 0.739725 0.153407
C37   C     C_R   0.171670 0.881892 0.261540 -0.047971
C38   C     C_R   0.828330 0.381891 0.738460 -0.047971
C39   C     C_R   0.139272 0.862597 0.098570 -0.216073
C40   C     C_R   0.860728 0.362597 0.901429 -0.216073
C41   C     C_R   0.087531 0.821582 0.117015 -0.138350
C42   C     C_R   0.912469 0.321582 0.882984 -0.138350
C43   C     C_R   0.067000 0.798562 0.299885 0.430111
C44   C     C_R   0.932999 0.298562 0.700115 0.430111
C45   C     C_R   0.099806 0.817428 0.461486 -0.178698
C46   C     C_R   0.900193 0.317428 0.538514 -0.178699
C47   C     C_R   0.151181 0.858717 0.443271 -0.202912
C48   C     C_R   0.848819 0.358716 0.556729 -0.202912
C49   C     C_R   0.920708 0.669329 0.374272 -0.123233
C50   C     C_R   0.079291 0.169329 0.625727 -0.123233
C51   C     C_R   0.869399 0.627827 0.387851 -0.209463
C52   C     C_R   0.130601 0.127827 0.612149 -0.209462
C53   C     C_R   0.929764 0.705265 0.209198 0.377197
C54   C     C_R   0.070235 0.205265 0.790802 0.377196
N1    N     N_2   0.014876 0.756278 0.327942 -0.297102
N2    N     N_2   0.985124 0.256278 0.672058 -0.297102
N3    N     N_2   0.981853 0.747616 0.183523 -0.290905
N4    N     N_2   0.018147 0.247616 0.816477 -0.290904
C55   C     C_R   0.825657 0.621005 0.238253 -0.109169
C56   C     C_R   0.174343 0.121005 0.761747 -0.109169
H13   H     H_    0.864537 0.600313 0.515246 0.167099
H14   H     H_    0.135463 0.100313 0.484754 0.167099
H15   H     H_    0.953462 0.672655 0.492049 0.148591
H16   H     H_    0.046538 0.172655 0.507950 0.148591
H17   H     H_    0.085203 0.800199 0.602985 0.122399
H18   H     H_    0.914795 0.300198 0.397016 0.122399
H19   H     H_    0.175034 0.872259 0.571972 0.131783
H20   H     H_    0.824966 0.372258 0.428028 0.131783
C57   C     C_R   0.834145 0.658028 0.074134 0.251901
C58   C     C_R   0.165854 0.158027 0.925866 0.251901
C59   C     C_R   0.886064 0.698940 0.061171 -0.165297
C60   C     C_R   0.113936 0.198940 0.938829 -0.165296
H21   H     H_    0.064026 0.807874 0.987984 0.137194
H22   H     H_    0.935975 0.307875 0.012016 0.137195
H23   H     H_    0.892083 0.726767 0.934678 0.166624
H24   H     H_    0.107917 0.226767 0.065322 0.166624
H25   H     H_    0.153620 0.879419 0.956390 0.130946
H26   H     H_    0.846381 0.379420 0.043609 0.130946
Br1   Br    Br    0.774924 0.658509 0.866662 -0.493588
Br2   Br    Br    0.225076 0.158509 0.133339 -0.493589
Br3   Br    Br    0.713012 0.786000 0.206547 -0.492420
Br4   Br    Br    0.286987 0.286000 0.793459 -0.492420
C61   C     C_3   0.455126 0.528704 0.282961 -0.380018
C62   C     C_3   0.446131 0.504548 0.487244 -0.727120
H27   H     H_    0.492026 0.510919 0.565425 0.224421
H28   H     H_    0.404319 0.527058 0.567345 0.225642
H29   H     H_    0.435002 0.456808 0.480703 0.232567
H30   H     H_    0.409117 0.520289 0.206594 0.182801
H31   H     H_    0.494927 0.503926 0.201820 0.176400
C63   C     C_3   0.544875 0.028704 0.717031 -0.380021
C64   C     C_3   0.553874 0.004551 0.512748 -0.727119
H32   H     H_    0.507980 0.010919 0.434562 0.224419
H33   H     H_    0.595685 0.027063 0.432653 0.225643
H34   H     H_    0.565008 0.956811 0.519286 0.232568
H35   H     H_    0.590881 0.020289 0.793408 0.182801
H36   H     H_    0.505072 0.003926 0.798161 0.176400

loop_
_geom_bond_atom_site_label_1
_geom_bond_atom_site_label_2
_ccdc_geom_bond_type
C52   C56   A    
C63   C64   S    
C21   C35   A    
C54   N4    S    
C22   C36   A    
O4    C2    A    
V1    O19   S    
C21   C29   A    
C19   C21   A    
C45   H17   S    
C61   H30   S    
C57   C59   A    
O9    V1    S    
C47   H19   S    
C12   C32   A    
C40   C42   A    
O3    C1    A    
C6    C56   S    
V2    O20   S    
C50   C52   A    
O12   V4    S    
C10   C34   A    
C12   C34   A    
C29   H11   S    
O14   V2    S    
C17   C19   A    
O7    C3    A    
C24   C32   A    
O5    C7    A    
O7    V1    S    
O6    C8    A    
C62   H28   S    
C51   C55   A    
C17   H7    S    
C40   H26   S    
C1    C12   S    
O3    V1    S    
C39   H25   S    
C2    C11   S    
C28   C30   A    
C50   H16   S    
C43   N1    S    
C62   H29   S    
C59   H23   S    
C49   C51   A    
C32   H6    S    
C2    O12   A    
O17   V3    S    
C13   C15   A    
C53   C59   A    
C14   C16   A    
H2    C34   S    
O1    V3    S    
C45   C47   A    
C24   C26   A    
O11   V3    S    
C18   C20   A    
C25   C27   A    
C9    C25   A    
C11   C33   A    
C26   C28   A    
C22   C30   A    
C4    C37   S    
C44   C46   A    
C50   C54   A    
O8    V2    S    
C43   C45   A    
C49   C53   A    
C19   C23   A    
C1    O11   A    
C16   C18   A    
O15   V3    S    
C9    H3    S    
C60   H24   S    
C58   Br2   S    
C23   C25   A    
C44   N2    S    
C64   H33   S    
C18   H8    S    
C49   H15   S    
N1    N3    D    
C39   C41   A    
C63   H36   S    
C11   C31   A    
O10   V2    S    
N2    N4    D    
C46   H18   S    
C41   C43   A    
H1    C33   S    
C13   C61   S    
C41   H21   S    
C20   C22   A    
C15   C17   A    
C38   C40   A    
O14   V4    S    
C61   H31   S    
C9    C33   A    
C10   C26   A    
C46   C48   A    
O15   C5    A    
O8    C4    A    
C48   H20   S    
O16   C6    A    
O1    C3    A    
C37   C39   A    
C64   H32   S    
C14   C36   A    
C62   H27   S    
C8    C36   S    
C27   Br3   S    
C56   C58   A    
O16   V4    S    
C10   H4    S    
C28   Br4   S    
C57   Br1   S    
C38   C48   A    
C61   C62   S    
O18   V4    S    
O5    V1    S    
O17   C7    A    
O6    V2    S    
O10   C6    A    
O18   C8    A    
C42   H22   S    
O2    V4    S    
C16   H10   S    
C27   C29   A    
C64   H34   S    
C54   C60   A    
V3    O19   S    
O13   V3    S    
C31   H5    S    
V4    O20   S    
C30   H12   S    
C58   C60   A    
C63   H35   S    
O9    C5    A    
O13   V1    S    
C5    C55   S    
C42   C44   A    
C53   N3    S    
O2    C4    A    
C14   C63   S    
O4    V2    S    
C20   C24   A    
C23   C31   A    
C3    C38   S    
C15   H9    S    
C55   C57   A    
C13   C35   A    
C7    C35   S    
C37   C47   A    
C52   H14   S    
C51   H13   S    
