data_mof_unit_14923.cif
_audit_creation_date              2012-12-10T20:37:33-0500
_audit_creation_method            fapswitch 2.2
_symmetry_space_group_name_H-M    P1
_symmetry_Int_Tables_number       1
_space_group_crystal_system       triclinic
_cell_length_a                    15.701772
_cell_length_b                    10.682414
_cell_length_c                    10.004682
_cell_angle_alpha                 89.650256
_cell_angle_beta                  90.260921
_cell_angle_gamma                 91.231198
_cell_volume                      1677.67851906

loop_
_atom_site_label
_atom_site_type_symbol
_atom_type_description
_atom_site_fract_x
_atom_site_fract_y
_atom_site_fract_z
_atom_type_partial_charge
C1    C     C_R   0.508718 0.261528 0.499952 0.932469
C2    C     C_R   0.530597 0.131873 0.498519 -0.291296
C3    C     C_R   0.539365 0.066562 0.377200 0.270386
C4    C     C_R   0.338410 0.502903 0.500220 0.854076
C5    C     C_R   0.513547 0.941154 0.376391 0.454418
C6    C     C_R   0.511513 0.873703 0.497857 -0.305575
C7    C     C_R   0.531183 0.935654 0.616317 -0.040940
C8    C     C_3   0.487467 0.926856 0.748213 0.230271
C9    C     C_3   0.488286 0.070984 0.749450 0.898145
C10   C     C_R   0.438067 0.434211 0.068564 0.028954
C11   C     C_R   0.565860 0.554400 0.068072 0.435406
C12   C     C_3   0.084188 0.527906 0.503790 -0.157689
C13   C     C_R   0.564678 0.552538 0.925858 -0.172455
C14   C     C_R   0.439682 0.434588 0.927548 0.097827
C15   C     C_3   0.347920 0.448072 0.907866 -0.422119
C16   C     C_R   0.499479 0.740345 0.499461 0.946792
C17   C     C_3   0.340325 0.445904 0.059491 0.710608
C18   C     C_R   0.661756 0.499963 0.500432 0.881414
C19   C     C_3   0.974094 0.426400 0.587717 -0.373273
C20   C     C_3   0.029935 0.413445 0.461787 0.390026
C21   C     C_1   0.250003 0.514564 0.502207 -0.071078
C22   C     C_1   0.750781 0.503410 0.501837 -0.090984
C23   C     C_3   0.969673 0.630754 0.547964 -0.283776
C24   C     C_3   0.028368 0.542687 0.627459 0.336249
C25   C     C_3   0.013804 0.200460 0.430456 -0.199884
C26   C     C_3   0.497042 0.850091 0.961590 -0.049425
C27   C     C_3   0.356409 0.105903 0.848195 -0.234436
C28   C     C_3   0.619470 0.156370 0.836394 -0.070281
C29   C     C_3   0.304233 0.291970 0.222039 -0.215119
C30   C     C_3   0.392242 0.928800 0.255139 -0.161092
C31   C     C_3   0.917109 0.514231 0.504639 -0.117739
C32   C     C_3   0.026217 0.614160 0.422978 0.337182
C33   C     C_3   0.972408 0.499399 0.379713 0.285619
C34   C     C_1   0.175049 0.523681 0.503924 0.210754
C35   C     C_1   0.826155 0.507882 0.503592 0.119854
C36   C     C_R   0.534385 0.063697 0.617480 -0.175326
H1    H     H_    0.615651 0.595790 0.868614 0.220990
H2    H     H_    0.445933 0.777741 0.946304 0.125964
H3    H     H_    0.470408 0.937762 0.001003 0.202017
H4    H     H_    0.541627 0.814488 0.037841 0.262677
H5    H     H_    0.384765 0.158196 0.933707 0.231748
H6    H     H_    0.346182 0.005857 0.875355 0.134479
H7    H     H_    0.292544 0.144488 0.828511 0.211159
H8    H     H_    0.626152 0.229632 0.757711 0.128007
H9    H     H_    0.655700 0.071768 0.810208 0.178368
H10   H     H_    0.647891 0.195650 0.929150 0.237281
H11   H     H_    0.698379 0.747118 0.297836 0.366540
H12   H     H_    0.334108 0.537665 0.856557 0.225849
H13   H     H_    0.172512 0.504885 0.163075 0.418546
H14   H     H_    0.278257 0.194790 0.227976 0.178411
H15   H     H_    0.267863 0.346809 0.294509 0.206308
H16   H     H_    0.372324 0.287844 0.248902 0.190282
H17   H     H_    0.026999 0.336474 0.146640 0.373350
H18   H     H_    0.997267 0.914346 0.255944 0.381648
H19   H     H_    0.943418 0.538141 0.877219 0.373136
H20   H     H_    0.677031 0.994750 0.200469 0.367333
H21   H     H_    0.386527 0.032326 0.257365 0.126756
H22   H     H_    0.354442 0.885433 0.337837 0.187375
H23   H     H_    0.319105 0.365616 0.856491 0.219301
H24   H     H_    0.363392 0.897496 0.159477 0.211006
H25   H     H_    0.950937 0.351146 0.656286 0.187516
H26   H     H_    0.943209 0.719664 0.584733 0.220211
H27   H     H_    0.423737 0.879348 0.738219 0.080336
H28   H     H_    0.948609 0.217212 0.391258 0.188128
H29   H     H_    0.011297 0.173120 0.537736 0.180632
H30   H     H_    0.039825 0.120612 0.374625 0.207887
N1    N     N_R   0.499430 0.499140 0.142800 -0.140658
N2    N     N_R   0.499430 0.499180 0.857150 -0.131482
O1    O     O_R   0.500010 0.316790 0.614690 -0.580266
O2    O     O_3   0.542623 0.873341 0.843268 -0.584338
O3    O     O_3   0.405942 0.120907 0.731349 -0.652035
O4    O     O_3   0.532898 0.125820 0.860715 -0.580744
O5    O     O_2   0.718755 0.523729 0.177429 -0.202272
O6    O     O_2   0.704247 0.703802 0.030411 -0.282123
O7    O     O_3   0.641254 0.720451 0.264968 -0.542569
O8    O     O_2   0.360646 0.664142 0.193617 -0.309938
O9    O     O_2   0.262490 0.669481 0.005348 -0.258357
O10   O     O_3   0.212432 0.555456 0.218621 -0.495862
O11   O     O_3   0.290939 0.336561 0.091388 -0.639005
O12   O     O_R   0.500000 0.316760 0.385350 -0.594954
O13   O     O_2   0.866706 0.364671 0.220161 -0.282464
O14   O     O_2   0.895504 0.583528 0.157777 -0.142747
O15   O     O_3   0.014324 0.422893 0.117597 -0.478076
O16   O     O_2   0.139690 0.801515 0.375345 -0.279166
O17   O     O_2   0.070823 0.704661 0.179641 -0.135798
O18   O     O_3   0.981328 0.852215 0.325846 -0.554104
O19   O     O_2   0.114226 0.465226 0.845353 -0.255896
O20   O     O_2   0.126748 0.687701 0.785104 -0.212660
O21   O     O_3   0.985095 0.607774 0.891429 -0.403759
O22   O     O_2   0.507954 0.180039 0.142903 -0.298301
O23   O     O_R   0.376780 0.500010 0.614650 -0.625882
O24   O     O_2   0.641708 0.239030 0.255751 -0.261985
O25   O     O_3   0.630641 0.022418 0.140503 -0.485526
O26   O     O_3   0.478211 0.891488 0.261246 -0.566701
O27   O     O_R   0.376770 0.499970 0.385310 -0.587072
O28   O     O_R   0.500000 0.683240 0.614650 -0.613148
O29   O     O_R   0.499990 0.683210 0.385310 -0.498143
O30   O     O_R   0.623230 0.500030 0.614690 -0.647826
O31   O     O_R   0.623220 0.499990 0.385350 -0.510105
O32   O     O_3   0.068552 0.305112 0.412029 -0.613007
S1    S     S_3+6 0.659835 0.625807 0.135781 0.077308
S2    S     S_3+6 0.294756 0.589547 0.118119 0.063750
S3    S     S_3+6 0.933700 0.467179 0.215261 0.114262
S4    S     S_3+6 0.058116 0.745061 0.321576 0.110780
S5    S     S_3+6 0.067273 0.575793 0.791203 0.114209
S6    S     S_3+6 0.580077 0.132891 0.226795 0.051759
Zn1   Zn    Zn3+2 0.500010 0.500020 0.653130 0.988702
Zn2   Zn    Zn3+2 0.499990 0.499980 0.346870 1.114998

loop_
_geom_bond_atom_site_label_1
_geom_bond_atom_site_label_2
_ccdc_geom_bond_type
O20   S5    D    
O10   S2    S    
C7    C36   A    
C19   C20   S    
C9    O4    S    
C19   C31   S    
C5    O26   S    
O1    Zn1   S    
C7    C8    S    
C10   N1    A    
O31   Zn2   S    
C28   H10   S    
O15   S3    S    
C29   H15   S    
C5    C6    A    
C26   H3    S    
C10   C17   S    
C30   H21   S    
C17   O11   S    
H13   O10   S    
C1    C2    S    
O29   Zn2   S    
C23   H26   S    
C8    C9    S    
C29   O11   S    
C9    C36   S    
C23   C24   S    
C31   C33   S    
N2    Zn1   S    
C13   H1    S    
C4    O23   A    
O5    S1    D    
O18   S4    S    
C18   C22   S    
C12   C32   S    
O9    S2    D    
C28   O4    S    
C15   H12   S    
C11   N1    A    
C29   H14   S    
C3    S6    S    
O8    S2    D    
H20   O25   S    
C28   H9    S    
C16   O28   A    
O23   Zn1   S    
C25   H29   S    
O22   S6    D    
C10   C14   A    
H18   O18   S    
C26   H2    S    
C21   C34   T    
C28   H8    S    
C1    O1    A    
O30   Zn1   S    
C30   H24   S    
C25   H28   S    
C23   C31   S    
C17   S2    S    
C22   C35   T    
O25   S6    S    
C4    O27   A    
C27   H5    S    
C25   O32   S    
O19   S5    D    
O14   S3    D    
C12   C20   S    
C32   S4    S    
C11   S1    S    
O17   S4    D    
O6    S1    D    
C20   C33   S    
O24   S6    D    
O28   Zn1   S    
O16   S4    D    
C31   C35   S    
C18   O31   A    
C12   C34   S    
C27   O3    S    
O13   S3    D    
C2    C36   A    
C15   C17   S    
C12   C24   S    
C33   S3    S    
C15   H23   S    
C25   H30   S    
C9    O3    S    
C3    C5    A    
C6    C7    A    
O12   Zn2   S    
C8    O2    S    
H17   O15   S    
C23   C32   S    
C19   C24   S    
H11   O7    S    
C20   O32   S    
C30   O26   S    
C32   C33   S    
C4    C21   S    
C11   C13   A    
C27   H6    S    
C26   H4    S    
C19   H25   S    
C26   O2    S    
C30   H22   S    
C2    C3    A    
N1    Zn2   S    
C16   O29   A    
O27   Zn2   S    
C8    H27   S    
C6    C16   S    
C27   H7    S    
H19   O21   S    
O21   S5    S    
O7    S1    S    
C1    O12   A    
C14   N2    A    
C14   C15   S    
C24   S5    S    
C18   O30   A    
C29   H16   S    
C13   N2    A    
