data_mof_unit_62401.cif
_audit_creation_date              2013-03-05T16:59:11-0500
_audit_creation_method            fapswitch 2.2
_symmetry_space_group_name_H-M    P1
_symmetry_Int_Tables_number       1
_space_group_crystal_system       triclinic
_cell_length_a                    16.84921
_cell_length_b                    16.638049
_cell_length_c                    17.490907
_cell_angle_alpha                 88.484767
_cell_angle_beta                  89.055734
_cell_angle_gamma                 95.946733
_cell_volume                      4874.36256001

loop_
_atom_site_label
_atom_site_type_symbol
_atom_site_description
_atom_site_fract_x
_atom_site_fract_y
_atom_site_fract_z
_atom_type_partial_charge
O1    O     O_R   0.433430 0.500000 0.610870 -0.558521
O2    O     O_R   0.566570 0.500000 0.389130 -0.563406
O3    O     O_R   0.566520 0.499990 0.610900 -0.573494
O4    O     O_R   0.433480 0.500010 0.389100 -0.574771
C1    C     C_R   0.499724 0.503856 0.647070 0.970921
C2    C     C_R   0.500523 0.497442 0.352612 0.985263
O5    O     O_R   0.426030 0.383870 0.500690 -0.587449
O6    O     O_R   0.573970 0.616130 0.499310 -0.581314
O7    O     O_R   0.559120 0.383870 0.500710 -0.582638
O8    O     O_R   0.440880 0.616130 0.499290 -0.584049
C3    C     C_R   0.488643 0.346104 0.499717 0.981426
C4    C     C_R   0.511263 0.653932 0.500723 0.981971
Zn1   Zn    Zn3+2 0.411140 0.500000 0.499980 1.133904
Zn2   Zn    Zn3+2 0.588860 0.500000 0.500020 1.134990
C5    C     C_R   0.478992 0.259043 0.493059 -0.242361
C6    C     C_R   0.520494 0.740975 0.508533 -0.238985
C7    C     C_R   0.520063 0.221846 0.435439 0.221103
C8    C     C_R   0.476179 0.777709 0.564228 0.230602
C9    C     C_R   0.510780 0.137677 0.431645 0.318130
C10   C     C_R   0.486238 0.861704 0.569609 0.315195
C11   C     C_R   0.461592 0.091550 0.485920 0.094293
C12   C     C_R   0.537563 0.908468 0.517507 0.094599
C13   C     C_R   0.414986 0.129264 0.538825 0.263247
C14   C     C_R   0.586362 0.871347 0.466083 0.263231
C15   C     C_R   0.425727 0.213153 0.543058 -0.221053
C16   C     C_R   0.576131 0.787447 0.461230 -0.225616
N1    N     N_2   0.465348 0.007832 0.493080 -0.051085
N2    N     N_2   0.533653 0.992223 0.510486 -0.050078
H1    H     H_    0.393146 0.242809 0.585947 0.255603
H2    H     H_    0.610482 0.758251 0.419406 0.256107
C17   C     C_R   0.428378 0.515613 0.150774 0.357032
C18   C     C_R   0.572307 0.574809 0.840391 0.360416
C19   C     C_R   0.428745 0.492442 0.228369 0.223931
C20   C     C_R   0.571321 0.559039 0.762164 0.232534
C21   C     C_R   0.501972 0.499498 0.268155 -0.297582
C22   C     C_R   0.500361 0.522092 0.729120 -0.299693
C23   C     C_R   0.574985 0.518417 0.226383 0.294847
C24   C     C_R   0.430036 0.506608 0.775204 0.300196
C25   C     C_R   0.572673 0.542614 0.149885 -0.204581
C26   C     C_R   0.432700 0.522875 0.852483 -0.186889
H3    H     H_    0.627993 0.557521 0.117568 0.231051
H4    H     H_    0.379390 0.508749 0.887998 0.228622
C27   C     C_R   0.500393 0.542913 0.113180 -0.098939
C28   C     C_R   0.502927 0.555843 0.884665 -0.096615
C29   C     C_1   0.502668 0.556911 0.033073 0.155544
C30   C     C_1   0.503886 0.560892 0.965144 0.159621
C31   C     C_R   0.159678 0.433839 0.530659 0.265032
C32   C     C_R   0.840347 0.564273 0.466861 0.265410
C33   C     C_R   0.244005 0.434523 0.529343 0.317256
C34   C     C_R   0.756064 0.564183 0.468381 0.317653
N3    N     N_R   0.292770 0.500020 0.499970 -0.226895
N4    N     N_R   0.707230 0.499980 0.500030 -0.227376
C35   C     C_R   0.257962 0.564423 0.468423 0.309827
C36   C     C_R   0.741685 0.436689 0.533857 0.308845
C37   C     C_R   0.173774 0.565191 0.468401 0.266222
C38   C     C_R   0.825765 0.435308 0.533748 0.264961
C39   C     C_R   0.123772 0.499676 0.500128 -0.196989
C40   C     C_R   0.875983 0.499315 0.499616 -0.196361
C41   C     C_1   0.036186 0.499376 0.499999 0.254571
C42   C     C_1   0.963528 0.499245 0.499768 0.254718
N5    N     N_R   0.422974 0.730048 0.616510 0.255799
O9    O     O_R   0.450663 0.678348 0.663344 -0.370148
O10   O     O_R   0.348497 0.743616 0.622556 -0.213560
N6    N     N_R   0.567870 0.269437 0.378944 0.255796
O11   O     O_R   0.534696 0.318195 0.333023 -0.341134
O12   O     O_R   0.642890 0.259449 0.369192 -0.208859
N7    N     N_R   0.277686 0.364269 0.556645 0.253339
O13   O     O_R   0.260711 0.295760 0.523361 -0.290788
O14   O     O_R   0.314425 0.365408 0.621318 -0.303684
N8    N     N_R   0.722580 0.634075 0.439716 0.255175
O15   O     O_R   0.741924 0.703751 0.470120 -0.282690
O16   O     O_R   0.682730 0.630929 0.376769 -0.327673
N9    N     N_R   0.306208 0.631128 0.432698 0.261871
O17   O     O_R   0.304909 0.703283 0.459297 -0.269886
O18   O     O_R   0.339910 0.622749 0.366430 -0.309912
N10   N     N_R   0.693084 0.372269 0.572597 0.260661
O19   O     O_R   0.690832 0.299296 0.547145 -0.275138
O20   O     O_R   0.665175 0.382903 0.640904 -0.302126
Cl1   Cl    Cl    0.131172 0.647609 0.425531 -0.316586
Cl2   Cl    Cl    0.867841 0.354007 0.579161 -0.320515
Cl3   Cl    Cl    0.438629 0.908621 0.644513 -0.331083
Cl4   Cl    Cl    0.556645 0.089675 0.356380 -0.331859
N11   N     N_R   0.358120 0.082937 0.589105 0.273469
O21   O     O_R   0.319332 0.016503 0.566093 -0.226728
O22   O     O_R   0.337435 0.111868 0.654043 -0.242638
N12   N     N_R   0.644715 0.918243 0.417624 0.273579
O23   O     O_R   0.679906 0.986484 0.440551 -0.229298
O24   O     O_R   0.669865 0.888679 0.354541 -0.246471
Cl5   Cl    Cl    0.338654 0.505038 0.099003 -0.395607
Cl6   Cl    Cl    0.660087 0.619797 0.882540 -0.385951
N13   N     N_R   0.356051 0.456632 0.264981 0.262226
O25   O     O_R   0.291362 0.492990 0.262358 -0.239731
O26   O     O_R   0.353787 0.385837 0.298904 -0.297343
N14   N     N_R   0.641202 0.584543 0.716294 0.258303
O27   O     O_R   0.707145 0.552024 0.727591 -0.255412
O28   O     O_R   0.640537 0.644428 0.667015 -0.309975
N15   N     N_R   0.651683 0.509302 0.258485 0.255965
O29   O     O_R   0.713255 0.559098 0.237151 -0.268850
O30   O     O_R   0.664097 0.441196 0.292158 -0.262112
N16   N     N_R   0.355084 0.474477 0.745480 0.250541
O31   O     O_R   0.318911 0.408408 0.776515 -0.261188
O32   O     O_R   0.313278 0.522318 0.706687 -0.275197
Cl7   Cl    Cl    0.099323 0.350168 0.572006 -0.314003
Cl8   Cl    Cl    0.900979 0.645961 0.422461 -0.312713

loop_
_geom_bond_atom_site_label_1
_geom_bond_atom_site_label_2
_geom_bond_distance
_ccdc_geom_bond_type
N9    O17   1.301085 A    
C23   N15   1.438182 S    
N15   O29   1.301812 A    
C31   C33   1.419516 A    
C29   C30   1.187961 T    
O5    C3    1.282739 A    
C17   C27   1.398124 A    
O1    C1    1.289697 A    
C9    C11   1.407428 A    
C14   C16   1.393704 A    
C19   N13   1.438061 S    
C7    N6    1.432651 S    
N12   O24   1.302091 A    
C5    C15   1.396443 A    
N13   O26   1.301517 A    
C40   C42   1.475222 S    
C32   Cl8   1.767568 S    
C1    C22   1.474665 S    
C2    C21   1.476456 S    
O4    Zn1   1.969476 S    
N5    O10   1.300951 A    
C19   C21   1.422325 A    
Zn1   N3    1.994478 S    
C3    C5    1.448770 S    
C18   Cl6   1.768329 S    
C4    C6    1.450764 S    
N4    C36   1.378778 A    
C17   Cl5   1.770545 S    
C34   N4    1.377007 A    
C17   C19   1.401345 A    
N8    O15   1.301134 A    
C9    Cl4   1.765799 S    
C8    C10   1.396082 A    
N5    O9    1.298890 A    
C32   C34   1.419748 A    
C11   N1    1.403274 S    
C41   C42   1.224076 T    
C12   N2    1.404118 S    
C10   Cl3   1.765913 S    
C6    C16   1.396992 A    
N9    O18   1.299474 A    
O2    C2    1.289670 A    
O8    C4    1.284460 A    
N15   O30   1.300973 A    
C28   C30   1.412626 S    
C35   C37   1.419893 A    
C15   H1    1.081524 S    
C36   C38   1.419220 A    
C31   Cl7   1.767577 S    
N7    O13   1.301154 A    
N10   O19   1.301274 A    
O4    C2    1.293390 A    
N13   O25   1.301092 A    
N12   O23   1.301507 A    
C25   C27   1.386441 A    
C33   N3    1.377512 A    
N3    C35   1.380665 A    
N6    O12   1.300906 A    
O7    Zn2   1.944866 S    
Zn2   N4    1.994479 S    
C31   C39   1.402876 A    
C37   Cl1   1.767831 S    
N11   O21   1.301308 A    
C26   C28   1.386240 A    
O6    C4    1.284589 A    
N16   O32   1.301356 A    
C18   C28   1.395211 A    
C6    C8    1.407874 A    
N14   O28   1.301161 A    
O7    C3    1.285265 A    
O3    Zn2   1.969476 S    
C13   N11   1.438372 S    
C36   N10   1.428265 S    
C24   N16   1.430872 S    
N11   O22   1.301509 A    
C10   C12   1.407423 A    
C16   H2    1.081299 S    
C37   C39   1.402937 A    
C12   C14   1.405974 A    
O1    Zn1   1.981663 S    
C22   C24   1.419288 A    
C5    C7    1.405838 A    
O6    Zn2   1.973748 S    
C33   N7    1.425926 S    
C21   C23   1.422763 A    
C35   N9    1.429216 S    
C20   N14   1.434382 S    
N10   O20   1.299912 A    
O3    C1    1.290247 A    
O8    Zn1   1.944863 S    
C8    N5    1.433885 S    
C32   C40   1.403537 A    
C38   Cl2   1.767405 S    
N6    O11   1.299986 A    
C11   C13   1.405537 A    
C34   N8    1.427014 S    
C27   C29   1.413512 S    
C24   C26   1.386049 A    
C26   H4    1.085394 S    
N16   O31   1.301245 A    
C7    C9    1.396387 A    
C38   C40   1.403388 A    
C20   C22   1.425026 A    
C13   C15   1.392814 A    
N14   O27   1.300945 A    
O2    Zn2   1.981661 S    
C39   C41   1.475299 S    
O5    Zn1   1.973748 S    
C25   H3    1.084971 S    
C23   C25   1.389392 A    
N1    N2    1.246588 D    
N8    O16   1.298429 A    
N7    O14   1.298042 A    
C14   N12   1.439619 S    
C18   C20   1.400035 A    
