data_mof_unit_56943.cif
_audit_creation_date              2013-03-05T16:03:59-0500
_audit_creation_method            fapswitch 2.2
_symmetry_space_group_name_H-M    P1
_symmetry_Int_Tables_number       1
_space_group_crystal_system       triclinic
_cell_length_a                    14.923264
_cell_length_b                    13.98767
_cell_length_c                    23.182856
_cell_angle_alpha                 89.88592
_cell_angle_beta                  89.190091
_cell_angle_gamma                 90.024572
_cell_volume                      4838.73502757

loop_
_atom_site_label
_atom_site_type_symbol
_atom_site_description
_atom_site_fract_x
_atom_site_fract_y
_atom_site_fract_z
_atom_type_partial_charge
O1    O     O_R   0.367850 0.580280 0.500010 -0.612796
O2    O     O_R   0.632150 0.419720 0.499990 -0.558059
O3    O     O_R   0.632150 0.580280 0.499990 -0.635895
O4    O     O_R   0.367850 0.419720 0.500010 -0.598999
C1    C     C_R   0.325690 0.499951 0.503254 1.007050
C2    C     C_R   0.674150 0.500069 0.497562 0.943619
O5    O     O_R   0.499970 0.580290 0.416160 -0.645850
O6    O     O_R   0.500030 0.419710 0.583840 -0.616099
O7    O     O_R   0.500030 0.580290 0.583840 -0.624141
O8    O     O_R   0.499970 0.419710 0.416160 -0.569665
C3    C     C_R   0.498771 0.500288 0.389135 1.007320
C4    C     C_R   0.499988 0.500024 0.610875 0.974839
Zn1   Zn    Zn3+2 0.500000 0.607200 0.500000 0.979902
Zn2   Zn    Zn3+2 0.500000 0.392800 0.500000 1.060903
C5    C     C_R   0.613890 0.440309 0.877245 0.610252
C6    C     C_R   0.531748 0.591086 0.119356 0.612335
N1    N     N_R   0.573471 0.513690 0.849238 -0.371226
N2    N     N_R   0.558277 0.510738 0.147612 -0.368988
C7    C     C_R   0.539934 0.591224 0.877467 0.615177
C8    C     C_R   0.594640 0.434445 0.119542 0.614640
C9    C     C_R   0.547249 0.598319 0.937588 -0.158463
C10   C     C_R   0.609424 0.438026 0.059537 -0.158430
C11   C     C_R   0.577957 0.517187 0.968133 -0.102509
C12   C     C_R   0.573835 0.516660 0.028814 -0.103222
C13   C     C_R   0.611051 0.435967 0.937971 -0.159491
C14   C     C_R   0.532708 0.593982 0.058681 -0.160512
C15   C     C_R   0.518286 0.680519 0.968048 0.336967
C16   C     C_R   0.653578 0.363376 0.029217 0.333936
C17   C     C_R   0.497193 0.672267 0.027154 0.328178
C18   C     C_R   0.641199 0.354985 0.969343 0.330408
O9    O     O_2   0.658053 0.373955 0.845870 -0.452124
O10   O     O_2   0.507450 0.668235 0.150563 -0.457383
O11   O     O_2   0.495627 0.658257 0.847250 -0.449204
O12   O     O_2   0.612854 0.354567 0.149795 -0.450410
C19   C     C_R   0.601458 0.556812 0.245866 0.221141
C20   C     C_R   0.617665 0.547743 0.748488 0.229771
C21   C     C_R   0.581934 0.556184 0.304672 -0.222335
C22   C     C_R   0.595970 0.544643 0.690293 -0.269021
H1    H     H_    0.624900 0.595500 0.333643 0.185512
H2    H     H_    0.641393 0.576313 0.658675 0.160228
C23   C     C_R   0.510251 0.502171 0.326914 -0.219576
C24   C     C_R   0.516513 0.501042 0.672342 -0.176567
C25   C     C_R   0.454560 0.450107 0.289853 0.325209
C26   C     C_R   0.456886 0.459917 0.712931 0.342997
C27   C     C_R   0.472674 0.452947 0.230666 -0.173931
C28   C     C_R   0.479531 0.461586 0.771014 -0.207045
H3    H     H_    0.430024 0.414896 0.201072 0.204963
H4    H     H_    0.434479 0.431281 0.803210 0.198806
C29   C     C_R   0.545280 0.505783 0.208661 0.210237
C30   C     C_R   0.558586 0.505640 0.788863 0.224897
C31   C     C_R   0.821523 0.584345 0.496406 0.096867
C32   C     C_R   0.182010 0.410556 0.500775 0.121196
C33   C     C_R   0.770839 0.500239 0.487627 -0.225222
C34   C     C_R   0.227841 0.499205 0.502597 -0.177270
C35   C     C_R   0.813619 0.417394 0.465886 0.428279
C36   C     C_R   0.181137 0.586291 0.496838 0.326421
C37   C     C_R   0.906465 0.410790 0.471827 -0.164036
C38   C     C_R   0.094852 0.583649 0.474061 -0.126182
C39   C     C_R   0.955125 0.497242 0.471442 -0.073642
C40   C     C_R   0.048316 0.496032 0.473730 -0.058689
C41   C     C_R   0.910146 0.585840 0.475287 0.088980
C42   C     C_R   0.093299 0.408471 0.481126 0.079161
C43   C     C_R   0.952068 0.322295 0.475817 0.468781
C44   C     C_R   0.050855 0.666694 0.454450 0.407473
C45   C     C_R   0.046007 0.321800 0.472674 0.032634
C46   C     C_R   0.956583 0.670752 0.459486 0.032356
C47   C     C_R   0.520940 0.798349 0.450348 -0.057075
C48   C     C_R   0.480512 0.201532 0.549791 -0.038196
C49   C     C_R   0.478919 0.798028 0.549626 -0.016169
C50   C     C_R   0.518435 0.201880 0.449993 0.094954
N3    N     N_R   0.500000 0.750030 0.500000 -0.130069
N4    N     N_R   0.500000 0.249970 0.500000 -0.118632
C51   C     C_R   0.478482 0.898630 0.550829 0.019279
C52   C     C_R   0.519356 0.101281 0.448828 -0.005335
C53   C     C_R   0.520637 0.898970 0.449011 0.017540
C54   C     C_R   0.479108 0.100932 0.550893 0.009790
C55   C     C_R   0.499396 0.949352 0.499891 0.099067
C56   C     C_R   0.499222 0.050531 0.499860 0.083044
C57   C     C_R   0.457787 0.949446 0.601522 -0.140128
C58   C     C_R   0.540122 0.050523 0.398132 -0.106897
C59   C     C_R   0.541004 0.950139 0.398261 -0.157292
C60   C     C_R   0.458367 0.049828 0.601599 -0.148716
H5    H     H_    0.537807 0.758571 0.411736 0.150756
H6    H     H_    0.466264 0.241217 0.588655 0.188389
H7    H     H_    0.462118 0.758012 0.588253 0.175337
H8    H     H_    0.533657 0.241805 0.411092 0.175163
H9    H     H_    0.441490 0.911596 0.641118 0.174590
H10   H     H_    0.555930 0.088427 0.358474 0.180147
H11   H     H_    0.557455 0.912564 0.358690 0.166245
H12   H     H_    0.442540 0.087453 0.641255 0.168585
S1    S     S_3+6 0.526587 0.796493 0.936001 0.146311
O13   O     O_2   0.441085 0.820417 0.905638 -0.175364
O14   O     O_2   0.544012 0.870772 0.981241 -0.191691
O15   O     O_3   0.612180 0.798148 0.887963 -0.525297
H13   H     H_    0.609501 0.862145 0.869699 0.395341
S2    S     S_3+6 0.738512 0.293744 0.062906 0.149587
O16   O     O_2   0.697248 0.207358 0.091407 -0.166410
O17   O     O_2   0.807470 0.261860 0.019169 -0.203352
O18   O     O_3   0.790092 0.360200 0.112962 -0.516669
H14   H     H_    0.831608 0.315603 0.132307 0.403556
C61   C     C_3   0.093435 0.232561 0.451382 -0.667198
H15   H     H_    0.051517 0.194691 0.419477 0.274288
H16   H     H_    0.156835 0.251209 0.428370 0.250694
H17   H     H_    0.107831 0.182769 0.487290 0.271011
C62   C     C_3   0.906897 0.761968 0.444672 -0.730371
H18   H     H_    0.927102 0.789853 0.401895 0.290138
H19   H     H_    0.833828 0.750873 0.441099 0.222883
H20   H     H_    0.920245 0.817324 0.477700 0.263609
S3    S     S_3+6 0.412347 0.748376 0.057128 0.151961
O19   O     O_2   0.455425 0.828761 0.089597 -0.175181
O20   O     O_2   0.354701 0.789375 0.010592 -0.197297
O21   O     O_3   0.345780 0.685164 0.102333 -0.504482
H21   H     H_    0.305653 0.733069 0.120601 0.402552
S4    S     S_3+6 0.645301 0.238664 0.937516 0.150191
O22   O     O_2   0.734061 0.224906 0.907186 -0.180924
O23   O     O_2   0.633356 0.162133 0.982542 -0.185071
O24   O     O_3   0.562134 0.227226 0.889723 -0.514051
H22   H     H_    0.572504 0.164392 0.871164 0.396328
C63   C     C_3   0.682530 0.611383 0.224672 -0.737715
H23   H     H_    0.742854 0.585611 0.247502 0.246313
H24   H     H_    0.695200 0.602403 0.177759 0.245039
H25   H     H_    0.673334 0.688683 0.233780 0.249840
C64   C     C_3   0.702923 0.596796 0.765830 -0.740235
H26   H     H_    0.760929 0.561983 0.743937 0.244899
H27   H     H_    0.700519 0.673088 0.752617 0.245958
H28   H     H_    0.714011 0.593820 0.812994 0.250352
S5    S     S_3+6 0.360164 0.385222 0.315675 0.059136
O25   O     O_2   0.297206 0.363838 0.267316 -0.237680
O26   O     O_2   0.391391 0.292545 0.341314 -0.264331
O27   O     O_3   0.305243 0.447914 0.366898 -0.563123
H29   H     H_    0.290189 0.509583 0.348337 0.358462
S6    S     S_3+6 0.351588 0.412329 0.693582 0.057805
O28   O     O_2   0.288946 0.410466 0.744932 -0.220464
O29   O     O_2   0.310858 0.472688 0.647181 -0.265140
O30   O     O_3   0.364836 0.300355 0.668952 -0.573046
H30   H     H_    0.395915 0.265901 0.700225 0.354683
C65   C     C_3   0.788452 0.662746 0.536600 -0.796360
H31   H     H_    0.844633 0.707324 0.552250 0.255960
H32   H     H_    0.739418 0.709923 0.515023 0.251509
H33   H     H_    0.756493 0.630545 0.575596 0.228333
C66   C     C_3   0.218639 0.325319 0.533893 -0.694461
H34   H     H_    0.164042 0.285325 0.556217 0.252418
H35   H     H_    0.256942 0.276967 0.504759 0.242220
H36   H     H_    0.262725 0.348583 0.569274 0.291834
S7    S     S_3+6 0.761138 0.345792 0.412543 0.075372
O31   O     O_2   0.830655 0.304266 0.372262 -0.246521
O32   O     O_2   0.708508 0.266161 0.440247 -0.242887
O33   O     O_3   0.691639 0.414016 0.373916 -0.606695
H37   H     H_    0.666715 0.370338 0.344616 0.386803
S8    S     S_3+6 0.210170 0.685912 0.541751 0.115575
O34   O     O_2   0.125723 0.727532 0.567337 -0.228962
O35   O     O_2   0.268205 0.653535 0.590513 -0.246870
O36   O     O_3   0.263868 0.773681 0.505496 -0.447619
H38   H     H_    0.315703 0.743159 0.486063 0.372857
S9    S     S_3+6 0.897162 0.216313 0.500731 0.074168
O37   O     O_2   0.813502 0.240746 0.534430 -0.264082
O38   O     O_2   0.874079 0.153956 0.450353 -0.219610
O39   O     O_3   0.965513 0.155174 0.544516 -0.546359
H39   H     H_    0.933279 0.094842 0.553300 0.398488
S10   S     S_3+6 0.111104 0.752010 0.411759 0.086772
O40   O     O_2   0.111649 0.846709 0.442235 -0.167462
O41   O     O_2   0.205749 0.719838 0.400296 -0.295492
O42   O     O_3   0.061931 0.765796 0.347452 -0.510603
H40   H     H_    0.057884 0.700345 0.331448 0.356996

loop_
_geom_bond_atom_site_label_1
_geom_bond_atom_site_label_2
_geom_bond_distance
_ccdc_geom_bond_type
O5    Zn1   1.980505 S    
C43   C45   1.402761 A    
C47   H5    1.081634 S    
C61   H15   1.110567 S    
S9    O38   1.502877 D    
C62   H18   1.102917 S    
C19   C63   1.506231 S    
O42   H40   0.990660 S    
C31   C41   1.403882 A    
C45   C61   1.515275 S    
C26   S6    1.770250 S    
O3    C2    1.286344 A    
C57   H9    1.083368 S    
S4    O22   1.503456 D    
C20   C30   1.405089 A    
O30   H30   0.990602 S    
C55   C56   1.415259 A    
O5    C3    1.283817 A    
C62   H19   1.105644 S    
C21   C23   1.401148 A    
O1    C1    1.289085 A    
C17   S3    1.788483 S    
C7    C9    1.403286 A    
C54   C56   1.407219 A    
C22   C24   1.401973 A    
S3    O20   1.502344 D    
C37   C39   1.410219 A    
C15   C17   1.406098 A    
C38   C40   1.408463 A    
S2    O18   1.682898 S    
C40   C42   1.408275 A    
C27   H3    1.082853 S    
C49   N3    1.366134 A    
O7    Zn1   1.979033 S    
C4    C24   1.449682 S    
C64   H27   1.110373 S    
C66   H34   1.109587 S    
C41   C46   1.419686 A    
C26   C28   1.393153 A    
S6    O28   1.503373 D    
S8    O36   1.682787 S    
S2    O17   1.502895 D    
C19   C29   1.406644 A    
C11   C12   1.407232 A    
C49   C51   1.407529 A    
C47   N3    1.366015 A    
O3    Zn1   2.007890 S    
C48   N4    1.365020 A    
C8    O12   1.347846 S    
C33   C35   1.413615 A    
C9    C15   1.415104 A    
C39   C40   1.392588 A    
C61   H16   1.110305 S    
C10   C16   1.417379 A    
S9    O39   1.681865 S    
C38   C44   1.412131 A    
C23   C25   1.407617 A    
O2    C2    1.287363 A    
C24   C26   1.407800 A    
O21   H21   0.990588 S    
S7    O32   1.500720 D    
C32   C34   1.416845 A    
S7    O31   1.503654 D    
C28   H4    1.083098 S    
C63   H24   1.108655 S    
C9    C11   1.416240 A    
C6    C14   1.407000 A    
C21   H1    1.085356 S    
C65   H33   1.110704 S    
C34   C36   1.410739 A    
C39   C41   1.412008 A    
C48   H6    1.077860 S    
S10   O42   1.681707 S    
C1    C34   1.460546 S    
C64   H26   1.110400 S    
C20   C64   1.505349 S    
O33   H37   0.990773 S    
C7    O11   1.348374 S    
C66   H36   1.107984 S    
C54   C60   1.405279 A    
S1    O13   1.503462 D    
C53   C59   1.405437 A    
C64   H28   1.108874 S    
Zn1   N3    1.997859 S    
C31   C33   1.414956 A    
C44   C46   1.411213 A    
S5    O26   1.502076 D    
C50   C52   1.407522 A    
S8    O35   1.503019 D    
S1    O14   1.502960 D    
C65   H32   1.109314 S    
O18   H14   0.990550 S    
C27   C29   1.400943 A    
O6    C4    1.287494 A    
S2    O16   1.503512 D    
C44   S10   1.783613 S    
C51   C57   1.405352 A    
C62   H20   1.109973 S    
C15   S1    1.786423 S    
C25   C27   1.395241 A    
C14   C17   1.422131 A    
C31   C65   1.518551 S    
C6    N2    1.361497 A    
C8    C10   1.406191 A    
C61   H17   1.107730 S    
O8    C3    1.288686 A    
C35   C37   1.397406 A    
O8    Zn2   1.979033 S    
O39   H39   0.990574 S    
C10   C12   1.416777 A    
S3    O21   1.683142 S    
O1    Zn1   2.007574 S    
C46   C62   1.517201 S    
C25   S5    1.771824 S    
S5    O25   1.503309 D    
C50   H8    1.081155 S    
S7    O33   1.676889 S    
C49   H7    1.081499 S    
C18   S4    1.788598 S    
C63   H25   1.110285 S    
C13   C18   1.421568 A    
C5    N1    1.359373 A    
O6    Zn2   1.980504 S    
C42   C45   1.417855 A    
C19   C21   1.390068 A    
Zn2   N4    1.997860 S    
C37   C43   1.416333 A    
C12   C14   1.420346 A    
C58   C59   1.404199 A    
C52   C58   1.405222 A    
N1    C30   1.424951 S    
C57   C60   1.404141 A    
S4    O23   1.502484 D    
C63   H23   1.110624 S    
C5    O9    1.347038 S    
C6    O10   1.347385 S    
C65   H31   1.110137 S    
C28   C30   1.398910 A    
C32   C66   1.522675 S    
C60   H12   1.083433 S    
C16   S2    1.786386 S    
S10   O40   1.502570 D    
C66   H35   1.109766 S    
O27   H29   0.990521 S    
S5    O27   1.681695 S    
C43   S9    1.784601 S    
C58   H10   1.083425 S    
C32   C42   1.406427 A    
O24   H22   0.990586 S    
S1    O15   1.682847 S    
C22   H2    1.085090 S    
C48   C54   1.407485 A    
S6    O30   1.678959 S    
C16   C18   1.407999 A    
N1    C7    1.359770 A    
C36   C38   1.399102 A    
C3    C23   1.450382 S    
N2    C8    1.360162 A    
C11   C13   1.420357 A    
C59   H11   1.083386 S    
O4    Zn2   2.007891 S    
O15   H13   0.990550 S    
O2    Zn2   2.007572 S    
O7    C4    1.284732 A    
S4    O24   1.683149 S    
C35   S7    1.782517 S    
C20   C22   1.392623 A    
O4    C1    1.288621 A    
C47   C53   1.407736 A    
C5    C13   1.409036 A    
S6    O29   1.501566 D    
C52   C56   1.407210 A    
C53   C55   1.407625 A    
S9    O37   1.503216 D    
C51   C55   1.407590 A    
S8    O34   1.503263 D    
C50   N4    1.366166 A    
C2    C33   1.457972 S    
O36   H38   0.987319 S    
S3    O19   1.503519 D    
C36   S8    1.797665 S    
N2    C29   1.427349 S    
S10   O41   1.502815 D    
