data_mof_unit_66792.cif
_audit_creation_date              2013-03-05T15:41:06-0500
_audit_creation_method            fapswitch 2.2
_symmetry_space_group_name_H-M    P1
_symmetry_Int_Tables_number       1
_space_group_crystal_system       triclinic
_cell_length_a                    8.347071
_cell_length_b                    14.388068
_cell_length_c                    15.159358
_cell_angle_alpha                 93.741201
_cell_angle_beta                  99.013442
_cell_angle_gamma                 91.013739
_cell_volume                      1793.5785921

loop_
_atom_site_label
_atom_site_type_symbol
_atom_site_description
_atom_site_fract_x
_atom_site_fract_y
_atom_site_fract_z
_atom_type_partial_charge
P1    P     P_3+3 0.947560 0.714050 0.560480 0.620694
O1    O     O_2   0.113690 0.728200 0.532750 -0.414474
O2    O     O_3   0.871900 0.612110 0.540440 -0.238697
O3    O     O_3   0.325660 0.668890 0.372600 -0.285431
O4    O     O_2   0.231103 0.832061 0.432907 -0.334319
O5    O     O_3   0.983119 0.736673 0.676936 -0.580806
O6    O     O_3   0.269917 0.815384 0.264266 -0.502449
C1    C     C_3   0.359020 0.798767 0.121238 -0.102020
H1    H     H_    0.442773 0.859199 0.144632 0.202151
P2    P     P_3+3 0.325150 0.423860 0.297970 0.600567
P3    P     P_3+3 0.851130 0.620715 0.212968 0.761675
O7    O     O_2   0.147570 0.451710 0.282630 -0.369536
O8    O     O_3   0.905540 0.621350 0.329600 -0.258725
O9    O     O_2   0.962361 0.548827 0.174737 -0.260046
O10   O     O_3   0.338478 0.305817 0.267396 -0.607718
O11   O     O_3   0.904050 0.726008 0.167998 -0.488337
C2    C     C_3   0.829447 0.805988 0.201510 0.948777
C3    C     C_3   0.808544 0.880192 0.131318 0.683195
H2    H     H_    0.929400 0.902276 0.117477 0.084860
C4    C     C_3   0.746350 0.339103 0.281370 0.150361
H3    H     H_    0.636861 0.354658 0.311372 0.122050
H4    H     H_    0.827685 0.402192 0.293124 0.106280
C5    C     C_3   0.695034 0.317057 0.178707 0.281076
H5    H     H_    0.579536 0.352087 0.158996 0.012926
Ba1   Ba    Ba6+2 0.142880 0.544780 0.454020 1.838525
C6    C     C_3   0.067700 0.664357 0.719054 1.003907
H6    H     H_    0.185784 0.657991 0.695942 -0.098099
C7    C     C_3   0.094711 0.688240 0.820139 -0.121515
H7    H     H_    0.134689 0.762226 0.834810 0.194011
H8    H     H_    0.191389 0.644881 0.853480 0.060540
C8    C     C_3   0.228488 0.248658 0.299939 0.904614
H9    H     H_    0.106054 0.277944 0.293621 0.006033
C9    C     C_3   0.221801 0.154321 0.244604 0.266920
H10   H     H_    0.154657 0.103033 0.277871 0.102623
P4    P     P_3+3 0.862730 0.285940 0.439440 0.549127
O12   O     O_2   0.696600 0.271740 0.467230 -0.305444
O13   O     O_3   0.938380 0.387880 0.459490 -0.389815
O14   O     O_3   0.484630 0.331100 0.627330 -0.395732
O15   O     O_3   0.823340 0.263571 0.322569 -0.538731
P5    P     P_3+3 0.944866 0.383353 0.788393 0.561574
O16   O     O_3   0.389110 0.548970 0.605210 -0.385880
O17   O     O_3   0.904740 0.378630 0.670330 -0.318566
O18   O     O_2   0.824831 0.452767 0.821068 -0.298175
O19   O     O_3   0.875960 0.278900 0.824901 -0.573472
Ba2   Ba    Ba6+2 0.667290 0.455210 0.545900 1.787335
P6    P     P_3+3 0.347926 0.788569 0.373699 0.656659
C10   C     C_3   0.324087 0.749989 0.202852 1.008565
H11   H     H_    0.436362 0.715867 0.231054 -0.033217
H12   H     H_    0.418843 0.750014 0.077619 0.121940
O20   O     O_3   0.421180 0.451020 0.394720 -0.277355
C11   C     C_3   0.499864 0.745227 0.672825 0.136047
H13   H     H_    0.613007 0.729460 0.645306 0.110072
H14   H     H_    0.394842 0.726936 0.619742 0.074409
C12   C     C_3   0.494738 0.850626 0.698987 0.346602
H15   H     H_    0.457157 0.885959 0.636220 -0.078175
P7    P     P_3+3 0.480885 0.574463 0.717568 0.534440
O21   O     O_2   0.662730 0.548230 0.717350 -0.249798
O22   O     O_3   0.490904 0.694255 0.747854 -0.516450
C13   C     C_3   0.002174 0.215713 0.841451 0.514594
H16   H     H_    0.115869 0.250983 0.877187 0.039750
C14   C     C_3   0.948103 0.143375 0.901686 -0.053562
H17   H     H_    0.827925 0.112509 0.870201 0.160419
H18   H     H_    0.933297 0.178388 0.967263 0.161024
P8    P     P_3+3 0.467327 0.210739 0.630916 0.601106
C15   C     C_3   0.475802 0.256968 0.798251 0.159993
H19   H     H_    0.344495 0.270298 0.779752 0.047776
O23   O     O_2   0.605562 0.170270 0.584748 -0.269849
O24   O     O_3   0.523534 0.184326 0.742372 -0.513680
H20   H     H_    0.547889 0.321846 0.794340 0.138648
H21   H     H_    0.456276 0.158589 0.898382 0.175468
C16   C     C_3   0.506756 0.229693 0.894424 0.480057
H22   H     H_    0.638880 0.230571 0.919405 0.097495
C17   C     C_R   0.019203 0.940286 0.543061 0.107077
C18   C     C_R   0.817977 0.805723 0.504110 0.116321
C19   C     C_R   0.665274 0.774772 0.459304 0.427395
C20   C     C_R   0.553572 0.836025 0.419184 -0.080091
C21   C     C_R   0.591739 0.932347 0.423953 0.180757
C22   C     C_R   0.751117 0.965497 0.461085 -0.069780
C23   C     C_R   0.864172 0.903107 0.504010 -0.061999
C24   C     C_R   0.950587 0.097763 0.496382 -0.043709
C25   C     C_R   0.063260 0.035628 0.539223 0.075166
C26   C     C_R   0.993820 0.195509 0.497946 0.207557
C27   C     C_R   0.147185 0.226587 0.542612 -0.321730
C28   C     C_R   0.262389 0.164467 0.579013 0.307341
C29   C     C_R   0.220038 0.069531 0.577487 -0.072807
C30   C     C_R   0.798527 0.060158 0.455206 0.063332
H23   H     H_    0.309436 0.022685 0.607298 0.147725
H24   H     H_    0.180555 0.299860 0.545239 0.149161
H25   H     H_    0.107522 0.895406 0.576539 0.144591
H26   H     H_    0.716887 0.104873 0.417252 0.210533
C31   C     C_R   0.245479 0.459010 0.770347 -0.429435
C32   C     C_R   0.151448 0.431061 0.832730 0.181394
C33   C     C_R   0.206505 0.451189 0.925057 -0.121328
C34   C     C_R   0.362093 0.494640 0.956238 0.207287
C35   C     C_R   0.454516 0.518598 0.889254 -0.140748
C36   C     C_R   0.391675 0.507357 0.798286 0.113676
C37   C     C_R   0.571926 0.568899 0.087458 0.590553
C38   C     C_R   0.640814 0.575842 0.177871 -0.070214
C39   C     C_R   0.412100 0.490228 0.215094 0.119443
C40   C     C_R   0.348234 0.476524 0.123043 -0.272829
C41   C     C_R   0.426466 0.515042 0.056183 -0.098732
C42   C     C_R   0.557854 0.540097 0.241555 0.293556
H27   H     H_    0.125021 0.433893 0.970495 0.172062
H28   H     H_    0.242050 0.431481 0.105242 0.233399
H29   H     H_    0.575108 0.547792 0.903624 0.256653
H30   H     H_    0.199028 0.449490 0.699494 0.178148
F1    F     F_    0.208688 0.679755 0.177110 -0.651826
N1    N     N_R   0.665356 0.217753 0.153277 0.297890
O25   O     O_R   0.538189 0.191086 0.095649 -0.248400
O26   O     O_R   0.776369 0.157676 0.175262 -0.233522
N2    N     N_R   0.812403 0.354314 0.127213 0.213729
O27   O     O_R   0.761761 0.392702 0.052929 -0.372782
O28   O     O_R   0.965204 0.337021 0.147164 -0.390655
F2    F     F_    0.981437 0.580610 0.700866 -0.673987
N3    N     N_R   0.945326 0.673459 0.856450 0.315907
O29   O     O_R   0.818568 0.721537 0.829901 -0.232440
O30   O     O_R   0.941285 0.616970 0.919720 -0.253154
F3    F     F_    0.285251 0.235931 0.388612 -0.711220
N4    N     N_R   0.211527 0.831352 0.069612 0.273960
O31   O     O_R   0.197654 0.919338 0.056204 -0.225767
O32   O     O_R   0.104839 0.771610 0.025847 -0.283805
N5    N     N_R   0.136593 0.162179 0.153744 0.242065
O33   O     O_R   0.191854 0.220262 0.102629 -0.308364
O34   O     O_R   0.038565 0.094476 0.116685 -0.282178
N6    N     N_R   0.384714 0.120129 0.238653 0.294572
O35   O     O_R   0.511601 0.153787 0.292960 -0.318629
O36   O     O_R   0.402177 0.050516 0.181988 -0.196583
N7    N     N_R   0.655739 0.888550 0.739610 0.273262
O37   O     O_R   0.771149 0.891437 0.691367 -0.394073
O38   O     O_R   0.679777 0.930664 0.819388 -0.231327
N8    N     N_R   0.376111 0.869402 0.759582 0.243917
O39   O     O_R   0.250309 0.918927 0.735012 -0.364480
O40   O     O_R   0.401812 0.843039 0.840983 -0.257268
N9    N     N_R   0.709950 0.845939 0.047009 0.224596
O41   O     O_R   0.762547 0.779484 0.998035 -0.214728
O42   O     O_R   0.589792 0.894657 0.011491 -0.231198
N10   N     N_R   0.031189 0.168521 0.757529 0.205431
O43   O     O_R   0.163175 0.122177 0.756622 -0.416218
O44   O     O_R   0.910858 0.152029 0.692419 -0.343054
N11   N     N_R   0.064986 0.069349 0.915761 0.309212
O45   O     O_R   0.212048 0.088287 0.956395 -0.233992
O46   O     O_R   0.023064 0.983927 0.886797 -0.193120
F4    F     F_    0.434256 0.291702 0.948153 -0.677404
N12   N     N_R   0.930402 0.845066 0.283165 0.222969
O47   O     O_R   0.950971 0.795549 0.351723 -0.363615
O48   O     O_R   0.991201 0.929784 0.291296 -0.357875
F5    F     F_    0.619844 0.683956 0.459609 -0.621515
N13   N     N_R   0.465312 0.996995 0.399738 0.255077
O49   O     O_R   0.451512 0.070307 0.451808 -0.390093
O50   O     O_R   0.349177 0.977293 0.333635 -0.310694
F6    F     F_    0.650474 0.616630 0.032882 -0.627631
F7    F     F_    0.679245 0.784458 0.221868 -0.814464
F8    F     F_    0.625114 0.548127 0.329035 -0.614837
F9    F     F_    0.737355 0.957850 0.166101 -0.586222

loop_
_geom_bond_atom_site_label_1
_geom_bond_atom_site_label_2
_geom_bond_distance
_ccdc_geom_bond_type
C33   C34   1.428730 A    
C35   C36   1.394358 A    
N7    O37   1.299193 A    
C33   H27   1.078043 S    
P6    C20   1.847810 S    
O3    Ba1   2.796629 S    
C8    F3    1.378613 S    
O3    P6    1.727390 S    
C21   C22   1.421980 A    
N1    O25   1.299383 A    
C12   N8    1.469455 S    
N10   O44   1.299893 A    
Ba2   O21   2.850740 S    
C6    H6    1.099939 S    
C2    N12   1.457422 S    
P1    C18   1.883576 S    
P8    O24   1.749580 S    
C7    H7    1.107824 S    
P4    O13   1.578384 S    
N13   O50   1.293474 A    
C3    H2    1.107403 S    
P2    O10   1.741234 S    
P3    O9    1.546645 D    
C13   N10   1.458711 S    
O19   C13   1.407201 S    
N3    O29   1.299537 A    
C40   H28   1.077179 S    
P7    O21   1.571015 D    
C2    C3    1.548941 S    
P1    O1    1.524769 D    
C14   H18   1.110244 S    
Ba1   O20   2.937892 S    
P8    C28   1.859622 S    
O14   Ba2   2.796109 S    
C24   C30   1.405976 A    
C35   H29   1.068413 S    
Ba1   O13   2.819454 S    
C31   C36   1.386352 A    
C28   C29   1.402683 A    
P5    O18   1.540478 D    
P4    O12   1.525256 D    
C34   C41   1.533529 S    
N1    O26   1.298481 A    
C1    H1    1.109548 S    
N3    O30   1.300980 A    
C5    H5    1.104237 S    
C8    C9    1.543759 S    
H21   C16   1.108355 S    
C14   H17   1.112592 S    
C3    F9    1.387230 S    
C22   C30   1.423858 A    
C29   H23   1.080397 S    
C27   H24   1.082248 S    
C13   H16   1.112491 S    
P1    Ba1   3.412639 S    
C31   H30   1.082218 S    
O8    Ba1   2.805983 S    
P2    C39   1.853318 S    
C17   C25   1.421154 A    
P4    C26   1.890436 S    
C37   C38   1.397250 A    
O14   P8    1.740313 S    
C20   C21   1.411208 A    
N4    O32   1.298249 A    
O5    C6    1.400051 S    
C17   C23   1.416098 A    
C13   C14   1.535362 S    
C18   C19   1.397673 A    
C11   H13   1.111803 S    
O6    P6    1.754672 S    
O2    Ba1   2.934501 S    
N11   O45   1.299944 A    
C24   C26   1.443498 A    
C30   H26   1.072521 S    
Ba1   O16   2.825330 S    
C31   C32   1.393951 A    
C4    O15   1.404149 S    
C22   C23   1.426038 A    
O11   C2    1.420662 S    
N9    O42   1.300809 A    
C19   F5    1.354619 S    
C38   C42   1.392021 A    
C12   N7    1.467615 S    
O2    Ba2   2.819975 S    
P1    O5    1.751598 S    
C11   H14   1.108356 S    
O17   Ba2   2.806696 S    
O6    C10   1.410359 S    
P4    O15   1.757802 S    
C19   C20   1.391869 A    
P8    O23   1.543980 D    
O16   P7    1.766978 S    
C7    N3    1.457400 S    
P3    O11   1.777764 S    
C10   H11   1.104630 S    
C21   N13   1.439271 S    
C4    C5    1.558229 S    
C15   O24   1.404860 S    
C9    N6    1.468219 S    
C9    H10   1.111528 S    
C37   F6    1.346920 S    
O12   Ba2   2.855520 S    
N2    O28   1.296264 A    
C11   O22   1.403808 S    
P5    C32   1.852320 S    
C42   F8    1.353370 S    
P2    O7    1.528710 D    
P2    Ba1   3.409117 S    
N12   O48   1.302866 A    
C4    H4    1.111674 S    
C15   H19   1.111248 S    
C10   F1    1.377545 S    
C18   C23   1.446833 A    
P3    C38   1.845042 S    
N6    O35   1.300254 A    
C27   C28   1.398785 A    
C2    F7    1.372248 S    
N5    O34   1.300150 A    
N8    O39   1.299120 A    
P4    Ba2   3.413205 S    
Ba1   Ba2   4.598452 S    
C16   F4    1.379973 S    
N10   O43   1.299270 A    
C6    F2    1.382085 S    
P7    C36   1.843436 S    
C12   H15   1.112417 S    
N2    O27   1.300824 A    
C8    H9    1.104977 S    
N11   O46   1.300777 A    
C24   C25   1.421154 A    
N8    O40   1.301400 A    
N7    O38   1.301560 A    
N4    O31   1.299520 A    
C14   N11   1.460482 S    
O10   C8    1.389526 S    
N9    O41   1.297127 A    
C5    N2    1.460190 S    
O4    P6    1.539668 D    
C6    C7    1.528865 S    
C39   C40   1.413352 A    
O7    Ba1   2.850414 S    
N12   O47   1.289269 A    
C11   C12   1.545300 S    
C7    H8    1.107715 S    
C1    C10   1.525583 S    
C17   H25   1.077218 S    
C16   H22   1.108094 S    
C15   C16   1.518714 S    
P3    O8    1.754574 S    
C9    N5    1.460143 S    
Ba2   O20   2.824624 S    
C15   H20   1.111523 S    
C5    N1    1.461881 S    
P5    O17   1.765089 S    
C32   C33   1.412393 A    
P7    O22   1.751592 S    
C3    N9    1.458589 S    
O1    Ba1   2.855044 S    
N13   O49   1.293490 A    
C34   C35   1.423665 A    
C37   C41   1.427530 A    
P5    O19   1.753120 S    
C39   C42   1.390867 A    
C4    H3    1.102889 S    
C26   C27   1.402082 A    
N6    O36   1.301708 A    
O16   Ba2   2.937103 S    
C40   C41   1.424342 A    
P1    O2    1.578404 S    
N5    O33   1.301704 A    
O13   Ba2   2.935197 S    
C1    H12   1.110831 S    
C25   C29   1.410527 A    
C1    N4    1.454095 S    
P2    O20   1.578636 S    
