data_mof_unit_42494.cif
_audit_creation_date              2013-03-05T15:49:57-0500
_audit_creation_method            fapswitch 2.2
_symmetry_space_group_name_H-M    P1
_symmetry_Int_Tables_number       1
_space_group_crystal_system       triclinic
_cell_length_a                    12.11993
_cell_length_b                    12.871673
_cell_length_c                    14.89753
_cell_angle_alpha                 90.792564
_cell_angle_beta                  86.506559
_cell_angle_gamma                 94.217905
_cell_volume                      2313.36727129

loop_
_atom_site_label
_atom_site_type_symbol
_atom_site_description
_atom_site_fract_x
_atom_site_fract_y
_atom_site_fract_z
_atom_type_partial_charge
O1    O     O_R   0.421700 0.658830 0.504450 -0.654758
O2    O     O_R   0.578300 0.341170 0.495550 -0.655012
O3    O     O_R   0.609310 0.646410 0.493750 -0.571327
O4    O     O_R   0.390690 0.353590 0.506250 -0.565669
C1    C     C_R   0.522440 0.700114 0.495608 0.944361
C2    C     C_R   0.477524 0.300035 0.505392 0.932368
O5    O     O_R   0.406180 0.506230 0.637500 -0.618545
O6    O     O_R   0.593820 0.493770 0.362500 -0.622626
O7    O     O_R   0.593800 0.493820 0.626800 -0.567801
O8    O     O_R   0.406200 0.506180 0.373200 -0.564695
C3    C     C_R   0.499823 0.499068 0.672690 0.927743
C4    C     C_R   0.499610 0.500169 0.327278 0.940941
Zn1   Zn    Zn3+2 0.374730 0.508290 0.507150 1.055869
Zn2   Zn    Zn3+2 0.625270 0.491710 0.492850 1.052436
C5    C     C_R   0.448791 0.411550 0.188442 -0.058537
C6    C     C_R   0.514379 0.598405 0.812779 -0.090242
C7    C     C_R   0.496180 0.499825 0.231259 -0.203715
C8    C     C_R   0.496489 0.502163 0.769008 -0.180749
C9    C     C_R   0.528968 0.591589 0.185129 0.262418
C10   C     C_R   0.456363 0.412029 0.815009 0.272964
C11   C     C_R   0.504738 0.599551 0.094953 -0.083813
C12   C     C_R   0.432619 0.417336 0.908084 -0.085862
C13   C     C_R   0.464312 0.509091 0.048851 0.007360
C14   C     C_R   0.463747 0.510554 0.954709 0.005618
C15   C     C_R   0.429145 0.416090 0.096301 0.024778
C16   C     C_R   0.497526 0.604057 0.907319 0.018445
C17   C     C_R   0.516883 0.696214 0.050365 0.293871
C18   C     C_R   0.376734 0.332795 0.955733 0.285679
C19   C     C_R   0.510919 0.698867 0.956912 -0.152400
C20   C     C_R   0.373545 0.332854 0.049795 -0.161640
C21   C     C_R   0.462929 0.188243 0.512613 -0.125961
C22   C     C_R   0.536664 0.812137 0.489715 -0.120620
C23   C     C_R   0.646576 0.970634 0.519249 0.302025
C24   C     C_R   0.352736 0.029684 0.484000 0.300112
C25   C     C_R   0.636555 0.863305 0.511740 -0.170352
C26   C     C_R   0.362959 0.137061 0.490710 -0.160050
C27   C     C_R   0.448520 0.868348 0.465367 -0.071368
C28   C     C_R   0.550867 0.132180 0.537539 -0.074108
C29   C     C_R   0.449178 0.974070 0.488046 -0.036359
C30   C     C_R   0.550102 0.026272 0.515401 -0.031394
H1    H     H_    0.291481 0.180321 0.481265 0.239655
H2    H     H_    0.708248 0.820141 0.520382 0.240858
N1    N     N_R   0.207800 0.519350 0.516680 -0.174518
N2    N     N_R   0.792200 0.480650 0.483320 -0.175791
C31   C     C_R   0.951632 0.406382 0.410724 -0.136015
C32   C     C_R   0.048417 0.593187 0.589662 -0.139573
C33   C     C_R   0.836402 0.416407 0.419692 0.009992
C34   C     C_R   0.163636 0.583296 0.580536 0.013082
C35   C     C_R   0.857749 0.533485 0.542925 0.414762
C36   C     C_R   0.142267 0.466560 0.457002 0.419216
C37   C     C_R   0.976084 0.532051 0.534099 -0.090099
C38   C     C_R   0.023935 0.467777 0.466081 -0.090963
C39   C     C_1   0.435988 0.314335 0.237937 0.259079
N3    N     N_1   0.426864 0.237180 0.277629 -0.137168
C40   C     C_1   0.555845 0.687914 0.758992 0.263549
N4    N     N_1   0.588396 0.759025 0.715809 -0.130386
C41   C     C_1   0.990929 0.328372 0.347579 0.351321
N5    N     N_1   0.020821 0.265727 0.297064 -0.064148
C42   C     C_1   0.009274 0.670549 0.653490 0.354307
N6    N     N_1   0.979617 0.732706 0.704581 -0.052554
N7    N     N_R   0.598401 0.671045 0.227008 0.228548
O9    O     O_R   0.698780 0.694107 0.193623 -0.306410
O10   O     O_R   0.561741 0.720790 0.297809 -0.396790
N8    N     N_R   0.450817 0.313705 0.767891 0.203408
O11   O     O_R   0.512852 0.240955 0.789996 -0.340138
O12   O     O_R   0.381566 0.295407 0.705230 -0.356764
N9    N     N_R   0.523574 0.792537 0.100606 0.236728
O13   O     O_R   0.443382 0.813584 0.158547 -0.328120
O14   O     O_R   0.604514 0.862811 0.083029 -0.292712
N10   N     N_R   0.313483 0.252010 0.909588 0.239970
O15   O     O_R   0.231192 0.275558 0.863427 -0.304068
O16   O     O_R   0.330495 0.154545 0.921107 -0.295830
C43   C     C_1   0.507394 0.800159 0.916039 0.310328
N11   N     N_1   0.504081 0.881412 0.884328 -0.074558
C44   C     C_1   0.302257 0.252871 0.096518 0.338122
N12   N     N_1   0.244819 0.189085 0.133277 -0.074981
C45   C     C_1   0.634104 0.181619 0.593744 0.377488
N13   N     N_1   0.700139 0.221286 0.638466 -0.078092
C46   C     C_1   0.366083 0.819804 0.407914 0.398964
N14   N     N_1   0.300918 0.780862 0.362019 -0.078032
N15   N     N_R   0.755720 0.021307 0.524413 0.206559
O17   O     O_R   0.826921 0.982447 0.574084 -0.301599
O18   O     O_R   0.790407 0.093518 0.466932 -0.363159
N16   N     N_R   0.243578 0.978945 0.478959 0.206046
O19   O     O_R   0.171962 0.018105 0.429875 -0.303461
O20   O     O_R   0.209462 0.905872 0.535793 -0.365916
N17   N     N_R   0.195310 0.418297 0.380892 0.200187
O21   O     O_R   0.197452 0.461758 0.302379 -0.388689
O22   O     O_R   0.230501 0.326002 0.387604 -0.403929
N18   N     N_R   0.804616 0.583071 0.618175 0.202403
O23   O     O_R   0.800467 0.540157 0.697019 -0.372096
O24   O     O_R   0.773028 0.676582 0.610609 -0.398218
C47   C     C_1   0.236824 0.645318 0.636664 0.317413
N19   N     N_1   0.294301 0.695792 0.681915 -0.176401
C48   C     C_1   0.763259 0.354384 0.363552 0.319623
N20   N     N_1   0.705749 0.303956 0.318294 -0.159821

loop_
_geom_bond_atom_site_label_1
_geom_bond_atom_site_label_2
_geom_bond_distance
_ccdc_geom_bond_type
N2    C35   1.368191 A    
N17   O21   1.301526 A    
C3    C8    1.433089 S    
C47   N19   1.157738 T    
C32   C42   1.452283 S    
C17   C19   1.399513 A    
C43   N11   1.157916 T    
C48   N20   1.157736 T    
C35   N18   1.425294 S    
C40   N4    1.157393 T    
N15   O17   1.301537 A    
C41   N5    1.157907 T    
C45   N13   1.157838 T    
O5    C3    1.288678 A    
C27   C46   1.455634 S    
C31   C41   1.452452 S    
O1    C1    1.295140 A    
C5    C39   1.454841 S    
C9    C11   1.399207 A    
N16   O20   1.301793 A    
C5    C15   1.410121 A    
C19   C43   1.451139 S    
O4    Zn1   2.014513 S    
N7    O10   1.298451 A    
C25   H2    1.080232 S    
C44   N12   1.157806 T    
C23   C25   1.381494 A    
C35   C37   1.433676 A    
C4    C7    1.433519 S    
C36   C38   1.433524 A    
C13   C14   1.403308 A    
N10   O15   1.301288 A    
N1    C34   1.360164 A    
C8    C10   1.396624 A    
N2    C33   1.360480 A    
C1    C22   1.442784 S    
C2    C21   1.441515 S    
C11   C17   1.412429 A    
C42   N6    1.157907 T    
C12   C18   1.414617 A    
C26   H1    1.080890 S    
O2    C2    1.295701 A    
C24   N16   1.437402 S    
N15   O18   1.301784 A    
C31   C33   1.410055 A    
C6    C16   1.412429 A    
C32   C34   1.409714 A    
C23   C30   1.419791 A    
C34   C47   1.446057 S    
N9    O13   1.301205 A    
C22   C25   1.390064 A    
N16   O19   1.301571 A    
O4    C2    1.299151 A    
C29   C30   1.430395 A    
C31   C38   1.428526 A    
C39   N3    1.157708 T    
C32   C37   1.428952 A    
C24   C29   1.419566 A    
N9    O14   1.301458 A    
N8    O12   1.300637 A    
C10   N8    1.437925 S    
O7    Zn2   2.008880 S    
N18   O24   1.298013 A    
O6    C4    1.293796 A    
C22   C27   1.401623 A    
O7    C3    1.297840 A    
O3    Zn2   2.014513 S    
O8    C4    1.293343 A    
C36   N17   1.426632 S    
C10   C12   1.400624 A    
C11   C13   1.415092 A    
C12   C14   1.416615 A    
O1    Zn1   1.979263 S    
Zn1   N1    2.034818 S    
Zn2   N2    2.034818 S    
C15   C20   1.418497 A    
C5    C7    1.398715 A    
O6    Zn2   2.002514 S    
C18   N10   1.438308 S    
C14   C16   1.424899 A    
O3    C1    1.300040 A    
O8    Zn1   2.008880 S    
N1    C36   1.368550 A    
C28   C45   1.455175 S    
C21   C28   1.401205 A    
N8    O11   1.301105 A    
C18   C20   1.399454 A    
C6    C40   1.453725 S    
C37   C38   1.422450 A    
C27   C29   1.397160 A    
C28   C30   1.397604 A    
C20   C44   1.451417 S    
N18   O23   1.301518 A    
C9    N7    1.436356 S    
C7    C9    1.394794 A    
C24   C26   1.381341 A    
C13   C15   1.423383 A    
N7    O9    1.301066 A    
O2    Zn2   1.979263 S    
C17   N9    1.439068 S    
C46   N14   1.157836 T    
O5    Zn1   2.002512 S    
C16   C19   1.421972 A    
C6    C8    1.400778 A    
N17   O22   1.298559 A    
C33   C48   1.445836 S    
C21   C26   1.390442 A    
N10   O16   1.301580 A    
C23   N15   1.437113 S    
