data_mof_unit_29947.cif
_audit_creation_date              2012-10-26T19:24:19-0400
_audit_creation_method            fapswitch 2.2
_symmetry_space_group_name_H-M    P1
_symmetry_Int_Tables_number       1
_space_group_crystal_system       triclinic
_cell_length_a                    27.802754
_cell_length_b                    10.81341
_cell_length_c                    9.576048
_cell_angle_alpha                 89.567057
_cell_angle_beta                  90.147654
_cell_angle_gamma                 92.344556
_cell_volume                      2876.46819865

loop_
_atom_site_label
_atom_site_type_symbol
_atom_type_description
_atom_site_fract_x
_atom_site_fract_y
_atom_site_fract_z
_atom_type_partial_charge
C1    C     C_R   0.504630 0.263116 0.501437 0.581422
C2    C     C_R   0.972563 0.394765 0.542539 -0.033259
C3    C     C_R   0.976643 0.613105 0.464603 0.035091
C4    C     C_R   0.407479 0.499817 0.499759 0.557724
C5    C     C_R   0.949303 0.504424 0.504061 -0.030015
C6    C     C_R   0.944054 0.292146 0.590819 -0.085444
C7    C     C_R   0.894146 0.294555 0.594722 0.414265
C8    C     C_R   0.870574 0.400017 0.549585 0.040124
C9    C     C_R   0.898193 0.505011 0.503860 -0.100717
C10   C     C_R   0.874626 0.610486 0.457107 -0.028206
C11   C     C_R   0.824150 0.609850 0.457463 0.409950
C12   C     C_R   0.278708 0.495401 0.623371 -0.070297
C13   C     C_R   0.819996 0.403876 0.548693 0.432390
C14   C     C_R   0.721322 0.503323 0.375405 -0.047228
C15   C     C_R   0.671138 0.501343 0.374511 -0.132595
C16   C     C_R   0.497336 0.737626 0.500021 0.532638
C17   C     C_R   0.671061 0.512249 0.627551 -0.151655
C18   C     C_R   0.721220 0.513726 0.628137 -0.049581
C19   C     C_R   0.746489 0.508866 0.502185 0.234575
C20   C     C_R   0.023424 0.391273 0.532432 0.025957
C21   C     C_R   0.050767 0.502489 0.505589 0.032547
C22   C     C_R   0.027599 0.614885 0.479127 0.035494
C23   C     C_R   0.253378 0.497360 0.496859 0.215179
C24   C     C_R   0.048065 0.280026 0.547793 -0.126016
C25   C     C_R   0.106313 0.724290 0.475743 -0.112932
C26   C     C_R   0.951743 0.714478 0.408863 0.360955
C27   C     C_R   0.901734 0.713133 0.407679 -0.034983
C28   C     C_R   0.592516 0.501524 0.500188 0.549234
C29   C     C_R   0.056344 0.725695 0.472712 -0.087220
C30   C     C_R   0.520643 0.110369 0.768144 0.046305
C31   C     C_R   0.500025 0.054370 0.887892 -0.147286
C32   C     C_R   0.471854 0.944530 0.877510 0.033934
C33   C     C_R   0.468750 0.884655 0.748559 -0.099417
C34   C     C_R   0.101834 0.501495 0.506054 -0.024351
C35   C     C_R   0.490861 0.937774 0.628369 -0.025185
C36   C     C_R   0.508327 0.061288 0.634450 0.007450
C37   C     C_R   0.511063 0.129196 0.506409 0.027162
C38   C     C_R   0.512291 0.065579 0.379761 -0.117188
C39   C     C_R   0.507858 0.937828 0.378738 -0.115194
C40   C     C_R   0.175800 0.390305 0.521236 0.440260
C41   C     C_R   0.496268 0.872599 0.501736 0.003325
C42   C     C_R   0.563014 0.666585 0.143367 -0.093542
C43   C     C_R   0.593304 0.749217 0.070638 -0.170458
C44   C     C_R   0.593443 0.748988 0.926817 -0.164252
C45   C     C_R   0.125317 0.389517 0.524200 0.033714
C46   C     C_R   0.563282 0.666156 0.854920 -0.085169
C47   C     C_R   0.531046 0.581812 0.924690 0.191551
C48   C     C_R   0.530976 0.581897 0.074410 0.182253
C49   C     C_R   0.470461 0.422248 0.074390 0.026854
C50   C     C_R   0.470429 0.422393 0.926350 0.044834
C51   C     C_R   0.179904 0.609304 0.487412 0.438135
C52   C     C_R   0.278598 0.500245 0.368471 0.096711
C53   C     C_R   0.329171 0.501818 0.371626 -0.140246
C54   C     C_R   0.328751 0.496400 0.624632 -0.131180
C55   C     C_2   0.253408 0.500736 0.230728 0.615427
C56   C     C_R   0.098018 0.279386 0.543384 -0.098085
C57   C     C_2   0.561361 0.202484 0.786833 0.607866
C58   C     C_2   0.448098 0.888226 0.002347 0.574290
C59   C     C_R   0.129489 0.612568 0.488827 0.030929
C60   C     C_R   0.354450 0.499564 0.498833 -0.020752
C61   C     C_R   0.645524 0.504958 0.500727 0.005701
Cu1   Cu    Cu3+1 0.500000 0.499990 0.640660 0.973828
Cu2   Cu    Cu3+1 0.500000 0.500010 0.359340 0.958073
F1    F     F_    0.974633 0.811482 0.343196 -0.636822
F2    F     F_    0.869291 0.192245 0.642793 -0.557255
H1    H     H_    0.347266 0.494706 0.724236 0.158130
H2    H     H_    0.447316 0.799202 0.741671 0.190530
H3    H     H_    0.512555 0.890399 0.280841 0.167178
H4    H     H_    0.446305 0.358446 0.130108 0.126702
H5    H     H_    0.566546 0.673350 0.253306 0.178538
H6    H     H_    0.617141 0.813282 0.126639 0.143393
H7    H     H_    0.617389 0.812873 0.870194 0.146796
H8    H     H_    0.567106 0.672533 0.744972 0.180317
H9    H     H_    0.446313 0.358565 0.871247 0.117933
H10   H     H_    0.115172 0.191733 0.555292 0.173033
H11   H     H_    0.652469 0.496355 0.275179 0.143467
H12   H     H_    0.126724 0.811614 0.468494 0.176981
H13   H     H_    0.740705 0.499440 0.277702 0.140805
H14   H     H_    0.959472 0.208978 0.630337 0.150070
H15   H     H_    0.029647 0.190915 0.559439 0.127812
H16   H     H_    0.348965 0.503642 0.274272 0.166871
H17   H     H_    0.191720 0.473277 0.121447 0.348105
H18   H     H_    0.622478 0.281481 0.707993 0.345632
H19   H     H_    0.416689 0.736171 0.092551 0.353657
H20   H     H_    0.652343 0.516194 0.726368 0.136809
H21   H     H_    0.884266 0.792877 0.365043 0.206521
H22   H     H_    0.740522 0.518443 0.726438 0.141218
H23   H     H_    0.041167 0.815750 0.471531 0.204565
H24   H     H_    0.516747 0.114451 0.281161 0.157966
H25   H     H_    0.507406 0.093566 0.989941 0.160706
H26   H     H_    0.259340 0.493574 0.721407 0.154972
N1    N     N_R   0.201862 0.498987 0.501380 -0.375185
N2    N     N_R   0.798044 0.507704 0.503144 -0.412335
N3    N     N_R   0.500460 0.501210 0.147910 -0.243691
N4    N     N_R   0.500480 0.501290 0.852040 -0.229099
O1    O     O_R   0.500000 0.319640 0.618810 -0.492268
O2    O     O_R   0.569730 0.499970 0.618800 -0.512470
O3    O     O_R   0.569740 0.499990 0.381230 -0.520963
O4    O     O_2   0.198714 0.283419 0.536934 -0.469436
O5    O     O_2   0.275984 0.527338 0.124411 -0.519627
O6    O     O_R   0.204236 0.469386 0.220855 -0.668450
O7    O     O_2   0.565923 0.260008 0.895916 -0.534489
O8    O     O_R   0.595614 0.220069 0.681107 -0.683243
O9    O     O_2   0.442389 0.950339 0.106721 -0.532280
O10   O     O_R   0.431737 0.764163 0.000677 -0.700892
O11   O     O_2   0.792805 0.304604 0.591524 -0.382306
O12   O     O_2   0.206811 0.715160 0.471398 -0.467177
O13   O     O_2   0.801277 0.710760 0.413344 -0.467048
O14   O     O_R   0.500000 0.319660 0.381240 -0.502333
O15   O     O_R   0.430260 0.500010 0.618770 -0.503346
O16   O     O_R   0.430270 0.500030 0.381200 -0.503182
O17   O     O_R   0.500000 0.680340 0.618760 -0.535379
O18   O     O_R   0.500000 0.680360 0.381190 -0.523129

loop_
_geom_bond_atom_site_label_1
_geom_bond_atom_site_label_2
_ccdc_geom_bond_type
C10   C27   A    
C28   O2    A    
C8    C13   A    
C22   C29   A    
Cu1   O1    S    
C39   H3    S    
C12   H26   S    
C35   C36   A    
C32   C58   S    
C16   O18   A    
C40   O4    S    
C23   C52   A    
C7    C8    A    
C39   C41   A    
C54   C60   A    
C57   O7    D    
Cu2   N3    S    
C33   H2    S    
C26   C27   A    
C37   C38   A    
C48   N3    A    
C17   H20   S    
C36   C37   A    
Cu2   O3    S    
C50   H9    S    
C30   C31   A    
C31   C32   A    
C50   N4    A    
C30   C57   S    
C42   H5    S    
C53   H16   S    
C18   C19   A    
C26   F1    S    
C29   H23   S    
C1    O14   A    
C24   H15   S    
C20   C24   A    
C45   C56   A    
C8    C9    A    
Cu1   O15   S    
C55   O5    D    
C49   N3    A    
C9    C10   A    
C19   N2    S    
C52   C55   S    
C1    C37   S    
C17   C61   A    
C28   C61   S    
C11   N2    A    
C15   H11   S    
C56   H10   S    
C49   H4    S    
C21   C22   A    
C2    C6    A    
C53   C60   A    
C44   C46   A    
H19   O10   S    
C51   C59   A    
C25   C29   A    
C40   C45   A    
C57   O8    S    
C2    C20   A    
C21   C34   A    
C13   N2    A    
Cu2   O14   S    
C27   H21   S    
C43   C44   A    
C5    C9    A    
Cu1   Cu2   S    
C51   N1    A    
C7    F2    S    
Cu1   O2    S    
C47   C48   A    
C12   C23   A    
C31   H25   S    
C4    C60   S    
C17   C18   A    
C15   C61   A    
C34   C45   A    
C42   C48   A    
C40   N1    A    
H18   O8    S    
C4    O16   A    
C34   C59   A    
C25   H12   S    
C2    C5    A    
C58   O9    D    
C42   C43   A    
C52   C53   A    
C16   O17   A    
C28   O3    A    
C4    O15   A    
C46   C47   A    
C43   H6    S    
C14   C15   A    
C14   C19   A    
C3    C26   A    
C13   O11   S    
C3    C5    A    
C6    C7    A    
C54   H1    S    
C24   C56   A    
C55   O6    S    
C18   H22   S    
C30   C36   A    
C58   O10   S    
C38   H24   S    
C32   C33   A    
C6    H14   S    
C38   C39   A    
C1    O1    A    
C33   C35   A    
H17   O6    S    
C44   H7    S    
C14   H13   S    
Cu2   O16   S    
C35   C41   A    
C10   C11   A    
Cu2   O18   S    
Cu1   O17   S    
C20   C21   A    
C51   O12   S    
C49   C50   A    
C11   O13   S    
C47   N4    A    
C23   N1    S    
C3    C22   A    
C25   C59   A    
Cu1   N4    S    
C16   C41   S    
C46   H8    S    
C12   C54   A    
