data_mof_unit_45895.cif
_audit_creation_date              2013-03-05T16:15:04-0500
_audit_creation_method            fapswitch 2.2
_symmetry_space_group_name_H-M    P1
_symmetry_Int_Tables_number       1
_space_group_crystal_system       triclinic
_cell_length_a                    23.554975
_cell_length_b                    10.859498
_cell_length_c                    9.565279
_cell_angle_alpha                 93.030779
_cell_angle_beta                  87.026617
_cell_angle_gamma                 85.342185
_cell_volume                      2431.38040592

loop_
_atom_site_label
_atom_site_type_symbol
_atom_site_description
_atom_site_fract_x
_atom_site_fract_y
_atom_site_fract_z
_atom_type_partial_charge
O1    O     O_R   0.500030 0.316850 0.620870 -0.568962
O2    O     O_R   0.499970 0.683150 0.379130 -0.568958
O3    O     O_R   0.500000 0.316860 0.379090 -0.522056
O4    O     O_R   0.500000 0.683140 0.620910 -0.522070
C1    C     C_R   0.503876 0.259284 0.496194 0.833057
C2    C     C_R   0.496129 0.740736 0.503796 0.832371
O5    O     O_R   0.417890 0.499960 0.620920 -0.575332
O6    O     O_R   0.582110 0.500040 0.379080 -0.574486
O7    O     O_R   0.417870 0.499970 0.379140 -0.512216
O8    O     O_R   0.582130 0.500030 0.620860 -0.512560
C3    C     C_R   0.390823 0.498233 0.502619 0.772909
C4    C     C_R   0.609170 0.501684 0.497375 0.773327
Cu1   Cu    Cu3+1 0.500010 0.499990 0.643150 1.068537
Cu2   Cu    Cu3+1 0.499990 0.500010 0.356850 1.068884
C5    C     C_R   0.879245 0.623631 0.492181 0.555758
C6    C     C_R   0.121545 0.372951 0.521783 0.562314
N1    N     N_R   0.850852 0.528593 0.539696 -0.473338
N2    N     N_R   0.148640 0.468390 0.469692 -0.467127
C7    C     C_R   0.879284 0.425917 0.586422 0.597332
C8    C     C_R   0.119118 0.572692 0.430143 0.593732
C9    C     C_R   0.939507 0.407567 0.568152 -0.135072
C10   C     C_R   0.059662 0.591994 0.458657 -0.139315
C11   C     C_R   0.969778 0.506161 0.522246 -0.087014
C12   C     C_R   0.030090 0.492037 0.505172 -0.079767
C13   C     C_R   0.939459 0.619799 0.495219 -0.045474
C14   C     C_R   0.060825 0.378471 0.533699 -0.054773
C15   C     C_R   0.969544 0.293350 0.592012 0.353037
C16   C     C_R   0.029813 0.709808 0.448997 0.333774
C17   C     C_R   0.029798 0.277300 0.575385 -0.009273
C18   C     C_R   0.970006 0.725572 0.475657 0.013291
O9    O     O_2   0.849172 0.718800 0.438025 -0.538478
O10   O     O_2   0.153927 0.276290 0.565861 -0.550697
O11   O     O_2   0.848782 0.342294 0.649102 -0.427770
O12   O     O_2   0.147947 0.657646 0.364895 -0.434807
C19   C     C_R   0.228841 0.548979 0.583563 -0.112360
C20   C     C_R   0.771405 0.449754 0.420429 -0.105461
H1    H     H_    0.197699 0.604815 0.652512 0.147062
H2    H     H_    0.802817 0.393054 0.353118 0.148995
C21   C     C_R   0.287160 0.559338 0.596079 0.070192
C22   C     C_R   0.713099 0.440446 0.405436 0.068299
C23   C     C_R   0.327747 0.487413 0.503853 -0.061660
C24   C     C_R   0.672197 0.512793 0.496499 -0.062741
C25   C     C_R   0.306987 0.405526 0.402922 -0.183829
C26   C     C_R   0.692562 0.594893 0.597723 -0.179523
H3    H     H_    0.336191 0.347600 0.332569 0.224881
H4    H     H_    0.663135 0.653198 0.667102 0.224016
C27   C     C_R   0.248422 0.396677 0.391304 -0.064740
C28   C     C_R   0.750999 0.603031 0.611459 -0.070894
H5    H     H_    0.233663 0.334057 0.311853 0.172175
H6    H     H_    0.765434 0.665519 0.691531 0.166496
C29   C     C_R   0.209227 0.470207 0.480869 0.299676
C30   C     C_R   0.790517 0.528489 0.523894 0.299826
C31   C     C_3   0.536435 0.036628 0.591409 0.334906
C32   C     C_3   0.463548 0.963452 0.408509 0.334594
C33   C     C_3   0.551197 0.937792 0.470482 0.023199
C34   C     C_3   0.448781 0.062303 0.529429 0.023127
C35   C     C_3   0.495171 0.878610 0.509222 -0.251456
C36   C     C_3   0.504813 0.121455 0.490722 -0.251489
C37   C     C_3   0.480955 0.978344 0.631602 0.024014
C38   C     C_3   0.519026 0.021762 0.368326 0.024352
C39   C     C_3   0.499422 0.611848 0.058513 -0.265872
C40   C     C_3   0.500600 0.388119 0.941501 -0.267171
C41   C     C_3   0.455829 0.561417 0.961899 0.358909
C42   C     C_3   0.544189 0.438576 0.038156 0.358582
H7    H     H_    0.496768 0.705177 0.110734 0.204765
H8    H     H_    0.503297 0.294811 0.889255 0.204823
N3    N     N_3   0.500040 0.499970 0.858290 -0.263502
N4    N     N_3   0.499960 0.500030 0.141710 -0.263610
C43   C     C_3   0.543590 0.548506 0.948334 0.345606
C44   C     C_3   0.456420 0.451477 0.051686 0.345449
N5    N     N_R   0.938502 0.189280 0.622526 0.123837
O13   O     O_R   0.909330 0.139802 0.525648 -0.368127
O14   O     O_R   0.932806 0.156143 0.750848 -0.353836
N6    N     N_R   0.060616 0.815996 0.424320 0.133452
O15   O     O_R   0.093645 0.856531 0.518285 -0.362784
O16   O     O_R   0.053777 0.875222 0.310842 -0.336539
N7    N     N_R   0.408031 0.641532 0.924082 0.113613
O17   O     O_R   0.366645 0.673801 0.017436 -0.282610
O18   O     O_R   0.416606 0.713021 0.822611 -0.416612
N8    N     N_R   0.592072 0.358782 0.076245 0.114221
O19   O     O_R   0.633443 0.326319 0.982915 -0.281953
O20   O     O_R   0.583637 0.287741 0.178224 -0.416377
N9    N     N_R   0.591369 0.611120 0.892848 0.136710
O21   O     O_R   0.643188 0.573540 0.920434 -0.332845
O22   O     O_R   0.581524 0.718077 0.839920 -0.380691
N10   N     N_R   0.408604 0.388989 0.107217 0.136886
O23   O     O_R   0.356806 0.426523 0.079408 -0.333952
O24   O     O_R   0.418394 0.282235 0.160644 -0.380290
C45   C     C_3   0.058643 0.148760 0.594448 -0.258275
C46   C     C_3   0.076940 0.135287 0.744414 -0.650656
H9    H     H_    0.103014 0.210794 0.778401 0.267463
H10   H     H_    0.038928 0.137544 0.818267 0.259587
H11   H     H_    0.102355 0.045285 0.750852 0.260170
H12   H     H_    0.029813 0.075769 0.571136 0.225917
H13   H     H_    0.094544 0.124245 0.515938 0.264341
C47   C     C_3   0.940789 0.855730 0.504885 -0.282556
C48   C     C_3   0.915805 0.874296 0.656718 -0.642223
H14   H     H_    0.891404 0.796521 0.688955 0.226405
H15   H     H_    0.950753 0.883805 0.729179 0.250366
H16   H     H_    0.885874 0.958673 0.668872 0.306834
H17   H     H_    0.970567 0.928030 0.490647 0.238332
H18   H     H_    0.908010 0.877137 0.429027 0.266902
C49   C     C_3   0.303130 0.650548 0.706171 -0.324278
C50   C     C_3   0.321984 0.766882 0.641652 -0.681555
H19   H     H_    0.362951 0.747319 0.578755 0.255404
H20   H     H_    0.288826 0.805334 0.573730 0.259608
H21   H     H_    0.327431 0.837163 0.727036 0.252717
H22   H     H_    0.266694 0.678798 0.782951 0.216917
H23   H     H_    0.335679 0.603188 0.766018 0.274547
C51   C     C_3   0.697446 0.349739 0.294373 -0.324174
C52   C     C_3   0.678615 0.232901 0.357743 -0.682609
H24   H     H_    0.711814 0.193885 0.425173 0.258188
H25   H     H_    0.637701 0.252106 0.420919 0.255750
H26   H     H_    0.673088 0.163224 0.271775 0.254129
H27   H     H_    0.664939 0.397109 0.234275 0.274595
H28   H     H_    0.734095 0.322182 0.218004 0.218533
C53   C     C_3   0.607833 0.856060 0.450802 -0.364502
C54   C     C_3   0.659088 0.926742 0.413263 -0.738695
H29   H     H_    0.658002 0.953739 0.303420 0.243018
H30   H     H_    0.660292 0.009395 0.485668 0.284302
H31   H     H_    0.698796 0.865849 0.422266 0.262215
H32   H     H_    0.615110 0.811619 0.550686 0.231020
H33   H     H_    0.604634 0.781136 0.368895 0.200377
C55   C     C_3   0.392165 0.144159 0.549042 -0.364707
C56   C     C_3   0.340870 0.073614 0.586604 -0.737771
H34   H     H_    0.339641 0.990932 0.514256 0.284886
H35   H     H_    0.341931 0.046700 0.696481 0.242009
H36   H     H_    0.301187 0.134574 0.577540 0.263228
H37   H     H_    0.395388 0.219071 0.630948 0.200136
H38   H     H_    0.384903 0.188650 0.449155 0.231645
N11   N     N_R   0.578326 0.072487 0.689861 0.116996
O25   O     O_R   0.602035 0.990006 0.766951 -0.336636
O26   O     O_R   0.596910 0.181976 0.690291 -0.340789
N12   N     N_R   0.421667 0.927586 0.310037 0.117274
O27   O     O_R   0.397969 0.010054 0.232914 -0.335658
O28   O     O_R   0.403103 0.818078 0.309561 -0.340393
C57   C     C_3   0.459030 0.954762 0.779649 -0.295886
C58   C     C_3   0.455967 0.069466 0.878930 -0.759811
H39   H     H_    0.499529 0.090869 0.904228 0.268265
H40   H     H_    0.433428 0.149894 0.833141 0.254581
H41   H     H_    0.432225 0.051642 0.977793 0.302482
H42   H     H_    0.415584 0.924696 0.773724 0.242584
H43   H     H_    0.487360 0.880771 0.821981 0.273467
C59   C     C_3   0.540960 0.045529 0.220325 -0.296610
C60   C     C_3   0.544082 0.930866 0.120956 -0.759034
H44   H     H_    0.566678 0.850466 0.166667 0.254668
H45   H     H_    0.500536 0.909314 0.095675 0.268310
H46   H     H_    0.567798 0.948820 0.022104 0.302449
H47   H     H_    0.512616 0.119522 0.178034 0.273087
H48   H     H_    0.584380 0.075749 0.226310 0.242596

loop_
_geom_bond_atom_site_label_1
_geom_bond_atom_site_label_2
_geom_bond_distance
_ccdc_geom_bond_type
C57   H42   1.102450 S    
C47   H18   1.106127 S    
C15   C17   1.415451 A    
C42   N8    1.439790 S    
C31   C33   1.541831 S    
C52   H24   1.111052 S    
O7    Cu2   1.935063 S    
C16   N6    1.434854 S    
C48   H16   1.107030 S    
C17   C45   1.526147 S    
C60   H44   1.107161 S    
C31   C37   1.537579 S    
C27   H5    1.082597 S    
C32   C38   1.537660 S    
N7    O17   1.300621 A    
C34   C55   1.538730 S    
O5    C3    1.327342 A    
N6    O16   1.301133 A    
C40   N3    1.486531 S    
O1    C1    1.312235 A    
C42   N4    1.490641 S    
C19   H1    1.084438 S    
C12   C14   1.424996 A    
Cu1   N3    2.057921 S    
N10   O24   1.299908 A    
C35   C37   1.556219 S    
C37   C57   1.523690 S    
C36   C38   1.556040 S    
C32   N12   1.460170 S    
C45   H12   1.106171 S    
C40   C44   1.536367 S    
O4    Cu1   2.011396 S    
C39   C41   1.531226 S    
C54   H29   1.106652 S    
C59   H48   1.102548 S    
C60   H45   1.106383 S    
C51   C52   1.522787 S    
C27   C29   1.396359 A    
C56   H36   1.110618 S    
C4    C24   1.498845 S    
C11   C12   1.416457 A    
C49   H22   1.112713 S    
C31   N11   1.460198 S    
C40   C42   1.531478 S    
C20   C30   1.390134 A    
C8    O12   1.349231 S    
C28   H6    1.082710 S    
C9    C15   1.412548 A    
C10   C16   1.418762 A    
Cu1   Cu2   2.738576 S    
C23   C25   1.410942 A    
C2    C35   1.493687 S    
O2    C2    1.312251 A    
C24   C26   1.410257 A    
N1    C30   1.437050 S    
C50   H20   1.111239 S    
C50   H19   1.109599 S    
C48   H15   1.110921 S    
C26   H4    1.076255 S    
N2    C29   1.438278 S    
C48   H14   1.107605 S    
C32   C34   1.541906 S    
C41   N7    1.439365 S    
N7    O18   1.292424 A    
C6    C14   1.425026 A    
C41   N3    1.490669 S    
N6    O15   1.301238 A    
C40   H8    1.101464 S    
C20   C22   1.399425 A    
C47   H17   1.103549 S    
N8    O20   1.292481 A    
C7    O11   1.348766 S    
N5    O14   1.300598 A    
N10   O23   1.299960 A    
C59   C60   1.520546 S    
N12   O28   1.299813 A    
N11   O26   1.299829 A    
C58   H41   1.107505 S    
N3    C43   1.484390 S    
C54   H31   1.110607 S    
C45   H13   1.107400 S    
C19   C21   1.398146 A    
C53   H32   1.107897 S    
C59   H47   1.109194 S    
C43   N9    1.452969 S    
O7    C3    1.314344 A    
C46   H10   1.109189 S    
N9    O21   1.299959 A    
C41   C44   1.506696 S    
C28   C30   1.395835 A    
O6    C4    1.327215 A    
C47   C48   1.535353 S    
C55   H38   1.108114 S    
C52   H25   1.109522 S    
C6    N2    1.363371 A    
C42   C43   1.506811 S    
C21   C49   1.490920 S    
C25   H3    1.076424 S    
O3    Cu2   2.011396 S    
O8    C4    1.314239 A    
C1    C36   1.493227 S    
O4    C2    1.315240 A    
N9    O22   1.299915 A    
C8    C10   1.409373 A    
C33   C35   1.550535 S    
C19   C29   1.390155 A    
C56   H34   1.107485 S    
C10   C12   1.415337 A    
O1    Cu1   1.988919 S    
N11   O25   1.299704 A    
C44   N10   1.453054 S    
C51   H28   1.112625 S    
C60   H46   1.107483 S    
C15   N5    1.429689 S    
C46   H11   1.110228 S    
C33   C53   1.538474 S    
C39   C43   1.536091 S    
C13   C18   1.419555 A    
C5    N1    1.359852 A    
O6    Cu2   1.956942 S    
C7    C9    1.416767 A    
N8    O19   1.300599 A    
O3    C1    1.315052 A    
O8    Cu1   1.935061 S    
C22   C51   1.491238 S    
C31   C36   1.545235 S    
C5    O9    1.346853 S    
N12   O27   1.299702 A    
C58   H40   1.107146 S    
C6    O10   1.345925 S    
C57   C58   1.520471 S    
C34   C37   1.555526 S    
C49   H23   1.092085 S    
C9    C11   1.410243 A    
C53   H33   1.109128 S    
C16   C18   1.413457 A    
C53   C54   1.519981 S    
C38   C59   1.523834 S    
C20   H2    1.084344 S    
C39   N4    1.486164 S    
C46   H9    1.108858 S    
C22   C24   1.421913 A    
N1    C7    1.361617 A    
C34   C36   1.550420 S    
C55   H37   1.109124 S    
C3    C23   1.499379 S    
C52   H26   1.107691 S    
N2    C8    1.361726 A    
C11   C13   1.417569 A    
C57   H43   1.109168 S    
O2    Cu2   1.988919 S    
C54   H30   1.107492 S    
C5    C13   1.417406 A    
C58   H39   1.106340 S    
C18   C47   1.526402 S    
C39   H7    1.101611 S    
O5    Cu1   1.956947 S    
N5    O13   1.301139 A    
C21   C23   1.421484 A    
C14   C17   1.430620 A    
N4    C44   1.484175 S    
C49   C50   1.522901 S    
C56   H35   1.106650 S    
Cu2   N4    2.057922 S    
C45   C46   1.530009 S    
C33   C38   1.555446 S    
C25   C27   1.400331 A    
C51   H27   1.092851 S    
C50   H21   1.107625 S    
C26   C28   1.398945 A    
C55   C56   1.519951 S    
C32   C35   1.545503 S    
