data_mof_unit_55169.cif
_audit_creation_date              2012-12-10T18:33:34-0500
_audit_creation_method            fapswitch 2.2
_symmetry_space_group_name_H-M    P1
_symmetry_Int_Tables_number       1
_space_group_crystal_system       triclinic
_cell_length_a                    8.727109
_cell_length_b                    15.152221
_cell_length_c                    13.838237
_cell_angle_alpha                 89.551391
_cell_angle_beta                  97.869332
_cell_angle_gamma                 90.14478
_cell_volume                      1812.6105442

loop_
_atom_site_label
_atom_site_type_symbol
_atom_type_description
_atom_site_fract_x
_atom_site_fract_y
_atom_site_fract_z
_atom_type_partial_charge
C1    C     C_R   0.499812 0.329587 0.500643 0.805624
C2    C     C_R   0.497548 0.670006 0.499356 0.807284
C3    C     C_R   0.625293 0.461368 0.118883 0.152604
C4    C     C_R   0.375121 0.460430 0.881679 0.143455
C5    C     C_R   0.620932 0.463035 0.220666 -0.010806
C6    C     C_R   0.379666 0.462072 0.779904 0.008107
C7    C     C_R   0.380197 0.536437 0.197851 0.066581
C8    C     C_R   0.619190 0.537156 0.801511 0.045988
C9    C     C_R   0.378104 0.535590 0.096030 -0.303741
C10   C     C_R   0.621052 0.536395 0.903312 -0.299937
C11   C     C_R   0.501033 0.498052 0.054609 0.115460
C12   C     C_R   0.498580 0.498081 0.945333 0.113349
C13   C     C_R   0.203637 0.499995 0.475102 0.879215
C14   C     C_R   0.796369 0.500028 0.524893 0.880256
C15   C     C_2   0.037927 0.500222 0.461281 -0.375749
C16   C     C_2   0.962095 0.499983 0.538690 -0.369476
C17   C     C_R   0.468772 0.091817 0.582625 -0.236159
C18   C     C_R   0.423468 0.905770 0.416911 -0.241134
C19   C     C_R   0.470669 0.183826 0.585826 0.254416
C20   C     C_R   0.418390 0.813598 0.416535 0.260353
C21   C     C_R   0.500247 0.232548 0.502397 -0.070104
C22   C     C_R   0.493461 0.766325 0.497940 -0.053661
C23   C     C_R   0.529452 0.187355 0.418583 -0.248089
C24   C     C_R   0.568232 0.811853 0.578745 -0.251797
C25   C     C_R   0.529540 0.095709 0.417038 -0.177109
C26   C     C_R   0.571373 0.903390 0.578614 -0.174856
C27   C     C_R   0.499344 0.047535 0.499036 0.087958
C28   C     C_R   0.499076 0.950834 0.497807 0.087271
Cu1   Cu    Cu3+1 0.500000 0.499990 0.596430 0.940316
Cu2   Cu    Cu3+1 0.500000 0.500010 0.403570 0.944744
H1    H     H_    0.554714 0.062407 0.352053 0.134304
H2    H     H_    0.631831 0.937200 0.641292 0.135485
N1    N     N_R   0.500000 0.500020 0.258690 -0.179873
N2    N     N_R   0.500000 0.499980 0.741310 -0.178865
O1    O     O_R   0.500010 0.371450 0.581430 -0.545221
O2    O     O_R   0.499990 0.628550 0.418570 -0.547209
O3    O     O_R   0.500010 0.371460 0.418560 -0.592922
O4    O     O_R   0.499990 0.628540 0.581440 -0.593557
O5    O     O_R   0.274840 0.499990 0.562640 -0.586255
O6    O     O_R   0.725160 0.500010 0.437360 -0.587839
O7    O     O_R   0.274840 0.500000 0.399770 -0.595044
O8    O     O_R   0.725160 0.500000 0.600230 -0.601533
H3    H     H_    0.978122 0.500595 0.386986 0.165782
H4    H     H_    0.021928 0.499668 0.612979 0.164436
H5    H     H_    0.442793 0.054873 0.645790 0.130707
H6    H     H_    0.364187 0.942245 0.355248 0.128122
N3    N     N_2   0.438512 0.226269 0.672195 -0.417288
H7    H     H_    0.345887 0.198913 0.700754 0.236312
C29   C     C_3   0.572094 0.236017 0.745792 -0.660327
H8    H     H_    0.613417 0.170273 0.774378 0.202259
H9    H     H_    0.540161 0.275745 0.807043 0.219423
H10   H     H_    0.667185 0.270673 0.715150 0.243392
N4    N     N_2   0.335147 0.769285 0.335267 -0.421136
H11   H     H_    0.333941 0.802720 0.269922 0.241044
C30   C     C_3   0.182169 0.740096 0.350436 -0.679747
H12   H     H_    0.107622 0.797895 0.359916 0.218947
H13   H     H_    0.187989 0.696561 0.415754 0.225311
H14   H     H_    0.129096 0.702072 0.286106 0.214548
H15   H     H_    0.553481 0.222842 0.354062 0.164401
H16   H     H_    0.626734 0.776500 0.641490 0.156323
N5    N     N_2   0.755341 0.423674 0.082677 -0.436225
H17   H     H_    0.856531 0.427672 0.130699 0.244619
C31   C     C_3   0.729912 0.335922 0.043183 -0.701836
H18   H     H_    0.836726 0.312525 0.016186 0.226439
H19   H     H_    0.635425 0.336081 0.980846 0.238867
H20   H     H_    0.700691 0.289492 0.100535 0.214763
N6    N     N_2   0.245774 0.421711 0.918513 -0.435637
H21   H     H_    0.144344 0.425585 0.870649 0.244208
C32   C     C_3   0.272325 0.333683 0.958370 -0.701971
H22   H     H_    0.166213 0.309560 0.986200 0.226488
H23   H     H_    0.367755 0.333649 0.020187 0.243348
H24   H     H_    0.300661 0.287939 0.900984 0.214663
H25   H     H_    0.714709 0.433591 0.269357 0.126831
H26   H     H_    0.286620 0.431828 0.731685 0.134653
H27   H     H_    0.285221 0.566510 0.228003 0.138700
H28   H     H_    0.713776 0.567848 0.770831 0.129186
H29   H     H_    0.281417 0.565191 0.049755 0.159103
H30   H     H_    0.717208 0.566647 0.949093 0.159460

loop_
_geom_bond_atom_site_label_1
_geom_bond_atom_site_label_2
_ccdc_geom_bond_type
C25   H1    S    
C30   H12   S    
C31   H19   S    
C1    C21   S    
Cu1   O8    S    
C13   O7    A    
C10   H30   S    
N3    C29   S    
N4    H11   S    
C23   H15   S    
C19   C21   A    
C24   C26   A    
C19   N3    S    
C15   C16   D    
C8    H28   S    
C32   H23   S    
N5    C31   S    
C8    N2    A    
C29   H9    S    
C5    N1    A    
Cu1   O4    S    
C2    C22   S    
Cu2   O7    S    
C4    C12   A    
C16   H4    S    
C18   C20   A    
C1    O3    A    
C14   O8    A    
C3    N5    S    
C31   H20   S    
C7    N1    A    
C32   H22   S    
C18   H6    S    
C6    H26   S    
N4    C30   S    
C21   C23   A    
N6    H21   S    
C17   C27   A    
C18   C28   A    
C4    C6    A    
C26   H2    S    
C7    H27   S    
Cu1   N2    S    
C6    N2    A    
Cu2   O3    S    
N6    C32   S    
C32   H24   S    
Cu1   Cu2   S    
C2    O4    A    
N3    H7    S    
C24   H16   S    
C29   H10   S    
Cu1   O5    S    
Cu2   O6    S    
C9    H29   S    
C9    C11   A    
C10   C12   A    
C20   C22   A    
C13   C15   S    
C22   C24   A    
C1    O1    A    
C2    O2    A    
C7    C9    A    
Cu2   N1    S    
C17   H5    S    
C20   N4    S    
C3    C5    A    
C4    N6    S    
C11   C12   S    
C25   C27   A    
Cu1   O1    S    
C26   C28   A    
Cu2   O2    S    
C30   H13   S    
C15   H3    S    
C17   C19   A    
C14   C16   S    
C23   C25   A    
C5    H25   S    
N5    H17   S    
C13   O5    A    
C3    C11   A    
C14   O6    A    
C31   H18   S    
C8    C10   A    
C29   H8    S    
C30   H14   S    
C27   C28   S    
