data_mof_unit_53349.cif
_audit_creation_date              2013-03-05T16:00:55-0500
_audit_creation_method            fapswitch 2.2
_symmetry_space_group_name_H-M    P1
_symmetry_Int_Tables_number       1
_space_group_crystal_system       triclinic
_cell_length_a                    6.923864
_cell_length_b                    34.296925
_cell_length_c                    38.348129
_cell_angle_alpha                 99.564425
_cell_angle_beta                  89.802525
_cell_angle_gamma                 90.236429
_cell_volume                      8979.72804698

loop_
_atom_site_label
_atom_site_type_symbol
_atom_site_description
_atom_site_fract_x
_atom_site_fract_y
_atom_site_fract_z
_atom_type_partial_charge
O1    O     O_R   0.494320 0.461440 0.460990 -0.574500
O2    O     O_R   0.821450 0.462560 0.532500 -0.606742
O3    O     O_R   0.994330 0.538560 0.539010 -0.601272
C1    C     C_R   0.652322 0.453940 0.543862 1.033569
O4    O     O_R   0.823870 0.456770 0.460860 -0.572599
O5    O     O_R   0.996760 0.532730 0.466860 -0.604842
C2    C     C_R   0.654647 0.445486 0.448421 1.038615
O6    O     O_R   0.491880 0.467270 0.533140 -0.586657
O7    O     O_3   0.661650 0.524930 0.502050 -0.289043
V1    V     V_3+5 0.935500 0.495380 0.499620 1.216177
O8    O     O_R   0.326630 0.537440 0.467500 -0.601976
C3    C     C_R   0.158047 0.546081 0.456149 0.969157
O9    O     O_R   0.324210 0.543230 0.539140 -0.599883
C4    C     C_R   0.155327 0.553763 0.552159 0.974662
V2    V     V_3+5 0.435810 0.504620 0.500380 1.208222
O10   O     O_3   0.159790 0.475070 0.497950 -0.233195
C5    C     C_R   0.170024 0.828554 0.797675 0.478604
N1    N     N_R   0.047381 0.823605 0.824892 -0.184014
C6    C     C_R   0.938456 0.789740 0.823142 0.469876
C7    C     C_R   0.949778 0.759536 0.793379 -0.047428
C8    C     C_R   0.076168 0.764172 0.765505 -0.002440
C9    C     C_R   0.187832 0.798871 0.767629 -0.053833
C10   C     C_R   0.838815 0.724747 0.790954 -0.114445
C11   C     C_R   0.853808 0.694970 0.761371 -0.083520
C12   C     C_R   0.979848 0.699246 0.733415 -0.083800
C13   C     C_R   0.090979 0.734026 0.735443 0.003671
C14   C     C_R   0.217061 0.738704 0.707507 -0.086891
C15   C     C_R   0.328514 0.773415 0.709992 -0.089876
C16   C     C_R   0.314107 0.803111 0.739668 -0.106565
C17   C     C_R   0.997683 0.669582 0.703407 0.618159
N2    N     N_R   0.118114 0.674826 0.676045 -0.164470
C18   C     C_R   0.227502 0.708560 0.677686 0.623207
O11   O     O_2   0.273236 0.862271 0.799424 -0.534716
O12   O     O_2   0.821262 0.784962 0.850306 -0.552173
H1    H     H_    0.740068 0.720365 0.811935 0.177837
H2    H     H_    0.766004 0.668615 0.760472 0.190630
O13   O     O_2   0.896330 0.635686 0.701676 -0.475440
O14   O     O_2   0.345219 0.712986 0.650509 -0.473326
H3    H     H_    0.427147 0.777788 0.688990 0.186086
H4    H     H_    0.402252 0.829420 0.740593 0.178750
C19   C     C_R   0.978676 0.641110 0.619152 0.410199
C20   C     C_R   0.988120 0.610859 0.589457 -0.250785
H5    H     H_    0.874096 0.608013 0.569922 0.181320
C21   C     C_R   0.146128 0.585215 0.583837 -0.221153
C22   C     C_R   0.294518 0.589193 0.608879 -0.246544
H6    H     H_    0.414786 0.568834 0.604778 0.172397
C23   C     C_R   0.286245 0.617766 0.639820 0.419227
C24   C     C_R   0.128162 0.644539 0.644884 -0.092231
C25   C     C_R   0.199790 0.866470 0.875910 -0.058200
H7    H     H_    0.338088 0.852883 0.868483 0.129525
C26   C     C_R   0.188186 0.896215 0.905646 -0.131918
H8    H     H_    0.318890 0.904994 0.920360 0.133757
C27   C     C_R   0.010198 0.914130 0.916381 -0.125932
C28   C     C_R   0.844248 0.901552 0.896443 -0.152949
H9    H     H_    0.705123 0.914817 0.903757 0.140817
C29   C     C_R   0.856493 0.872088 0.866427 -0.043431
H10   H     H_    0.727301 0.863324 0.851242 0.138718
C30   C     C_R   0.034388 0.854191 0.855863 0.201436
C31   C     C_R   0.996710 0.866325 0.183724 0.486726
O15   O     O_2   0.939602 0.904229 0.192835 -0.542004
N3    N     N_R   0.047661 0.852072 0.149353 -0.176487
C32   C     C_R   0.110201 0.813836 0.139838 0.490186
C33   C     C_R   0.196923 0.886100 0.103823 -0.041673
C34   C     C_R   0.182513 0.910456 0.078097 -0.231379
C35   C     C_R   0.840486 0.919563 0.090935 0.606739
C36   C     C_R   0.855317 0.894014 0.115941 -0.223828
C37   C     C_R   0.033385 0.877514 0.122889 0.153845
C38   C     C_R   0.067569 0.802490 0.200370 -0.072335
C39   C     C_R   0.005308 0.841822 0.209760 -0.052665
C40   C     C_R   0.949473 0.855540 0.244755 -0.100432
C41   C     C_R   0.121736 0.788447 0.165136 -0.070839
C42   C     C_R   0.005053 0.927511 0.071144 -0.315401
H11   H     H_    0.727431 0.887160 0.130144 0.144074
H12   H     H_    0.893290 0.885153 0.252516 0.184151
C43   C     C_R   0.148282 0.573373 0.429853 -0.186344
C44   C     C_R   0.070879 0.768012 0.288338 -0.082071
C45   C     C_R   0.095668 0.710239 0.240592 -0.132639
C46   C     C_R   0.088572 0.726385 0.277181 0.010882
C47   C     C_R   0.090766 0.783646 0.324991 0.571186
C48   C     C_R   0.111347 0.757668 0.349519 -0.259364
C49   C     C_R   0.110124 0.716677 0.338938 -0.061513
C50   C     C_R   0.100559 0.700813 0.302712 -0.098562
C51   C     C_R   0.103909 0.659390 0.292150 -0.278777
C52   C     C_R   0.123436 0.634955 0.318343 0.636723
N4    N     N_R   0.125485 0.651055 0.353500 -0.172891
C53   C     C_R   0.121202 0.691137 0.364078 0.572044
C54   C     C_R   0.296249 0.623062 0.399708 -0.009283
C55   C     C_R   0.307005 0.597215 0.424237 -0.126273
C56   C     C_R   0.978867 0.575850 0.410181 -0.277797
C57   C     C_R   0.966492 0.601545 0.385193 0.407428
C58   C     C_R   0.128241 0.625333 0.379798 0.037323
O16   O     O_2   0.125244 0.706257 0.398884 -0.544433
C59   C     C_R   0.037635 0.792417 0.262180 0.071238
C60   C     C_R   0.074872 0.777123 0.226191 0.076949
C61   C     C_R   0.118287 0.736602 0.215735 0.096919
C62   C     C_R   0.963853 0.831243 0.270392 -0.129034
H13   H     H_    0.439396 0.596144 0.439003 0.146204
H14   H     H_    0.419948 0.641295 0.395936 0.177439
H15   H     H_    0.133865 0.769714 0.377108 0.189514
H16   H     H_    0.907160 0.842932 0.296182 0.172305
O17   O     O_2   0.158146 0.800130 0.105897 -0.536380
C63   C     C_R   0.187894 0.749529 0.156084 -0.073200
H17   H     H_    0.310882 0.915792 0.063421 0.213785
H18   H     H_    0.335888 0.873812 0.108881 0.144192
H19   H     H_    0.239012 0.738356 0.129595 0.185947
C64   C     C_R   0.075586 0.668523 0.230345 0.154758
C65   C     C_R   0.078606 0.643507 0.256032 0.511237
O18   O     O_2   0.141059 0.595453 0.308909 -0.478801
C66   C     C_R   0.188292 0.724213 0.181031 -0.100961
H20   H     H_    0.855032 0.557756 0.414336 0.175274
H21   H     H_    0.249101 0.695170 0.172937 0.175860
C67   C     C_R   0.565770 0.313276 0.639050 0.628303
O19   O     O_2   0.524821 0.299309 0.604872 -0.481435
N5    N     N_R   0.616061 0.352163 0.648977 -0.158201
C68   C     C_R   0.655995 0.367217 0.683560 0.626348
C69   C     C_R   0.470741 0.402417 0.618548 0.691590
C70   C     C_R   0.477278 0.426139 0.591711 -0.326765
C71   C     C_R   0.799872 0.403024 0.575522 -0.266118
C72   C     C_R   0.794502 0.377822 0.600947 0.331339
C73   C     C_R   0.628147 0.377668 0.622626 -0.069952
C74   C     C_R   0.598320 0.302638 0.700025 -0.044991
C75   C     C_R   0.557976 0.287743 0.664264 -0.080379
C76   C     C_R   0.512124 0.247724 0.654386 -0.042178
C77   C     C_R   0.647850 0.342727 0.709670 -0.121883
C78   C     C_R   0.642555 0.427186 0.570607 -0.201968
H22   H     H_    0.927794 0.403638 0.559286 0.202369
H23   H     H_    0.477385 0.235602 0.627210 0.181228
C79   C     C_R   0.511149 0.071606 0.928436 -0.313660
C80   C     C_R   0.565772 0.210338 0.740470 0.045060
C81   C     C_R   0.592991 0.267939 0.788004 0.070706
C82   C     C_R   0.576031 0.226453 0.776937 0.079710
C83   C     C_R   0.564716 0.168706 0.730642 -0.205550
C84   C     C_R   0.563933 0.143895 0.755937 -0.063796
C85   C     C_R   0.561488 0.159547 0.792025 -0.066613
C86   C     C_R   0.566317 0.200841 0.802628 -0.061202
C87   C     C_R   0.559656 0.216498 0.838937 -0.056658
C88   C     C_R   0.548871 0.190673 0.863924 0.482352
N6    N     N_R   0.547074 0.150491 0.853122 -0.179472
C89   C     C_R   0.554456 0.134736 0.817835 0.488405
C90   C     C_R   0.375875 0.098530 0.878749 -0.164883
C91   C     C_R   0.364689 0.071531 0.902563 0.347561
C92   C     C_R   0.668265 0.097810 0.928626 -0.102385
C93   C     C_R   0.679720 0.123762 0.904140 -0.004934
C94   C     C_R   0.533467 0.124403 0.879063 0.144051
O20   O     O_2   0.556027 0.095132 0.807675 -0.518747
C95   C     C_R   0.556768 0.236221 0.715129 0.079669
C96   C     C_R   0.591811 0.277329 0.725922 0.036108
C97   C     C_R   0.622689 0.293150 0.762228 -0.127745
C98   C     C_R   0.512451 0.222397 0.679208 -0.199574
H24   H     H_    0.264343 0.098600 0.859019 0.171090
H25   H     H_    0.563347 0.112227 0.746983 0.178064
H26   H     H_    0.569809 0.154333 0.703430 0.137501
H27   H     H_    0.472082 0.192140 0.669594 0.135375
O21   O     O_2   0.704858 0.405692 0.692602 -0.570236
C99   C     C_R   0.696712 0.357229 0.744745 -0.251115
H28   H     H_    0.354328 0.444030 0.587311 0.147380
H29   H     H_    0.750865 0.387149 0.751439 0.186989
C100  C     C_R   0.570976 0.282707 0.824486 -0.123109
C101  C     C_R   0.557470 0.257540 0.849426 -0.107312
O22   O     O_2   0.538054 0.205678 0.898699 -0.531483
C102  C     C_R   0.685817 0.333259 0.771191 0.592055
H30   H     H_    0.553704 0.313733 0.834427 0.172657
H31   H     H_    0.782391 0.098398 0.947963 0.168855
H32   H     H_    0.543116 0.270514 0.877057 0.181441
H33   H     H_    0.803269 0.143296 0.904568 0.136200
C103  C     C_R   0.578487 0.164872 0.208288 0.524289
N7    N     N_R   0.557116 0.175650 0.175575 -0.182648
C104  C     C_R   0.552426 0.214775 0.171991 0.490566
C105  C     C_R   0.563921 0.244671 0.201848 -0.038283
C106  C     C_R   0.590792 0.234177 0.235514 -0.021674
C107  C     C_R   0.605671 0.193863 0.238952 -0.221811
C108  C     C_R   0.549443 0.284828 0.198699 -0.103700
C109  C     C_R   0.558564 0.314254 0.228547 -0.103000
C110  C     C_R   0.584333 0.304332 0.262304 -0.053857
C111  C     C_R   0.602059 0.264212 0.265763 0.006036
C112  C     C_R   0.630494 0.254173 0.299431 -0.139180
C113  C     C_R   0.650520 0.214265 0.302668 -0.160150
C114  C     C_R   0.641591 0.184197 0.273025 0.380671
C115  C     C_R   0.591691 0.333593 0.292801 0.528382
N8    N     N_R   0.618040 0.323307 0.325524 -0.170901
C116  C     C_R   0.640572 0.284445 0.329164 0.625434
O23   O     O_2   0.566707 0.126294 0.211153 -0.482957
O24   O     O_2   0.537503 0.224840 0.139556 -0.516930
H34   H     H_    0.529156 0.293690 0.173141 0.183140
H35   H     H_    0.545166 0.344818 0.225051 0.182289
O25   O     O_2   0.570655 0.371978 0.289777 -0.530288
O26   O     O_2   0.673000 0.275093 0.361447 -0.470892
H36   H     H_    0.677707 0.206174 0.328339 0.216891
C117  C     C_R   0.474687 0.356388 0.382489 0.271484
C118  C     C_R   0.487108 0.385413 0.413438 0.208454
C119  C     C_R   0.643679 0.412635 0.417758 -0.320264
C120  C     C_R   0.788002 0.409436 0.391654 -0.111694
H37   H     H_    0.908343 0.429991 0.394259 0.162690
C121  C     C_R   0.777658 0.380347 0.361583 -0.023896
H38   H     H_    0.891716 0.378405 0.341983 0.166993
C122  C     C_R   0.621970 0.353809 0.356547 0.027462
C123  C     C_R   0.379877 0.144487 0.121876 -0.158573
H39   H     H_    0.268653 0.166697 0.128062 0.175673
C124  C     C_R   0.365848 0.116362 0.090708 0.332812
C125  C     C_R   0.510586 0.086895 0.082854 -0.308783
C126  C     C_R   0.669239 0.087872 0.105879 -0.140592
H40   H     H_    0.782509 0.065967 0.100649 0.144207
C127  C     C_R   0.684416 0.116853 0.136022 0.001857
H41   H     H_    0.809857 0.117165 0.152856 0.139215
C128  C     C_R   0.539615 0.145333 0.144473 0.134554
O27   O     O_R   0.662230 0.032770 0.966890 -0.590499
O28   O     O_R   0.330090 0.043230 0.039150 -0.574164
O29   O     O_R   0.157350 0.967260 0.033130 -0.611867
C129  C     C_R   0.499070 0.054507 0.051702 0.994026
O30   O     O_R   0.332650 0.037450 0.967510 -0.555449
O31   O     O_R   0.159930 0.961430 0.960980 -0.581942
C130  C     C_R   0.501442 0.045331 0.955582 1.045442
O32   O     O_R   0.659640 0.038600 0.039040 -0.592821
O33   O     O_3   0.492510 0.975090 0.997960 -0.283487
V3    V     V_3+5 0.218600 0.004620 0.000380 1.251993
O34   O     O_R   0.830050 0.956730 0.960830 -0.609683
C131  C     C_R   0.999145 0.946067 0.947829 0.988867
O35   O     O_R   0.827490 0.962520 0.032470 -0.555847
C132  C     C_R   0.995784 0.954132 0.044101 0.961228
V4    V     V_3+5 0.718310 0.995320 0.999580 1.221883
O36   O     O_3   0.994270 0.024900 0.002040 -0.246206
O37   O     O_3   0.662566 0.935182 0.084839 -0.634315
C133  C     C_3   0.627749 0.968202 0.111281 -0.196656
H42   H     H_    0.743768 0.990896 0.111866 0.118224
H43   H     H_    0.611421 0.959243 0.137723 0.164279
H44   H     H_    0.490240 0.982097 0.105158 0.159048
O38   O     O_3   0.124536 0.823829 0.335691 -0.621705
C134  C     C_3   0.006219 0.839351 0.364795 -0.224428
H45   H     H_    0.076073 0.835618 0.390040 0.167197
H46   H     H_    0.858227 0.826239 0.362976 0.133024
H47   H     H_    0.989943 0.871581 0.365169 0.189012
N9    N     N_R   0.024105 0.651431 0.194785 0.235889
O39   O     O_R   0.876897 0.665078 0.179630 -0.383547
O40   O     O_R   0.111222 0.619852 0.178832 -0.319192
O41   O     O_3   0.051554 0.603272 0.245394 -0.555088
C135  C     C_3   0.852355 0.594772 0.247246 0.083284
H48   H     H_    0.795399 0.602951 0.274657 0.132918
H49   H     H_    0.830998 0.562467 0.239188 0.171696
H50   H     H_    0.767398 0.609830 0.228837 0.117913
N10   N     N_R   0.789687 0.603181 0.365788 0.224422
O42   O     O_R   0.672058 0.573078 0.361133 -0.389211
O43   O     O_R   0.738286 0.635460 0.354714 -0.456824
N11   N     N_R   0.957828 0.352617 0.604111 0.267006
O44   O     O_R   0.081914 0.344887 0.578333 -0.306869
O45   O     O_R   0.990666 0.338918 0.633187 -0.383635
N12   N     N_R   0.210695 0.042912 0.898625 0.240153
O46   O     O_R   0.040619 0.052490 0.888532 -0.397507
O47   O     O_R   0.248420 0.005784 0.898684 -0.397496
O48   O     O_3   0.308598 0.399879 0.639647 -0.588008
C136  C     C_3   0.219591 0.436930 0.650201 -0.107409
H51   H     H_    0.121502 0.443761 0.629185 0.116465
H52   H     H_    0.326721 0.461156 0.657811 0.120846
H53   H     H_    0.129046 0.435236 0.673827 0.199349
O49   O     O_3   0.769458 0.346391 0.803968 -0.620632
C137  C     C_3   0.696376 0.383735 0.819470 -0.254935
H54   H     H_    0.539322 0.386943 0.814324 0.135135
H55   H     H_    0.780715 0.407847 0.810498 0.167321
H56   H     H_    0.714479 0.387041 0.848545 0.186151
N13   N     N_R   0.680211 0.144478 0.278102 0.272909
O50   O     O_R   0.595826 0.130475 0.303786 -0.314151
O51   O     O_R   0.828352 0.125842 0.262473 -0.307602
N14   N     N_R   0.314941 0.329135 0.377657 0.258814
O52   O     O_R   0.263788 0.310073 0.402865 -0.249890
O53   O     O_R   0.225277 0.321949 0.347491 -0.413182
N15   N     N_R   0.817324 0.668044 0.622509 0.263363
O54   O     O_R   0.660781 0.658730 0.604271 -0.353596
O55   O     O_R   0.831187 0.703411 0.640880 -0.375988
N16   N     N_R   0.342519 0.386759 0.440546 0.266245
O56   O     O_R   0.160510 0.388967 0.432864 -0.354459
O57   O     O_R   0.392348 0.384747 0.472887 -0.340616
N17   N     N_R   0.210668 0.119764 0.066614 0.243021
O58   O     O_R   0.246973 0.118502 0.033124 -0.374836
O59   O     O_R   0.041553 0.131707 0.078767 -0.396091
N18   N     N_R   0.437930 0.618562 0.665723 0.262517
O60   O     O_R   0.414546 0.636160 0.698211 -0.395630
O61   O     O_R   0.594860 0.598216 0.657771 -0.352652

loop_
_geom_bond_atom_site_label_1
_geom_bond_atom_site_label_2
_geom_bond_distance
_ccdc_geom_bond_type
C34   H17   1.081507 S    
O31   V3    1.974240 S    
C54   C55   1.397970 A    
C76   C98   1.391178 A    
C118  C119  1.419784 A    
C9    C16   1.406972 A    
C54   C58   1.403139 A    
C46   C50   1.421658 A    
C99   H29   1.081422 S    
C105  C106  1.409769 A    
C121  C122  1.400953 A    
C96   C97   1.424253 A    
C84   H25   1.083323 S    
C44   C47   1.425621 A    
C45   C46   1.421033 A    
C127  H41   1.082922 S    
C34   C42   1.408181 A    
C110  C115  1.409752 A    
C67   N5    1.368703 A    
N5    C68   1.369536 A    
N4    C58   1.446226 S    
C133  H44   1.109597 S    
V4    O36   2.154616 S    
C86   C87   1.407306 A    
C32   C41   1.409818 A    
C115  O25   1.349125 S    
N4    C53   1.367523 A    
C99   C102  1.409275 A    
C125  C129  1.492064 S    
C127  C128  1.401755 A    
C109  H35   1.083053 S    
O48   C136  1.411449 S    
C59   C60   1.415777 A    
C113  H36   1.083532 S    
C5    O11   1.349135 S    
C1    C78   1.486645 S    
C97   C102  1.428467 A    
N7    C128  1.451288 S    
C124  N17   1.437156 S    
C15   C16   1.399030 A    
C108  C109  1.395982 A    
C44   C46   1.426346 A    
N1    C6    1.374586 A    
O28   V3    1.976124 S    
C82   C86   1.425968 A    
C66   H21   1.079642 S    
O5    C3    1.296372 A    
C17   N2    1.372621 A    
C48   C49   1.396981 A    
C89   O20   1.349477 S    
C69   O48   1.392457 S    
C136  H52   1.114250 S    
N11   O44   1.301746 A    
C135  H49   1.109109 S    
C134  H47   1.109288 S    
C137  H54   1.115001 S    
C12   C17   1.409090 A    
C69   C70   1.414460 A    
C63   H19   1.083160 S    
C5    N1    1.375063 A    
N18   O60   1.300847 A    
C19   C20   1.408864 A    
C47   O38   1.390124 S    
C123  C124  1.409036 A    
C98   H27   1.077988 S    
C110  C111  1.410029 A    
C67   O19   1.349257 S    
C74   C77   1.404562 A    
C8    C9    1.407589 A    
C71   C72   1.406653 A    
C87   C101  1.398378 A    
C19   N15   1.444289 S    
C124  C125  1.421818 A    
N1    C30   1.450895 S    
C93   H33   1.082841 S    
C51   C52   1.418154 A    
C51   C65   1.412779 A    
C83   C84   1.392580 A    
C25   C26   1.400343 A    
C103  O23   1.347833 S    
C40   H12   1.083260 S    
O41   C135  1.412518 S    
C74   C96   1.423943 A    
C107  C114  1.423328 A    
O1    V2    1.973922 S    
C71   C78   1.403384 A    
C18   O14   1.348755 S    
C29   C30   1.406477 A    
C8    C13   1.418606 A    
N15   O54   1.301576 A    
N12   O46   1.301172 A    
C29   H10   1.082952 S    
C49   C53   1.408664 A    
N8    C122  1.448051 S    
C1    O6    1.296892 A    
C32   O17   1.349181 S    
C137  H55   1.110169 S    
N3    C32   1.372915 A    
O29   C132  1.298725 A    
C90   C94   1.402390 A    
C36   C37   1.403377 A    
C137  H56   1.109289 S    
C103  C107  1.420653 A    
O1    C2    1.295251 A    
O9    C4    1.298686 A    
N6    C94   1.446888 S    
C126  C127  1.397612 A    
C2    C119  1.489149 S    
C103  N7    1.374065 A    
C123  H39   1.083094 S    
C20   C21   1.400063 A    
N17   O58   1.301479 A    
V3    O36   1.701140 S    
O7    V1    2.148084 S    
C134  H46   1.115050 S    
C102  O49   1.390262 S    
O32   V4    1.978006 S    
C49   C50   1.406941 A    
C33   C37   1.402308 A    
C106  C111  1.419734 A    
C22   C23   1.408936 A    
C27   C131  1.490356 S    
C112  C116  1.410469 A    
O31   C131  1.296920 A    
C54   H14   1.081805 S    
N12   O47   1.301285 A    
C31   N3    1.372870 A    
C75   C76   1.397376 A    
V2    O10   2.154546 S    
C81   C97   1.431134 A    
C26   H8    1.082981 S    
C23   C24   1.423531 A    
C104  C105  1.406560 A    
C11   C12   1.406106 A    
C133  H42   1.113898 S    
C123  C128  1.404630 A    
C61   C66   1.412773 A    
C85   C89   1.409001 A    
O4    C2    1.299576 A    
C100  H30   1.076039 S    
O33   V3    2.148145 S    
C125  C126  1.408544 A    
N14   O53   1.301262 A    
O6    V2    1.977917 S    
C15   H3    1.083056 S    
N11   O45   1.300940 A    
C12   C13   1.408205 A    
C109  C110  1.404227 A    
C36   H11   1.083256 S    
C56   H20   1.083153 S    
C45   C61   1.426499 A    
C117  C118  1.419301 A    
C129  O32   1.297189 A    
C25   C30   1.405135 A    
C69   C73   1.409133 A    
C17   O13   1.347705 S    
C26   C27   1.408690 A    
O33   V4    1.704962 S    
C120  C121  1.395658 A    
C40   C62   1.394454 A    
C67   C75   1.408967 A    
O49   C137  1.414257 S    
C44   C59   1.428968 A    
C95   C98   1.414618 A    
C108  H34   1.083058 S    
C76   H23   1.083364 S    
O38   C134  1.414216 S    
C7    C10   1.406619 A    
O8    C3    1.299609 A    
C104  O24   1.349382 S    
O35   C132  1.299418 A    
C7    C8    1.408062 A    
C70   H28   1.081389 S    
N10   O43   1.301209 A    
C91   N12   1.437471 S    
C74   C75   1.410096 A    
C60   C61   1.414218 A    
C11   H2    1.083082 S    
C64   C65   1.409961 A    
C52   N4    1.369476 A    
C135  H48   1.113198 S    
O30   V3    1.984362 S    
N15   O55   1.300913 A    
C80   C95   1.422608 A    
N14   O52   1.301175 A    
O3    C4    1.296322 A    
N3    C37   1.448014 S    
C31   C39   1.409377 A    
C112  C113  1.402208 A    
C41   C63   1.400699 A    
N16   O57   1.301353 A    
C25   H7    1.082990 S    
O29   V3    1.981303 S    
O8    V2    1.978273 S    
N2    C24   1.448897 S    
O9    V2    1.976446 S    
C48   H15   1.081493 S    
C13   C14   1.408897 A    
C84   C85   1.398798 A    
C83   H26   1.078036 S    
C105  C108  1.406393 A    
C47   C48   1.406881 A    
C22   H6    1.083122 S    
C20   H5    1.083125 S    
N13   O50   1.301168 A    
O2    V1    1.984411 S    
C90   H24   1.083242 S    
N7    C104  1.371954 A    
N8    C116  1.372562 A    
C4    C21   1.485929 S    
C95   C96   1.421950 A    
C79   C91   1.420841 A    
C119  C120  1.403636 A    
N17   O59   1.301084 A    
C42   C132  1.492910 S    
C65   O41   1.384591 S    
C28   H9    1.082998 S    
C45   C64   1.425732 A    
C68   C77   1.410653 A    
C88   O22   1.349212 S    
C14   C18   1.410359 A    
C101  H32   1.083311 S    
C113  C114  1.403522 A    
C38   C39   1.406255 A    
N2    C18   1.372978 A    
C21   C22   1.399473 A    
O34   V4    1.976208 S    
O28   C129  1.299409 A    
C33   H18   1.082963 S    
N13   O51   1.301395 A    
C6    O12   1.349133 S    
N9    O40   1.301428 A    
O5    V1    1.981344 S    
C72   C73   1.418676 A    
C133  H43   1.112595 S    
C28   C29   1.402436 A    
C27   C28   1.408286 A    
C85   C86   1.407316 A    
C115  N8    1.371772 A    
C59   C62   1.413687 A    
C35   C42   1.417330 A    
C88   N6    1.371547 A    
O30   C130  1.297277 A    
C5    C9    1.410480 A    
C126  H40   1.083234 S    
C57   N10   1.440909 S    
O35   V4    1.978095 S    
C81   C100  1.414485 A    
O27   V4    1.978520 S    
C120  H37   1.083306 S    
C80   C83   1.414920 A    
C6    C7    1.410342 A    
C81   C82   1.420076 A    
O7    V2    1.706253 S    
C55   H13   1.083065 S    
C23   N18   1.445125 S    
O4    V1    1.976259 S    
C68   O21   1.349445 S    
C111  C112  1.405108 A    
C53   O16   1.349562 S    
C79   C130  1.486948 S    
N10   O42   1.301526 A    
C117  C122  1.414887 A    
O34   C131  1.300750 A    
C57   C58   1.417614 A    
C100  C101  1.393353 A    
C70   C78   1.403142 A    
C136  H53   1.109295 S    
C38   C41   1.407126 A    
C90   C91   1.406198 A    
O2    C1    1.298057 A    
C62   H16   1.076931 S    
C16   H4    1.082997 S    
N9    O39   1.301583 A    
C52   O18   1.348875 S    
C19   C24   1.423461 A    
C64   N9    1.437444 S    
C117  N14   1.437594 S    
C121  H38   1.082916 S    
N18   O61   1.301459 A    
C92   H31   1.083336 S    
C39   C40   1.399940 A    
C10   H1    1.083000 S    
C38   C60   1.423696 A    
C136  H51   1.110615 S    
C72   N11   1.443843 S    
C114  N13   1.434106 S    
C43   C56   1.407285 A    
C10   C11   1.398500 A    
C134  H45   1.110149 S    
C33   C34   1.398668 A    
O27   C130  1.297074 A    
C43   C55   1.404373 A    
C31   O15   1.349361 S    
N16   O56   1.300536 A    
C135  H50   1.112496 S    
C50   C51   1.411335 A    
C106  C107  1.414777 A    
C77   C99   1.396575 A    
C14   C15   1.406060 A    
O3    V1    1.974003 S    
C35   O37   1.381372 S    
C92   C93   1.398914 A    
C87   C88   1.410410 A    
C63   C66   1.394661 A    
V1    O10   1.701291 S    
C71   H22   1.083041 S    
C118  N16   1.436043 S    
C56   C57   1.408541 A    
C3    C43   1.487377 S    
C79   C92   1.407473 A    
O37   C133  1.409878 S    
C116  O26   1.349215 S    
N5    C73   1.444247 S    
N6    C89   1.372055 A    
C93   C94   1.401637 A    
C80   C82   1.417621 A    
C35   C36   1.406645 A    
