data_mof_unit_15378.cif
_audit_creation_date              2012-12-11T15:18:30-0500
_audit_creation_method            fapswitch 2.2
_symmetry_space_group_name_H-M    P1
_symmetry_Int_Tables_number       1
_space_group_crystal_system       triclinic
_cell_length_a                    6.940601
_cell_length_b                    19.925704
_cell_length_c                    23.825024
_cell_angle_alpha                 93.589525
_cell_angle_beta                  91.163907
_cell_angle_gamma                 88.542863
_cell_volume                      3286.80800056

loop_
_atom_site_label
_atom_site_type_symbol
_atom_type_description
_atom_site_fract_x
_atom_site_fract_y
_atom_site_fract_z
_atom_type_partial_charge
O1    O     O_R   0.620100 0.812200 0.810870 -0.546948
O2    O     O_R   0.379900 0.187800 0.189130 -0.544095
O3    O     O_R   0.296960 0.671650 0.794750 -0.512572
O4    O     O_R   0.703040 0.328350 0.205250 -0.530328
O5    O     O_R   0.120160 0.687800 0.689130 -0.502309
O6    O     O_R   0.879840 0.312200 0.310870 -0.502098
C1    C     C_R   0.468705 0.646926 0.804424 0.820662
C2    C     C_R   0.531614 0.352912 0.195475 0.834180
O7    O     O_R   0.290810 0.810670 0.817290 -0.545101
O8    O     O_R   0.709190 0.189330 0.182710 -0.548017
O9    O     O_R   0.113980 0.827820 0.711840 -0.544238
O10   O     O_R   0.886020 0.172180 0.288160 -0.543882
C3    C     C_R   0.459382 0.832048 0.834187 0.710824
C4    C     C_R   0.540616 0.167956 0.165810 0.723882
O11   O     O_R   0.626290 0.672180 0.788160 -0.547443
O12   O     O_R   0.373710 0.327820 0.211840 -0.538460
O13   O     O_3   0.451520 0.755460 0.715370 -0.366886
O14   O     O_3   0.548480 0.244540 0.284630 -0.366945
V1    V     V_3+5 0.179200 0.748980 0.756420 1.528995
V2    V     V_3+5 0.820800 0.251020 0.243580 1.510033
O15   O     O_R   0.783880 0.828350 0.705250 -0.544715
O16   O     O_R   0.216120 0.171650 0.294750 -0.545105
C5    C     C_R   0.949898 0.852556 0.694689 0.669619
C6    C     C_R   0.050102 0.147444 0.305310 0.670368
O17   O     O_R   0.790030 0.689320 0.682700 -0.544886
O18   O     O_R   0.209970 0.310680 0.317300 -0.545027
C7    C     C_R   0.959408 0.667507 0.666140 0.762162
C8    C     C_R   0.040590 0.332496 0.333856 0.763042
V3    V     V_3+5 0.678400 0.751010 0.743570 1.476136
V4    V     V_3+5 0.321600 0.248990 0.256430 1.485688
O19   O     O_3   0.955950 0.744540 0.784620 -0.371756
O20   O     O_3   0.044050 0.255460 0.215380 -0.374064
C9    C     C_R   0.864048 0.425175 0.390245 0.615375
C10   C     C_R   0.135982 0.574861 0.609724 0.616219
C11   C     C_R   0.028589 0.382536 0.382776 -0.224141
C12   C     C_R   0.971409 0.617480 0.617210 -0.225470
C13   C     C_R   0.181470 0.387861 0.422335 -0.227411
C14   C     C_R   0.818512 0.612151 0.577655 -0.227299
C15   C     C_R   0.170799 0.434036 0.469344 0.005580
C16   C     C_R   0.829200 0.565989 0.530636 0.005850
C17   C     C_R   0.005852 0.476553 0.476476 -0.059737
C18   C     C_R   0.994157 0.523478 0.523499 -0.059858
C19   C     C_R   0.852521 0.472251 0.436675 -0.030058
C20   C     C_R   0.147501 0.527785 0.563295 -0.030768
C21   C     C_R   0.321606 0.438344 0.509579 0.590624
C22   C     C_R   0.678401 0.561685 0.490397 0.590364
C23   C     C_R   0.309852 0.484770 0.555955 -0.153756
C24   C     C_R   0.690175 0.515270 0.444013 -0.155123
H1    H     H_    0.307836 0.355204 0.416857 0.213909
H2    H     H_    0.692125 0.644796 0.583143 0.214008
H3    H     H_    0.429170 0.487120 0.585988 0.191124
H4    H     H_    0.570871 0.512925 0.413975 0.190423
C25   C     C_R   0.948293 0.913989 0.663034 -0.038203
C26   C     C_R   0.051706 0.086010 0.336965 -0.038148
C27   C     C_R   0.867090 0.032403 0.659712 -0.156117
C28   C     C_R   0.132907 0.967596 0.340287 -0.156830
C29   C     C_R   0.884251 0.974656 0.689564 -0.167369
C30   C     C_R   0.115748 0.025343 0.310435 -0.168223
C31   C     C_R   0.994520 0.911386 0.605622 -0.210115
C32   C     C_R   0.005478 0.088613 0.394377 -0.210063
C33   C     C_R   0.974537 0.969579 0.573687 0.085876
C34   C     C_R   0.025459 0.030420 0.426312 0.085832
C35   C     C_R   0.910032 0.030389 0.602297 0.133292
C36   C     C_R   0.089963 0.969609 0.397701 0.133773
C37   C     C_R   0.013255 0.969599 0.514554 0.054899
C38   C     C_R   0.986740 0.030400 0.485444 0.054748
C39   C     C_R   0.923069 0.089125 0.516482 -0.177423
C40   C     C_R   0.076926 0.910873 0.483516 -0.177496
C41   C     C_R   0.886126 0.088933 0.573517 -0.190316
C42   C     C_R   0.113869 0.911066 0.426481 -0.190957
H5    H     H_    0.836804 0.135386 0.595373 0.134421
H6    H     H_    0.163189 0.864613 0.404625 0.133880
H7    H     H_    0.959665 0.136956 0.412873 0.100817
H8    H     H_    0.040333 0.863043 0.587126 0.100658
H9    H     H_    0.153986 0.022836 0.266464 0.103090
H10   H     H_    0.846014 0.977164 0.733536 0.103902
H11   H     H_    0.817033 0.078785 0.681487 0.118624
H12   H     H_    0.182963 0.921214 0.318511 0.117632
H13   H     H_    0.899469 0.136562 0.497881 0.133851
H14   H     H_    0.100525 0.863436 0.502117 0.133723
C43   C     C_R   0.491270 0.585680 0.835762 -0.143430
C44   C     C_R   0.514684 0.413955 0.163890 -0.147933
C45   C     C_R   0.623117 0.472671 0.838897 -0.152923
C46   C     C_R   0.455836 0.533810 0.164060 -0.154124
C47   C     C_R   0.580059 0.529026 0.809192 -0.234847
C48   C     C_R   0.480280 0.475765 0.193092 -0.248961
C49   C     C_R   0.446933 0.586087 0.893207 0.526088
C50   C     C_R   0.525806 0.410134 0.104865 0.525699
C51   C     C_R   0.506966 0.531124 0.925976 -0.023586
C52   C     C_R   0.512142 0.469672 0.074274 -0.023604
C53   C     C_R   0.589070 0.473291 0.896710 0.074871
C54   C     C_R   0.469775 0.531314 0.105295 0.075647
C55   C     C_R   0.492901 0.531180 0.986234 0.067557
C56   C     C_R   0.536668 0.470783 0.014498 0.064814
C57   C     C_R   0.617279 0.415326 0.982737 -0.112493
C58   C     C_R   0.452426 0.590595 0.019699 -0.117059
C59   C     C_R   0.643076 0.416783 0.925340 -0.190719
C60   C     C_R   0.442728 0.590562 0.077775 -0.195756
H15   H     H_    0.709357 0.373227 0.903160 0.131698
H16   H     H_    0.414011 0.637846 0.101536 0.129420
H17   H     H_    0.469442 0.478869 0.238500 0.169527
H18   H     H_    0.616065 0.528490 0.765108 0.160988
H19   H     H_    0.689144 0.429002 0.816852 0.136991
H20   H     H_    0.425888 0.581034 0.187731 0.136606
H21   H     H_    0.675381 0.371328 0.001495 0.207966
H22   H     H_    0.439957 0.639306 0.002864 0.206630
C61   C     C_R   0.367818 0.077209 0.108460 -0.215764
C62   C     C_R   0.632169 0.922802 0.891533 -0.215747
C63   C     C_R   0.529624 0.118330 0.116563 -0.074028
C64   C     C_R   0.470367 0.881679 0.883431 -0.078651
C65   C     C_R   0.679717 0.111529 0.077541 -0.197713
C66   C     C_R   0.320272 0.888481 0.922453 -0.205356
C67   C     C_R   0.667921 0.065049 0.030721 0.084473
C68   C     C_R   0.332066 0.934963 0.969272 0.084965
C69   C     C_R   0.505968 0.023692 0.023330 0.054497
C70   C     C_R   0.494018 0.976320 0.976662 0.054949
C71   C     C_R   0.355908 0.029627 0.062518 0.090475
C72   C     C_R   0.644078 0.970385 0.937474 0.089468
C73   C     C_R   0.815050 0.059231 0.991019 -0.173352
C74   C     C_R   0.184937 0.940780 0.008974 -0.176190
C75   C     C_R   0.803363 0.012303 0.944877 -0.190603
C76   C     C_R   0.196623 0.987709 0.055116 -0.191879
H23   H     H_    0.251883 0.081558 0.138398 0.119539
H24   H     H_    0.748103 0.918454 0.861594 0.120683
H25   H     H_    0.804593 0.143023 0.083169 0.136317
H26   H     H_    0.195398 0.856986 0.916826 0.138692
H27   H     H_    0.940070 0.090714 0.995837 0.141376
H28   H     H_    0.059919 0.909296 0.004157 0.139773
H29   H     H_    0.919751 0.008532 0.915118 0.131850
H30   H     H_    0.080235 0.991479 0.084875 0.130785
F1    F     F_    0.716506 0.421999 0.351788 -0.703932
F2    F     F_    0.283576 0.578058 0.648163 -0.700888
F3    F     F_    0.532089 0.347655 0.078773 -0.725772
F4    F     F_    0.341529 0.639388 0.914923 -0.721792
F5    F     F_    0.481020 0.397682 0.504132 -0.696546
F6    F     F_    0.518978 0.602343 0.495847 -0.697024

loop_
_geom_bond_atom_site_label_1
_geom_bond_atom_site_label_2
_ccdc_geom_bond_type
C40   H14   S    
C4    C63   S    
V4    O20   S    
C55   C56   A    
C61   C63   A    
C17   C18   A    
C61   H23   S    
O4    C2    A    
V1    O19   S    
C66   C68   A    
C25   C31   A    
C54   C60   A    
C15   C17   A    
C26   C32   A    
C16   C22   A    
O9    V1    S    
C45   H19   S    
C2    C44   S    
C29   H10   S    
C76   H30   S    
C11   C13   A    
C46   C48   A    
C50   F3    S    
O3    C1    A    
C63   C65   A    
V2    O20   S    
C74   H28   S    
C27   H11   S    
C6    C26   S    
C69   C70   A    
C32   H7    S    
C28   H12   S    
C32   C34   A    
C41   H5    S    
O7    C3    A    
C34   C36   A    
C57   H21   S    
O13   V1    S    
O5    C7    A    
O7    V1    S    
O6    C8    A    
C35   C41   A    
C8    C11   S    
O8    V2    S    
C69   C71   A    
C58   C60   A    
C65   H25   S    
C28   C36   A    
O11   V3    S    
O14   V4    S    
C36   C42   A    
C28   C30   A    
C51   C53   A    
C19   C24   A    
C66   H26   S    
C20   C23   A    
C15   C21   A    
C9    F1    S    
C21   C23   A    
C38   C39   A    
C10   F2    S    
C2    O12   A    
C67   C73   A    
C17   C19   A    
C49   F4    S    
C18   C20   A    
C62   H24   S    
O1    V3    S    
C59   H15   S    
C74   C76   A    
C30   H9    S    
C52   C56   A    
C73   C75   A    
O17   V3    S    
C13   C15   A    
C22   C24   A    
C31   C33   A    
C21   F5    S    
C34   C38   A    
C9    C19   A    
C62   C72   A    
C39   H13   S    
O8    C4    A    
C25   C29   A    
C23   H3    S    
C1    O11   A    
C44   C48   A    
O15   V3    S    
C27   C35   A    
C39   C41   A    
C72   C75   A    
C71   C76   A    
C3    C64   S    
C13   H1    S    
C52   C54   A    
C37   C40   A    
O10   V2    S    
C33   C35   A    
C10   C20   A    
C65   C67   A    
C68   C74   A    
C53   C59   A    
O3    V1    S    
C31   H8    S    
C43   C49   A    
C14   H2    S    
C45   C47   A    
C50   C52   A    
O18   V4    S    
C55   C58   A    
C60   H16   S    
C27   C29   A    
C46   H20   S    
O16   C6    A    
O1    C3    A    
C12   C14   A    
O6    V2    S    
C26   C30   A    
C58   H22   S    
O16   V4    S    
C1    C43   S    
C75   H29   S    
C16   C18   A    
C68   C70   A    
C57   C59   A    
O5    V1    S    
C7    C12   S    
O17   C7    A    
C45   C53   A    
O10   C6    A    
O18   C8    A    
O2    V4    S    
O15   C5    A    
V3    O19   S    
O13   V3    S    
C14   C16   A    
C62   C64   A    
C44   C50   A    
C5    C25   S    
O9    C5    A    
C9    C11   A    
C10   C12   A    
C70   C72   A    
O14   V2    S    
C51   C55   A    
C56   C57   A    
O2    C4    A    
C64   C66   A    
C22   F6    S    
O4    V2    S    
C33   C37   A    
C24   H4    S    
C40   C42   A    
C37   C38   A    
C49   C51   A    
C42   H6    S    
C46   C54   A    
C48   H17   S    
O12   V4    S    
C61   C71   A    
C43   C47   A    
C47   H18   S    
C67   C69   A    
C73   H27   S    
