data_mof_unit_28170.cif
_audit_creation_date              2013-03-05T16:06:20-0500
_audit_creation_method            fapswitch 2.2
_symmetry_space_group_name_H-M    P1
_symmetry_Int_Tables_number       1
_space_group_crystal_system       triclinic
_cell_length_a                    10.919068
_cell_length_b                    9.53095
_cell_length_c                    27.871742
_cell_angle_alpha                 89.709322
_cell_angle_beta                  90.214513
_cell_angle_gamma                 90.02457
_cell_volume                      2900.5289585

loop_
_atom_site_label
_atom_site_type_symbol
_atom_site_description
_atom_site_fract_x
_atom_site_fract_y
_atom_site_fract_z
_atom_type_partial_charge
O1    O     O_R   0.319640 0.618740 0.500000 -0.537662
O2    O     O_R   0.680360 0.381260 0.500000 -0.545262
O3    O     O_R   0.680360 0.618740 0.500000 -0.537941
O4    O     O_R   0.319640 0.381260 0.500000 -0.545570
C1    C     C_R   0.262245 0.499495 0.502273 0.867646
C2    C     C_R   0.737772 0.499597 0.497749 0.868685
O5    O     O_R   0.500020 0.618770 0.430260 -0.602985
O6    O     O_R   0.499980 0.381230 0.569740 -0.575942
O7    O     O_R   0.499980 0.618770 0.569740 -0.603012
O8    O     O_R   0.500020 0.381230 0.430260 -0.575983
C3    C     C_R   0.499719 0.500405 0.407517 0.896471
C4    C     C_R   0.500433 0.499680 0.592483 0.896756
Cu1   Cu    Cu3+1 0.500000 0.640660 0.500000 0.969116
Cu2   Cu    Cu3+1 0.500000 0.359340 0.500000 0.985012
C5    C     C_R   0.397467 0.513131 0.176654 0.618715
C6    C     C_R   0.612044 0.487654 0.822477 0.619057
O9    O     O_2   0.293933 0.546646 0.200301 -0.556584
O10   O     O_2   0.715536 0.519066 0.798341 -0.554582
N1    N     N_R   0.502937 0.486242 0.201740 -0.431111
N2    N     N_R   0.504255 0.468693 0.798140 -0.430900
C7    C     C_R   0.610553 0.460485 0.178389 0.635501
C8    C     C_R   0.397888 0.441159 0.822257 0.635920
C9    C     C_R   0.577395 0.588209 0.277838 0.423986
C10   C     C_R   0.426978 0.577610 0.723135 0.422312
C11   C     C_R   0.583650 0.585945 0.328269 -0.034652
C12   C     C_R   0.419516 0.580493 0.672674 -0.034468
C13   C     C_R   0.415039 0.417435 0.329628 0.297715
C14   C     C_R   0.587280 0.411466 0.669417 0.298102
C15   C     C_R   0.425431 0.401404 0.279596 0.322012
C16   C     C_R   0.577386 0.389648 0.719227 0.321797
C17   C     C_R   0.502020 0.491658 0.253453 0.049049
C18   C     C_R   0.502606 0.478318 0.746448 0.049790
C19   C     C_R   0.506980 0.486235 0.101561 -0.131201
C20   C     C_R   0.505970 0.463140 0.898303 -0.130945
C21   C     C_R   0.396629 0.507732 0.126359 -0.088968
C22   C     C_R   0.615591 0.475501 0.872554 -0.088834
C23   C     C_R   0.288824 0.531037 0.100619 -0.224086
C24   C     C_R   0.726795 0.469069 0.896910 -0.229450
C25   C     C_R   0.616516 0.470423 0.127964 -0.122990
C26   C     C_R   0.394879 0.446449 0.872883 -0.124347
C27   C     C_R   0.500563 0.501089 0.354522 -0.243134
C28   C     C_R   0.501567 0.497746 0.645478 -0.243935
H1    H     H_    0.204493 0.555871 0.119003 0.192895
H2    H     H_    0.811787 0.465524 0.877208 0.192883
C29   C     C_R   0.395590 0.468851 0.974514 0.001937
C30   C     C_R   0.621388 0.473194 0.025778 0.006796
C31   C     C_R   0.622100 0.465810 0.974460 -0.031650
C32   C     C_R   0.395352 0.491185 0.024856 -0.032467
C33   C     C_R   0.507995 0.467054 0.949322 0.017492
C34   C     C_R   0.507897 0.482408 0.050522 0.020823
C35   C     C_R   0.286856 0.441298 0.948659 -0.281651
C36   C     C_R   0.730008 0.480209 0.053557 -0.300870
C37   C     C_R   0.284937 0.434006 0.898619 0.452032
C38   C     C_R   0.728802 0.473366 0.103631 0.456750
O11   O     O_2   0.296069 0.408365 0.797160 -0.477944
O12   O     O_2   0.711019 0.424975 0.204031 -0.471630
C39   C     C_R   0.287513 0.528452 0.050708 0.406083
C40   C     C_R   0.731065 0.451029 0.946442 0.402334
H3    H     H_    0.201798 0.419185 0.966561 0.214799
H4    H     H_    0.818696 0.494808 0.038140 0.223101
C41   C     C_R   0.063829 0.369136 0.499272 0.295250
C42   C     C_R   0.937954 0.623645 0.494102 0.284980
C43   C     C_R   0.936132 0.369093 0.500563 0.296008
C44   C     C_R   0.062210 0.623381 0.506126 0.285559
C45   C     C_R   0.871880 0.497316 0.496631 -0.359069
C46   C     C_R   0.128159 0.497166 0.503392 -0.358461
C47   C     C_R   0.531807 0.074749 0.459836 -0.029557
C48   C     C_R   0.469834 0.925255 0.540316 -0.025980
C49   C     C_R   0.468326 0.073633 0.540178 -0.029702
C50   C     C_R   0.530207 0.926371 0.459690 -0.028596
H5    H     H_    0.558237 0.129938 0.427557 0.139854
H6    H     H_    0.446490 0.869925 0.572872 0.127307
H7    H     H_    0.442084 0.128004 0.572455 0.138086
H8    H     H_    0.553523 0.871856 0.427161 0.127084
N3    N     N_R   0.500000 0.852070 0.500000 -0.146790
N4    N     N_R   0.500000 0.147930 0.500000 -0.160250
O13   O     O_3   0.322473 0.349844 0.354639 -0.594176
C51   C     C_3   0.207251 0.409899 0.342528 0.097348
H9    H     H_    0.134554 0.335195 0.353579 0.140057
H10   H     H_    0.193827 0.426440 0.303334 0.210403
C52   C     C_3   0.186293 0.548153 0.368717 -0.886146
H11   H     H_    0.249792 0.630116 0.355140 0.246595
H12   H     H_    0.090736 0.584206 0.362733 0.207043
H13   H     H_    0.201586 0.533562 0.407644 0.242441
O14   O     O_3   0.679989 0.347356 0.643700 -0.594753
C53   C     C_3   0.794955 0.406978 0.656323 0.095748
H14   H     H_    0.868048 0.333797 0.644818 0.138617
H15   H     H_    0.808164 0.420067 0.695635 0.210424
C54   C     C_3   0.815452 0.547681 0.631150 -0.884459
H16   H     H_    0.750736 0.627682 0.644924 0.246644
H17   H     H_    0.910474 0.584428 0.637865 0.206314
H18   H     H_    0.801622 0.536210 0.592056 0.243006
O15   O     O_3   0.352425 0.306275 0.255419 -0.540019
C55   C     C_3   0.401545 0.170524 0.261632 0.072568
H19   H     H_    0.400915 0.138517 0.300116 0.162357
H20   H     H_    0.496975 0.165315 0.247694 0.139168
C56   C     C_3   0.323200 0.066882 0.233769 -0.772318
H21   H     H_    0.326773 0.091747 0.194820 0.250924
H22   H     H_    0.357354 0.958595 0.239686 0.184392
H23   H     H_    0.226717 0.072554 0.246099 0.257309
O16   O     O_3   0.650205 0.291222 0.742238 -0.541227
C57   C     C_3   0.601720 0.156213 0.734059 0.071425
H24   H     H_    0.601253 0.130504 0.695124 0.163188
H25   H     H_    0.506802 0.147841 0.748374 0.139766
C58   C     C_3   0.681684 0.048887 0.759826 -0.777625
H26   H     H_    0.678459 0.066445 0.799170 0.247982
H27   H     H_    0.648792 0.941282 0.752003 0.184203
H28   H     H_    0.777890 0.058461 0.747413 0.257484
C59   C     C_3   0.322164 0.670991 0.649627 -0.765680
H29   H     H_    0.307061 0.645910 0.611393 0.221189
H30   H     H_    0.233093 0.653766 0.667854 0.247943
H31   H     H_    0.347826 0.783205 0.652845 0.215853
C60   C     C_3   0.681140 0.673410 0.352285 -0.761140
H32   H     H_    0.695443 0.644568 0.390352 0.221075
H33   H     H_    0.770411 0.657147 0.334169 0.247228
H34   H     H_    0.656317 0.786075 0.349775 0.216017
O17   O     O_3   0.350849 0.662809 0.749831 -0.543922
C61   C     C_3   0.416917 0.783217 0.763767 0.049723
H35   H     H_    0.441775 0.847457 0.731774 0.135068
H36   H     H_    0.501631 0.754922 0.784005 0.147209
C62   C     C_3   0.337219 0.871761 0.796403 -0.768499
H37   H     H_    0.311571 0.810216 0.828811 0.241988
H38   H     H_    0.388278 0.966901 0.807709 0.205132
H39   H     H_    0.252697 0.904461 0.777086 0.253972
O18   O     O_3   0.654603 0.675758 0.252192 -0.543178
C63   C     C_3   0.589104 0.797290 0.238642 0.050158
H40   H     H_    0.560535 0.857431 0.270880 0.134303
H41   H     H_    0.506710 0.770608 0.216855 0.146921
C64   C     C_3   0.671283 0.890448 0.208196 -0.775873
H42   H     H_    0.700280 0.833190 0.175543 0.242242
H43   H     H_    0.620765 0.986484 0.197161 0.205016
H44   H     H_    0.753755 0.921351 0.229065 0.253524
O19   O     O_3   0.175139 0.411293 0.874893 -0.541642
C65   C     C_3   0.099024 0.530814 0.878909 0.048112
H45   H     H_    0.149588 0.629747 0.887379 0.121893
H46   H     H_    0.030697 0.511368 0.907580 0.187925
C66   C     C_3   0.031918 0.554434 0.831600 -0.675591
H47   H     H_    0.983510 0.457197 0.820607 0.268938
H48   H     H_    0.964095 0.640348 0.835583 0.195969
H49   H     H_    0.098147 0.584431 0.803198 0.279280
O20   O     O_3   0.838247 0.469555 0.128989 -0.530562
C67   C     C_3   0.901226 0.598589 0.124101 0.039183
H50   H     H_    0.839304 0.689856 0.117236 0.116193
H51   H     H_    0.967673 0.590649 0.094153 0.175584
C68   C     C_3   0.971559 0.627856 0.170194 -0.675041
H52   H     H_    0.032923 0.538374 0.178948 0.275029
H53   H     H_    0.027615 0.724301 0.165830 0.186439
H54   H     H_    0.906485 0.643213 0.200252 0.277838
O21   O     O_3   0.180427 0.570779 0.028336 -0.600925
C69   C     C_3   0.189534 0.715175 0.017309 0.048813
H55   H     H_    0.261364 0.733774 0.989723 0.150646
H56   H     H_    0.211165 0.777990 0.049922 0.144358
C70   C     C_3   0.067644 0.766447 0.997315 -0.790742
H57   H     H_    0.995086 0.756144 0.024924 0.234970
H58   H     H_    0.075633 0.878339 0.986559 0.199049
H59   H     H_    0.041185 0.704040 0.965440 0.247607
O22   O     O_3   0.843018 0.412404 0.965392 -0.609862
C71   C     C_3   0.845258 0.264925 0.970550 0.055746
H60   H     H_    0.832497 0.212528 0.935211 0.152676
H61   H     H_    0.772743 0.228449 0.995724 0.153187
C72   C     C_3   0.968745 0.220717 0.990927 -0.755807
H62   H     H_    0.987436 0.277089 0.024974 0.267980
H63   H     H_    0.968543 0.106137 0.998193 0.191381
H64   H     H_    0.042122 0.244948 0.964717 0.249997
O23   O     O_3   0.123992 0.241484 0.498806 -0.551591
C73   C     C_3   0.134452 0.196656 0.450798 0.095958
H65   H     H_    0.201006 0.263696 0.431357 0.195342
H66   H     H_    0.044816 0.198878 0.431537 0.142828
C74   C     C_3   0.181861 0.047178 0.450283 -0.732294
H67   H     H_    0.118049 0.979145 0.470468 0.281632
H68   H     H_    0.188966 0.009304 0.412786 0.188692
H69   H     H_    0.273106 0.041747 0.467618 0.264158
O24   O     O_3   0.881863 0.748314 0.480999 -0.547773
C75   C     C_3   0.922092 0.784253 0.434270 0.093592
H70   H     H_    0.895955 0.701646 0.408185 0.123444
H71   H     H_    0.023230 0.796422 0.432660 0.164856
C76   C     C_3   0.864891 0.922455 0.418578 -0.800898
H72   H     H_    0.892127 0.007401 0.443415 0.282516
H73   H     H_    0.896247 0.950025 0.381870 0.198963
H74   H     H_    0.763976 0.913444 0.418324 0.240696
O25   O     O_3   0.875933 0.241369 0.500885 -0.552094
C77   C     C_3   0.865461 0.194656 0.548844 0.094910
H75   H     H_    0.798266 0.260321 0.568207 0.198141
H76   H     H_    0.954910 0.197083 0.568239 0.142318
C78   C     C_3   0.819087 0.044684 0.549248 -0.732340
H77   H     H_    0.884387 0.977671 0.529661 0.281986
H78   H     H_    0.810596 0.006098 0.586748 0.188749
H79   H     H_    0.728638 0.038555 0.531301 0.264805
O26   O     O_3   0.118461 0.747538 0.519331 -0.547776
C79   C     C_3   0.078961 0.781250 0.566223 0.092668
H80   H     H_    0.106099 0.697763 0.592122 0.123671
H81   H     H_    0.977779 0.792731 0.568115 0.164469
C80   C     C_3   0.135824 0.919219 0.581932 -0.800731
H82   H     H_    0.108856 0.004747 0.556985 0.281985
H83   H     H_    0.103969 0.945815 0.618561 0.198967
H84   H     H_    0.236741 0.910370 0.582429 0.240052

loop_
_geom_bond_atom_site_label_1
_geom_bond_atom_site_label_2
_geom_bond_distance
_ccdc_geom_bond_type
O5    Cu1   1.955993 S    
C71   H61   1.114256 S    
C43   C45   1.412973 A    
O15   C55   1.410427 S    
C43   O25   1.383218 S    
C13   C15   1.408615 A    
C74   H67   1.105121 S    
C58   H26   1.110808 S    
O3    C2    1.299239 A    
N1    C17   1.442601 S    
C52   H13   1.105214 S    
C65   C66   1.521871 S    
C56   H21   1.110781 S    
O21   C69   1.412154 S    
C32   C39   1.428676 A    
C31   C33   1.427151 A    
O25   C77   1.411804 S    
C48   N3    1.366975 A    
O5    C3    1.296810 A    
C66   H48   1.110552 S    
C10   O17   1.383965 S    
O23   C73   1.411729 S    
C57   C58   1.520895 S    
O1    C1    1.298996 A    
N1    C7    1.368287 A    
C10   C12   1.408631 A    
C60   H32   1.105233 S    
C59   H30   1.110706 S    
C68   H52   1.110403 S    
C75   H70   1.110830 S    
C51   H10   1.112112 S    
C78   H78   1.110439 S    
C25   C38   1.403567 A    
C29   C35   1.411787 A    
C30   C36   1.415691 A    
C49   N4    1.367370 A    
C56   H22   1.108873 S    
C14   C28   1.409882 A    
C41   C43   1.394932 A    
O7    Cu1   1.953888 S    
C61   H35   1.113473 S    
C62   H39   1.110663 S    
C42   C44   1.396322 A    
C36   H4    1.069659 S    
C71   C72   1.520027 S    
C68   H53   1.110554 S    
C24   C40   1.390959 A    
C41   C46   1.412685 A    
C2    C45   1.464960 S    
Cu1   N3    2.014938 S    
C48   C49   1.414272 A    
C76   H73   1.110341 S    
C69   C70   1.520848 S    
C39   O21   1.382436 S    
C50   H8    1.078619 S    
C47   H5    1.079993 S    
C4    C28   1.477115 S    
C49   H7    1.080161 S    
C54   H17   1.110462 S    
C20   C22   1.402539 A    
O3    Cu1   1.980503 S    
C6    N2    1.368591 A    
C9    O18   1.384125 S    
C64   H44   1.110659 S    
C76   H74   1.105198 S    
C32   C34   1.421901 A    
O24   C75   1.416424 S    
Cu1   Cu2   2.681247 S    
C73   H66   1.114690 S    
C74   H68   1.110420 S    
C67   C68   1.521216 S    
C73   H65   1.108611 S    
O2    C2    1.291495 A    
C5    C21   1.403010 A    
C72   H63   1.109665 S    
C36   C38   1.396945 A    
C52   H11   1.110272 S    
C35   H3    1.076202 S    
C61   H36   1.114131 S    
C66   H49   1.110483 S    
C53   H15   1.112273 S    
C16   C18   1.402962 A    
O16   C57   1.410495 S    
C37   O19   1.384473 S    
O8    Cu2   1.953888 S    
C59   H31   1.109475 S    
C11   C27   1.418059 A    
C53   H14   1.109482 S    
C63   H41   1.113592 S    
C78   H79   1.107059 S    
C65   H46   1.110126 S    
O6    Cu2   1.955993 S    
C55   C56   1.520770 S    
C80   H83   1.110344 S    
C19   C34   1.423257 A    
O13   C51   1.421236 S    
C42   O24   1.383789 S    
C40   O22   1.379275 S    
O22   C71   1.412441 S    
C48   H6    1.078503 S    
C35   C37   1.396871 A    
C77   C78   1.516211 S    
C9    C17   1.409823 A    
C23   H1    1.082335 S    
C5    N1    1.368654 A    
C10   C18   1.410709 A    
C79   H80   1.111218 S    
C24   H2    1.080715 S    
C69   H56   1.115464 S    
C11   C60   1.508541 S    
O19   C65   1.415530 S    
C58   H27   1.108915 S    
C13   C27   1.410416 A    
C7    C25   1.409881 A    
C29   C33   1.416453 A    
O6    C4    1.297519 A    
C80   H84   1.105214 S    
C8    C26   1.412691 A    
C55   H19   1.113722 S    
C19   C25   1.409678 A    
C58   H28   1.110790 S    
C54   H18   1.105420 S    
C55   H20   1.114643 S    
C12   C59   1.508838 S    
C44   C46   1.404818 A    
C62   H37   1.111213 S    
C8    O11   1.348751 S    
C75   C76   1.519604 S    
C76   H72   1.107732 S    
N2    C8    1.368724 A    
C26   C37   1.405404 A    
O18   C63   1.410691 S    
C74   H69   1.106766 S    
C67   H51   1.110881 S    
C79   C80   1.519707 S    
C70   H58   1.109794 S    
C14   O14   1.386454 S    
C72   H64   1.109702 S    
C68   H54   1.110830 S    
C12   C28   1.418076 A    
C64   H42   1.110721 S    
N2    C18   1.443242 S    
C29   C32   1.420245 A    
O26   C79   1.416330 S    
C5    O9    1.349982 S    
C30   C31   1.432454 A    
C20   C33   1.422756 A    
C79   H81   1.111741 S    
C56   H23   1.110781 S    
C42   C45   1.404975 A    
C21   C23   1.393545 A    
C51   H9    1.109510 S    
C1    C46   1.464694 S    
C13   O13   1.386604 S    
C53   C54   1.527114 S    
O14   C53   1.421484 S    
C52   H12   1.110391 S    
C7    O12   1.349338 S    
C65   H45   1.118265 S    
C66   H47   1.110584 S    
C30   C34   1.423419 A    
C63   C64   1.520200 S    
C57   H25   1.114634 S    
C44   O26   1.383872 S    
C47   C50   1.414304 A    
C60   H34   1.109398 S    
C22   C24   1.390119 A    
C70   H57   1.110486 S    
C14   C16   1.407276 A    
C15   C17   1.402802 A    
C72   H62   1.111065 S    
O20   C67   1.414986 S    
C6    C22   1.400336 A    
C31   C40   1.433016 A    
C15   O15   1.383168 S    
C51   C52   1.527323 S    
C78   H77   1.105076 S    
C71   H60   1.114838 S    
C63   H40   1.113863 S    
C16   O16   1.383577 S    
C70   H59   1.108978 S    
C19   C21   1.406920 A    
C75   H71   1.111405 S    
C3    C27   1.477119 S    
C41   O23   1.383054 S    
C9    C11   1.407065 A    
O4    Cu2   1.980503 S    
C57   H24   1.113714 S    
O2    Cu2   1.980324 S    
O7    C4    1.297236 A    
C77   H76   1.114822 S    
C62   H38   1.110634 S    
O8    C3    1.297944 A    
O4    C1    1.291622 A    
C38   O20   1.386518 S    
O1    Cu1   1.980324 S    
C73   C74   1.516162 S    
C6    O10   1.350008 S    
C80   H82   1.107977 S    
C59   H29   1.105074 S    
C50   N3    1.366396 A    
C67   H50   1.117260 S    
C20   C26   1.411804 A    
C47   N4    1.367954 A    
C64   H43   1.110393 S    
C54   H16   1.110658 S    
O17   C61   1.410666 S    
C61   C62   1.520275 S    
C23   C39   1.391472 A    
C77   H75   1.108176 S    
Cu2   N4    2.014939 S    
C69   H55   1.113883 S    
C60   H33   1.110730 S    
