data_mof_unit_21910.cif
_audit_creation_date              2013-03-05T16:19:21-0500
_audit_creation_method            fapswitch 2.2
_symmetry_space_group_name_H-M    P1
_symmetry_Int_Tables_number       1
_space_group_crystal_system       triclinic
_cell_length_a                    10.719493
_cell_length_b                    9.677191
_cell_length_c                    23.442242
_cell_angle_alpha                 90.069481
_cell_angle_beta                  90.015651
_cell_angle_gamma                 89.991926
_cell_volume                      2431.76925308

loop_
_atom_site_label
_atom_site_type_symbol
_atom_site_description
_atom_site_fract_x
_atom_site_fract_y
_atom_site_fract_z
_atom_type_partial_charge
O1    O     O_R   0.314910 0.616040 0.499990 -0.637697
O2    O     O_R   0.314910 0.383960 0.499990 -0.637971
C1    C     C_R   0.259116 0.500019 0.505082 0.881995
O3    O     O_R   0.500080 0.616070 0.416130 -0.623645
O4    O     O_R   0.500080 0.383930 0.416130 -0.626124
C2    C     C_R   0.499846 0.499889 0.389210 0.906086
Zn1   Zn    Zn3+2 0.500150 0.654960 0.499970 0.903819
Zn2   Zn    Zn3+2 0.500150 0.345040 0.499970 0.903400
O5    O     O_R   0.685320 0.616040 0.499970 -0.617812
O6    O     O_R   0.685320 0.383960 0.499970 -0.617384
O7    O     O_R   0.500150 0.616010 0.583820 -0.638229
O8    O     O_R   0.500150 0.383990 0.583820 -0.638176
C3    C     C_R   0.742325 0.500014 0.506938 0.881073
C4    C     C_R   0.499762 0.500095 0.610741 0.846523
C5    C     C_R   0.607060 0.481775 0.879818 0.505194
N1    N     N_R   0.496691 0.501839 0.852035 -0.358183
C6    C     C_R   0.387257 0.522759 0.880105 0.508874
C7    C     C_R   0.385081 0.523982 0.939527 -0.048458
C8    C     C_R   0.496968 0.503052 0.969828 -0.059605
C9    C     C_R   0.611036 0.481289 0.940044 -0.024005
C10   C     C_R   0.272964 0.545745 0.968662 -0.155874
C11   C     C_R   0.268264 0.546950 0.028172 0.166191
C12   C     C_R   0.380126 0.524822 0.059744 -0.024910
C13   C     C_R   0.494284 0.503714 0.029948 -0.058513
C14   C     C_R   0.606243 0.483210 0.060236 -0.048834
C15   C     C_R   0.718467 0.462149 0.031120 -0.157386
C16   C     C_R   0.723068 0.460181 0.971621 0.167173
C17   C     C_R   0.383843 0.522389 0.119971 0.506154
N2    N     N_R   0.494128 0.501607 0.147709 -0.351079
C18   C     C_R   0.603946 0.483471 0.119634 0.509636
O9    O     O_2   0.711363 0.463343 0.848625 -0.564178
O10   O     O_2   0.280841 0.541825 0.850265 -0.560097
H1    H     H_    0.187630 0.562055 0.944770 0.191857
O11   O     O_2   0.279442 0.539599 0.151205 -0.564392
O12   O     O_2   0.710464 0.465160 0.149482 -0.562409
H2    H     H_    0.803877 0.446390 0.055018 0.192048
C19   C     C_R   0.506390 0.623768 0.237953 -0.148582
H3    H     H_    0.514263 0.720277 0.214887 0.142838
C20   C     C_R   0.508048 0.624240 0.297055 -0.228080
H4    H     H_    0.517237 0.722042 0.319176 0.156535
C21   C     C_R   0.498390 0.499468 0.327037 -0.091590
C22   C     C_R   0.486567 0.374170 0.297290 -0.218644
C23   C     C_R   0.484405 0.373007 0.237796 0.245461
C24   C     C_R   0.494791 0.499086 0.208398 0.328921
C25   C     C_R   0.498460 0.375594 0.762085 -0.103725
C26   C     C_R   0.499415 0.374935 0.702893 -0.226004
H5    H     H_    0.501598 0.276598 0.680774 0.149573
C27   C     C_R   0.498058 0.500429 0.672870 -0.037037
C28   C     C_R   0.494893 0.626340 0.702705 -0.226150
H6    H     H_    0.493558 0.724381 0.680449 0.149715
C29   C     C_R   0.493766 0.626562 0.761885 -0.103787
C30   C     C_R   0.495864 0.501311 0.791405 0.333449
C31   C     C_3   0.077094 0.633503 0.541645 0.032879
C32   C     C_3   0.077121 0.366650 0.541585 0.033774
H7    H     H_    0.106991 0.720586 0.513604 0.180120
H8    H     H_    0.107046 0.279479 0.513505 0.180031
C33   C     C_3   0.932617 0.631279 0.544684 -0.005188
C34   C     C_3   0.932645 0.368865 0.544620 -0.005370
H9    H     H_    0.902573 0.619075 0.589876 0.151041
H10   H     H_    0.902586 0.381208 0.589816 0.151319
H11   H     H_    0.106936 0.592321 0.425421 0.187247
H12   H     H_    0.106966 0.407466 0.425379 0.186670
C35   C     C_3   0.072997 0.499930 0.449134 -0.528482
C36   C     C_3   0.124286 0.500031 0.511132 0.069715
C37   C     C_3   0.880554 0.500019 0.510986 0.047186
C38   C     C_3   0.930675 0.499925 0.449156 -0.394824
C39   C     C_3   0.376783 0.081536 0.480825 -0.235021
C40   C     C_3   0.376793 0.918402 0.480810 -0.234373
H13   H     H_    0.352312 0.120471 0.437604 0.145428
H14   H     H_    0.352372 0.879270 0.437577 0.147087
H15   H     H_    0.302408 0.119086 0.510059 0.149177
H16   H     H_    0.302391 0.881000 0.510019 0.148821
H17   H     H_    0.574235 0.119093 0.414633 0.147724
H18   H     H_    0.574379 0.880367 0.414657 0.146046
C41   C     C_3   0.593294 0.080983 0.458524 -0.235569
C42   C     C_3   0.593336 0.918775 0.458545 -0.235733
C43   C     C_3   0.525225 0.081172 0.556358 -0.226507
C44   C     C_3   0.525177 0.919133 0.556362 -0.226846
N3    N     N_3   0.499750 0.138610 0.498760 -0.033785
N4    N     N_3   0.499750 0.861390 0.498760 -0.033694
H19   H     H_    0.615392 0.119792 0.572752 0.137616
H20   H     H_    0.615291 0.880514 0.572785 0.137682
H21   H     H_    0.453362 0.118772 0.586903 0.146573
H22   H     H_    0.453253 0.881769 0.586883 0.146107
H23   H     H_    0.687214 0.118670 0.469499 0.159091
H24   H     H_    0.687260 0.881202 0.469563 0.158920
H25   H     H_    0.491912 0.723671 0.784907 0.133246
C45   C     C_3   0.135866 0.666301 0.600503 -0.931245
H26   H     H_    0.088312 0.612197 0.635862 0.253535
H27   H     H_    0.236546 0.640748 0.602088 0.258369
H28   H     H_    0.126730 0.778675 0.609269 0.236264
C46   C     C_3   0.135885 0.334045 0.600432 -0.932895
H29   H     H_    0.236540 0.359685 0.602048 0.258516
H30   H     H_    0.088262 0.388201 0.635817 0.253264
H31   H     H_    0.126842 0.221686 0.609133 0.236223
C47   C     C_3   0.885211 0.775473 0.526973 -0.931246
H32   H     H_    0.883683 0.787293 0.479971 0.246335
H33   H     H_    0.793203 0.795207 0.546026 0.254691
H34   H     H_    0.945551 0.858342 0.544822 0.230617
C48   C     C_3   0.885278 0.224612 0.526839 -0.931019
H35   H     H_    0.883683 0.212669 0.479832 0.246442
H36   H     H_    0.945675 0.141799 0.544624 0.230588
H37   H     H_    0.793304 0.204906 0.545910 0.254689
H38   H     H_    0.896106 0.591678 0.425429 0.182638
H39   H     H_    0.896134 0.408098 0.425385 0.183020
C49   C     C_3   0.142539 0.572809 0.055431 -0.775079
H40   H     H_    0.113908 0.481677 0.080990 0.268877
H41   H     H_    0.146485 0.666894 0.082507 0.270192
H42   H     H_    0.068146 0.590684 0.023289 0.201397
C50   C     C_3   0.848881 0.434583 0.944396 -0.774851
H43   H     H_    0.876822 0.525218 0.918381 0.269241
H44   H     H_    0.923510 0.418238 0.976563 0.201214
H45   H     H_    0.845491 0.339701 0.917783 0.269778
H46   H     H_    0.478495 0.277535 0.320308 0.151138
C51   C     C_3   0.470626 0.238635 0.206010 -0.899568
H47   H     H_    0.385695 0.241992 0.178931 0.253397
H48   H     H_    0.553440 0.221258 0.178509 0.257347
H49   H     H_    0.462086 0.149533 0.235582 0.229242
H50   H     H_    0.499978 0.278840 0.785269 0.132822

loop_
_geom_bond_atom_site_label_1
_geom_bond_atom_site_label_2
_geom_bond_distance
_ccdc_geom_bond_type
C40   N4    1.489538 S    
C43   C44   1.568081 S    
C7    C10   1.398302 A    
C21   C22   1.403751 A    
C8    C9    1.423727 A    
C41   C42   1.569719 S    
C20   C21   1.401694 A    
C3    C37   1.484758 S    
C1    C36   1.452286 S    
Zn1   O7    2.001892 S    
C15   C16   1.395763 A    
N2    C18   1.360085 A    
H18   C42   1.112154 S    
C18   O12   1.350748 S    
C17   N2    1.364065 A    
O4    C2    1.288101 A    
O7    C4    1.287750 A    
C44   N4    1.485899 S    
C33   H9    1.113786 S    
C10   H1    1.084075 S    
C49   H40   1.110130 S    
C43   H21   1.112709 S    
C34   H10   1.113786 S    
C51   H47   1.110218 S    
C47   H34   1.111633 S    
C7    C8    1.408513 A    
H11   C35   1.114527 S    
O5    C3    1.288787 A    
C50   H43   1.110130 S    
C46   H29   1.107792 S    
C23   C51   1.505190 S    
C22   H46   1.083711 S    
C16   C50   1.512460 S    
N1    C6    1.360198 A    
C51   H48   1.109926 S    
C33   C47   1.542344 S    
C47   H33   1.099402 S    
Zn2   N3    1.997836 S    
N1    C30   1.421336 S    
C12   C13   1.423774 A    
C40   H16   1.112171 S    
C25   H50   1.083297 S    
C43   N3    1.486007 S    
C35   C38   1.525616 S    
C17   O11   1.347746 S    
C10   C11   1.396024 A    
H17   C41   1.112281 S    
O3    Zn1   2.000657 S    
C48   H36   1.111633 S    
C41   H23   1.101156 S    
C26   C27   1.404435 A    
C31   H7    1.116475 S    
C5    C9    1.412482 A    
C32   H8    1.116474 S    
C29   C30   1.396614 A    
C38   H38   1.111781 S    
C34   C48   1.542376 S    
C13   C14   1.408437 A    
O3    C2    1.288641 A    
C29   H25   1.083302 S    
C20   H4    1.083127 S    
C31   C33   1.550534 S    
C4    C27   1.456565 S    
C25   C30   1.396873 A    
C28   C29   1.387374 A    
C14   C15   1.398080 A    
C11   C49   1.512359 S    
C2    C21   1.457559 S    
C48   H37   1.099438 S    
C39   C40   1.578680 S    
O1    C1    1.277926 A    
C23   C24   1.406435 A    
C32   C46   1.549159 S    
C19   H3    1.083056 S    
C44   H22   1.112704 S    
C44   H20   1.105007 S    
C34   C37   1.595710 S    
C45   H28   1.110784 S    
C43   H19   1.105046 S    
Zn2   O8    2.000994 S    
C51   H49   1.110833 S    
C47   H32   1.108001 S    
H12   C35   1.114535 S    
C46   H30   1.105642 S    
C6    C7    1.393215 A    
C39   N3    1.489522 S    
C12   C17   1.412625 A    
C50   H45   1.110053 S    
C15   H2    1.084083 S    
C27   C28   1.404590 A    
C45   H27   1.107798 S    
C28   H6    1.083403 S    
N2    C24   1.422938 S    
C6    O10   1.350721 S    
C22   C23   1.394898 A    
C38   H39   1.111776 S    
C42   H24   1.101169 S    
C32   C34   1.550511 S    
C14   C18   1.392637 A    
Zn1   O5    2.020294 S    
C26   H5    1.083424 S    
O1    Zn1   2.021134 S    
O2    Zn2   2.021029 S    
C42   N4    1.485089 S    
C33   C37   1.595780 S    
O6    C3    1.288824 A    
O4    Zn2   2.001554 S    
C5    O9    1.347848 S    
C9    C16   1.425377 A    
C19   C24   1.396155 A    
O2    C1    1.277844 A    
O8    C4    1.288019 A    
C19   C20   1.385597 A    
C49   H41   1.110064 S    
C48   H35   1.107999 S    
C31   C36   1.560011 S    
C8    C13   1.409644 A    
C31   C45   1.549154 S    
C39   H15   1.112169 S    
C46   H31   1.110786 S    
C50   H44   1.110646 S    
C35   C36   1.553747 S    
C25   C26   1.387648 A    
C45   H26   1.105632 S    
C32   C36   1.560099 S    
Zn2   O6    2.020399 S    
C37   C38   1.545943 S    
C40   H14   1.112664 S    
C11   C12   1.425240 A    
C39   H13   1.112690 S    
C41   N3    1.485006 S    
C5    N1    1.364341 A    
Zn1   N4    1.997903 S    
C49   H42   1.110648 S    
