data_mof_unit_43219.cif
_audit_creation_date              2012-12-10T20:26:29-0500
_audit_creation_method            fapswitch 2.2
_symmetry_space_group_name_H-M    P1
_symmetry_Int_Tables_number       1
_space_group_crystal_system       triclinic
_cell_length_a                    10.696939
_cell_length_b                    10.680025
_cell_length_c                    9.865564
_cell_angle_alpha                 89.87552
_cell_angle_beta                  89.79518
_cell_angle_gamma                 90.104599
_cell_volume                      1127.06555441

loop_
_atom_site_label
_atom_site_type_symbol
_atom_type_description
_atom_site_fract_x
_atom_site_fract_y
_atom_site_fract_z
_atom_type_partial_charge
C1    C     C_R   0.503806 0.259906 0.500094 0.872644
C2    C     C_R   0.562120 0.589604 0.071530 -0.121309
C3    C     C_R   0.562174 0.589584 0.927552 -0.131168
C4    C     C_R   0.262723 0.508902 0.500215 0.964150
C5    C     C_R   0.446597 0.403414 0.929096 0.217644
C6    C     C_3   0.312725 0.364545 0.924674 -0.521943
C7    C     C_3   0.313835 0.362754 0.078455 -0.490712
C8    C     C_R   0.504257 0.740028 0.499855 0.875444
C9    C     C_R   0.737518 0.500179 0.499636 0.951041
C10   C     C_2   0.929869 0.566614 0.402243 -0.280359
C11   C     C_2   0.869772 0.500606 0.497594 -0.367121
C12   C     C_R   0.524028 0.128523 0.500492 -0.100782
C13   C     C_2   0.065922 0.563672 0.392386 0.488410
C14   C     C_2   0.131684 0.533832 0.503312 -0.383721
C15   C     C_R   0.524290 0.063472 0.622883 0.139352
C16   C     C_R   0.548146 0.065069 0.378791 -0.225526
C17   C     C_R   0.548534 0.935552 0.378671 -0.223075
C18   C     C_R   0.524787 0.871350 0.500247 -0.097081
C19   C     C_R   0.524859 0.935711 0.622786 0.123141
C20   C     C_3   0.436146 0.927599 0.739927 -0.467624
C21   C     C_3   0.435065 0.069451 0.739619 -0.493422
C22   C     C_R   0.447111 0.403078 0.071643 0.207372
H1    H     H_    0.878050 0.619103 0.326391 0.160848
H2    H     H_    0.089105 0.530589 0.603210 0.109092
H3    H     H_    0.557839 0.114313 0.283189 0.170770
H4    H     H_    0.558417 0.886828 0.283033 0.166127
H5    H     H_    0.344620 0.885415 0.712149 0.207664
H6    H     H_    0.480818 0.886986 0.831574 0.200788
H7    H     H_    0.343011 0.109521 0.710781 0.198974
H8    H     H_    0.060652 0.607838 0.201345 0.319726
H9    H     H_    0.478648 0.110864 0.831355 0.203731
H10   H     H_    0.610339 0.663246 0.125465 0.135580
H11   H     H_    0.610457 0.663201 0.872929 0.145158
H12   H     H_    0.251155 0.438342 0.881762 0.224038
H13   H     H_    0.300008 0.270216 0.879931 0.198022
H14   H     H_    0.252064 0.434645 0.124101 0.264872
H15   H     H_    0.303567 0.267192 0.122014 0.198427
H16   H     H_    0.915637 0.443521 0.573416 0.140661
N1    N     N_R   0.499170 0.499140 0.142800 -0.100288
N2    N     N_R   0.499170 0.499180 0.857150 -0.104098
O1    O     O_R   0.500020 0.316790 0.614690 -0.616923
O2    O     O_R   0.500000 0.316760 0.385350 -0.628840
O3    O     O_R   0.319080 0.500020 0.614640 -0.637664
O4    O     O_R   0.319070 0.499980 0.385300 -0.547894
O5    O     O_R   0.500000 0.683240 0.614650 -0.625642
O6    O     O_R   0.499980 0.683210 0.385310 -0.622979
O7    O     O_R   0.680930 0.500020 0.614700 -0.620661
O8    O     O_R   0.680920 0.499980 0.385360 -0.617416
O9    O     O_3   0.125134 0.591122 0.271000 -0.762492
Zn1   Zn    Zn3+2 0.500010 0.500020 0.653130 0.939420
Zn2   Zn    Zn3+2 0.499990 0.499980 0.346870 0.965643

loop_
_geom_bond_atom_site_label_1
_geom_bond_atom_site_label_2
_ccdc_geom_bond_type
C17   C18   A    
C11   H16   S    
N1    Zn2   S    
O3    Zn1   S    
C21   H7    S    
C6    C7    S    
C4    O3    A    
C10   H1    S    
C7    C22   S    
C21   H9    S    
C7    H14   S    
O1    Zn1   S    
C19   C20   S    
C12   C15   A    
O2    Zn2   S    
C2    C3    A    
C7    H15   S    
C13   C14   D    
C6    H13   S    
C15   C19   A    
C9    C11   S    
C13   O9    S    
C1    C12   S    
C4    O4    A    
O5    Zn1   S    
N2    Zn1   S    
C17   H4    S    
C2    N1    A    
O4    Zn2   S    
C1    O1    A    
C20   H5    S    
H8    O9    S    
C3    N2    A    
C9    O7    A    
O7    Zn1   S    
C4    C14   S    
C5    C6    S    
C8    O6    A    
C10   C11   D    
C3    H11   S    
C12   C16   A    
C1    O2    A    
C15   C21   S    
C20   C21   S    
C9    O8    A    
C2    H10   S    
C18   C19   A    
C5    N2    A    
C14   H2    S    
C16   H3    S    
C8    O5    A    
C20   H6    S    
C22   N1    A    
O6    Zn2   S    
O8    Zn2   S    
C8    C18   S    
C5    C22   A    
C6    H12   S    
C16   C17   A    
C10   C13   S    
