data_mof_unit_65543.cif
_audit_creation_date              2012-12-10T20:01:51-0500
_audit_creation_method            fapswitch 2.2
_symmetry_space_group_name_H-M    P1
_symmetry_Int_Tables_number       1
_space_group_crystal_system       triclinic
_cell_length_a                    27.226854
_cell_length_b                    27.268701
_cell_length_c                    27.451952
_cell_angle_alpha                 108.093119
_cell_angle_beta                  112.291615
_cell_angle_gamma                 107.72937
_cell_volume                      15723.9534839

loop_
_atom_site_label
_atom_site_type_symbol
_atom_type_description
_atom_site_fract_x
_atom_site_fract_y
_atom_site_fract_z
_atom_type_partial_charge
C1    C     C_R   0.080493 0.080578 0.499892 0.900160
C2    C     C_1   0.159927 0.162319 0.498674 0.066608
C3    C     C_1   0.123636 0.124690 0.499096 -0.095812
C4    C     C_R   0.084594 0.000073 0.584679 0.864603
C5    C     C_1   0.374978 0.374121 0.499253 -0.098326
C6    C     C_R   0.683144 0.932212 0.193894 -0.097335
C7    C     C_R   0.699594 0.967955 0.169307 0.006270
C8    C     C_R   0.760275 0.005434 0.190791 -0.105779
C9    C     C_R   0.805667 0.013209 0.243554 -0.093359
C10   C     C_R   0.788534 0.983231 0.272754 -0.033528
C11   C     C_R   0.728480 0.940094 0.246771 -0.098511
C12   C     C_1   0.356615 0.999950 0.856776 -0.177119
C13   C     C_1   0.654942 0.978354 0.134014 0.041774
C14   C     C_1   0.833844 0.992696 0.326999 0.060933
C15   C     C_1   0.872215 0.998221 0.370588 -0.085278
C16   C     C_R   0.919240 0.919385 0.499907 0.897727
C17   C     C_1   0.617903 0.988939 0.107044 -0.113578
C18   C     C_R   0.720721 0.690889 0.455627 0.464391
C19   C     C_R   0.708505 0.707370 0.501939 -0.141526
C20   C     C_R   0.737099 0.766806 0.546042 -0.195557
C21   C     C_R   0.775633 0.810301 0.541041 0.460013
C22   C     C_R   0.788199 0.793790 0.494998 -0.144144
C23   C     C_R   0.243019 0.243757 0.443333 -0.095584
C24   C     C_R   0.759162 0.734417 0.450563 -0.199095
C25   C     C_1   0.663161 0.662748 0.501097 0.104801
C26   C     C_1   0.834701 0.838174 0.496777 0.104299
C27   C     C_1   0.873604 0.875331 0.498434 -0.129948
C28   C     C_R   0.917813 0.999863 0.417599 0.911218
C29   C     C_1   0.625410 0.625358 0.500394 -0.140458
C30   C     C_R   0.492706 0.919356 0.912112 0.899944
C31   C     C_R   0.406631 0.999915 0.906731 0.866296
C32   C     C_R   0.489773 0.080527 0.070530 0.888506
C33   C     C_R   0.573527 0.999316 0.073008 0.898010
C34   C     C_R   0.294142 0.290896 0.498750 -0.022055
C35   C     C_R   0.501381 0.418943 0.420276 0.915976
C36   C     C_R   0.418932 0.418916 0.499941 0.923766
C37   C     C_R   0.498516 0.580956 0.579707 0.916669
C38   C     C_R   0.581129 0.581081 0.500050 0.914502
C39   C     C_R   0.544869 0.769184 0.732185 -0.154493
C40   C     C_1   0.134580 0.000189 0.634810 -0.178573
C41   C     C_R   0.499747 0.710084 0.703337 -0.135299
C42   C     C_R   0.455425 0.694286 0.718063 0.424390
C43   C     C_R   0.457554 0.736968 0.764226 0.422191
C44   C     C_R   0.500680 0.796097 0.791799 -0.137155
C45   C     C_R   0.300423 0.296895 0.554084 -0.095354
C46   C     C_R   0.544737 0.812984 0.776373 -0.159736
C47   C     C_1   0.499327 0.664277 0.659724 0.116998
C48   C     C_1   0.497303 0.839266 0.834253 0.107030
C49   C     C_1   0.494718 0.875573 0.869735 -0.124044
C50   C     C_1   0.498842 0.625974 0.623164 -0.131106
C51   C     C_R   0.544602 0.307191 0.280753 0.482718
C52   C     C_1   0.175856 0.000190 0.676119 0.030989
C53   C     C_R   0.498095 0.291358 0.292913 -0.140752
C54   C     C_R   0.449000 0.233598 0.258588 -0.206230
C55   C     C_R   0.448257 0.191138 0.212875 0.479972
C56   C     C_R   0.254831 0.254772 0.553981 -0.089665
C57   C     C_R   0.494641 0.207009 0.200552 -0.144856
C58   C     C_R   0.543852 0.264727 0.235037 -0.203595
C59   C     C_1   0.500029 0.336357 0.338874 0.121477
C60   C     C_1   0.492176 0.162224 0.153874 0.120421
C61   C     C_1   0.490554 0.124698 0.115378 -0.126732
C62   C     C_1   0.501149 0.374219 0.376553 -0.132572
C63   C     C_1   0.224955 0.000139 0.725211 0.024590
C64   C     C_1   0.266229 0.000080 0.766464 0.024503
C65   C     C_1   0.315331 0.000004 0.815529 0.031229
C66   C     C_2   0.143770 0.150172 0.385632 0.978113
C67   C     C_R   0.203705 0.207639 0.498583 -0.020509
C68   C     C_3   0.720788 0.603295 0.434236 -0.178130
C69   C     C_2   0.728038 0.783805 0.597988 0.999735
C70   C     C_3   0.775745 0.897882 0.561701 -0.149453
C71   C     C_2   0.588743 0.876259 0.804525 1.007575
C72   C     C_2   0.592954 0.784380 0.717507 1.018729
C73   C     C_3   0.360143 0.625530 0.640992 -0.218326
C74   C     C_3   0.435437 0.705442 0.824208 -0.198431
C75   C     C_2   0.594885 0.281495 0.224443 0.968510
C76   C     C_3   0.577550 0.397040 0.286186 -0.232486
C77   C     C_2   0.398048 0.216837 0.269315 0.970972
C78   C     C_R   0.197296 0.201697 0.443249 -0.100705
C79   C     C_2   0.236668 0.240077 0.385739 0.968424
C80   C     C_3   0.415808 0.101414 0.207652 -0.212278
C81   C     C_2   0.353304 0.348707 0.611917 0.963832
C82   C     C_2   0.261415 0.258371 0.611625 0.970576
C83   C     C_2   0.713512 0.902592 0.274018 0.975168
C84   C     C_2   0.617986 0.890829 0.166700 0.972920
C85   C     C_2   0.775100 0.040165 0.160982 0.970566
C86   C     C_2   0.870799 0.051473 0.267682 0.982709
C87   C     C_2   0.767651 0.717586 0.398227 1.001213
C88   C     C_1   0.338160 0.336190 0.498856 0.061411
H1    H     H_    0.053052 0.098778 0.335190 0.361718
H2    H     H_    0.614200 0.774340 0.653428 0.353732
H3    H     H_    0.369912 0.633445 0.607444 0.147783
H4    H     H_    0.340170 0.652762 0.655812 0.189136
H5    H     H_    0.325771 0.578690 0.618249 0.196622
H6    H     H_    0.478223 0.742902 0.865507 0.155212
H7    H     H_    0.441895 0.666508 0.807680 0.189242
H8    H     H_    0.401043 0.693336 0.836727 0.194311
H9    H     H_    0.684350 0.330643 0.260082 0.348548
H10   H     H_    0.572523 0.379136 0.241211 0.163852
H11   H     H_    0.615254 0.442887 0.313949 0.196073
H12   H     H_    0.770074 0.626468 0.451403 0.178172
H13   H     H_    0.535828 0.398709 0.281843 0.145175
H14   H     H_    0.308660 0.167579 0.233910 0.353238
H15   H     H_    0.275433 0.243506 0.336269 0.358326
H16   H     H_    0.378150 0.055552 0.180117 0.204681
H17   H     H_    0.421188 0.119436 0.252786 0.159132
H18   H     H_    0.457454 0.099775 0.211669 0.141137
H19   H     H_    0.383446 0.415154 0.692405 0.359942
H20   H     H_    0.222894 0.254585 0.661240 0.353843
H21   H     H_    0.671568 0.820775 0.261402 0.363494
H22   H     H_    0.536727 0.831843 0.090920 0.351352
H23   H     H_    0.701210 0.558702 0.396870 0.191705
H24   H     H_    0.824317 0.118250 0.170039 0.363582
H25   H     H_    0.952384 0.116630 0.339350 0.368204
H26   H     H_    0.771501 0.657256 0.336798 0.351160
H27   H     H_    0.714101 0.597776 0.470055 0.140511
H28   H     H_    0.722199 0.843684 0.657778 0.355410
H29   H     H_    0.795104 0.942539 0.598848 0.200091
H30   H     H_    0.726325 0.874787 0.543999 0.173925
H31   H     H_    0.783084 0.903232 0.526123 0.143130
H32   H     H_    0.630383 0.942908 0.792885 0.359345
O1    O     O_R   0.060410 0.095410 0.533860 -0.593623
O2    O     O_R   0.466080 0.438990 0.405050 -0.617631
O3    O     O_R   0.474020 0.439050 0.535050 -0.595869
O4    O     O_R   0.061590 0.026560 0.466170 -0.611487
O5    O     O_R   0.403970 0.438980 0.464930 -0.618942
O6    O     O_R   0.533920 0.561010 0.594960 -0.606905
O7    O     O_R   0.463870 0.560950 0.524840 -0.615500
O8    O     O_R   0.596030 0.561020 0.535080 -0.607049
O9    O     O_R   0.525980 0.560960 0.464960 -0.614110
O10   O     O_R   0.061450 0.034420 0.595890 -0.594441
O11   O     O_R   0.062630 0.965570 0.528200 -0.597442
O12   O     O_R   0.526720 0.973370 0.931380 -0.591800
O13   O     O_R   0.938410 0.973440 0.533830 -0.610377
O14   O     O_R   0.939590 0.904590 0.466140 -0.596865
O15   O     O_R   0.937370 0.034430 0.471800 -0.599455
O16   O     O_R   0.938550 0.965580 0.404110 -0.611693
O17   O     O_R   0.457840 0.904510 0.931360 -0.609121
O18   O     O_2   0.150691 0.121251 0.347181 -0.579908
O19   O     O_R   0.085586 0.134620 0.375742 -0.789202
O20   O     O_3   0.690683 0.632451 0.411945 -0.575448
O21   O     O_2   0.720707 0.751192 0.619680 -0.620511
O22   O     O_R   0.728680 0.837368 0.622777 -0.766505
O23   O     O_R   0.394760 0.965490 0.929270 -0.595049
O24   O     O_3   0.805452 0.868747 0.584610 -0.571973
O25   O     O_2   0.615229 0.907935 0.858871 -0.586670
O26   O     O_R   0.599616 0.899544 0.768652 -0.775565
O27   O     O_2   0.645982 0.816954 0.757922 -0.583368
O28   O     O_R   0.577579 0.761077 0.657521 -0.792389
O29   O     O_3   0.412364 0.636036 0.690319 -0.592185
O30   O     O_3   0.414209 0.721243 0.779189 -0.596316
O31   O     O_2   0.585600 0.260044 0.173496 -0.623234
O32   O     O_R   0.653729 0.322573 0.272948 -0.733305
O33   O     O_3   0.591873 0.364376 0.315116 -0.559562
O34   O     O_R   0.463630 0.034350 0.929290 -0.594479
O35   O     O_2   0.407411 0.238520 0.320280 -0.617023
O36   O     O_R   0.339205 0.175548 0.220938 -0.728551
O37   O     O_2   0.189295 0.231759 0.346339 -0.581688
O38   O     O_R   0.285121 0.246589 0.376939 -0.770308
O39   O     O_3   0.401094 0.133921 0.178669 -0.554639
O40   O     O_2   0.404603 0.362996 0.621596 -0.593378
O41   O     O_R   0.344171 0.381106 0.655119 -0.771953
O42   O     O_2   0.308959 0.266896 0.650962 -0.592570
O43   O     O_R   0.213027 0.251592 0.620570 -0.776258
O44   O     O_2   0.731385 0.925046 0.327675 -0.609113
O45   O     O_R   0.455760 0.026460 0.051270 -0.613236
O46   O     O_R   0.678831 0.841500 0.237941 -0.764280
O47   O     O_2   0.597428 0.886564 0.198712 -0.596227
O48   O     O_R   0.579973 0.857783 0.104122 -0.779015
O49   O     O_2   0.748348 0.016775 0.106076 -0.575632
O50   O     O_R   0.818656 0.099641 0.195573 -0.768566
O51   O     O_2   0.890637 0.045680 0.234266 -0.581367
O52   O     O_R   0.909277 0.093798 0.328476 -0.779354
O53   O     O_2   0.775768 0.750849 0.377361 -0.617608
O54   O     O_R   0.765438 0.663431 0.372034 -0.771540
O55   O     O_R   0.524630 0.095320 0.051290 -0.589623
O56   O     O_R   0.518840 0.965480 0.053370 -0.608259
O57   O     O_R   0.587720 0.034340 0.053380 -0.596037
O58   O     O_R   0.536130 0.439060 0.475170 -0.605845
Zn1   Zn    Zn3+2 0.999210 0.045970 0.545200 1.033736
Zn2   Zn    Zn3+2 0.000790 0.954030 0.454800 1.027488
Zn3   Zn    Zn3+2 0.445250 0.953940 0.991320 1.014085
Zn4   Zn    Zn3+2 0.537230 0.045890 0.991340 1.052045
Zn5   Zn    Zn3+2 0.546770 0.500050 0.546820 1.047987
Zn6   Zn    Zn3+2 0.453230 0.499960 0.453180 1.016970

loop_
_geom_bond_atom_site_label_1
_geom_bond_atom_site_label_2
_ccdc_geom_bond_type
C83   O44   D    
H32   O26   S    
C28   O15   A    
C41   C42   A    
C74   H6    S    
C36   O5    A    
C73   H5    S    
C16   O14   A    
C79   O38   S    
C53   C59   S    
C7    C8    A    
C39   C41   A    
C53   C54   A    
C76   H11   S    
O8    Zn5   S    
C26   C27   T    
C80   H16   S    
C86   O52   S    
O23   Zn3   S    
C32   C61   S    
C18   C19   A    
C77   O36   S    
O17   Zn3   S    
C82   O43   S    
C70   H29   S    
C69   O21   D    
O57   Zn4   S    
C5    C36   S    
C80   H18   S    
C76   O33   S    
C8    C85   S    
O10   Zn1   S    
C42   O29   S    
C33   O56   A    
O3    Zn5   S    
C21   O24   S    
O12   Zn4   S    
C5    C88   T    
H22   O48   S    
H24   O50   S    
C66   O19   S    
C4    C40   S    
C45   C56   A    
C75   O31   D    
C8    C9    A    
H1    O19   S    
C29   C38   S    
H2    O28   S    
C39   C72   S    
C47   C50   T    
C9    C10   A    
C75   O32   S    
O58   Zn5   S    
H25   O52   S    
C54   C77   S    
C35   O58   A    
C55   O39   S    
C81   O40   D    
C21   C22   A    
O5    Zn6   S    
O7    Zn6   S    
O6    Zn5   S    
C67   C78   A    
C17   C33   S    
C87   O53   D    
C16   O13   A    
C32   O55   A    
C44   C46   A    
C58   C75   S    
C4    O11   A    
C25   C29   T    
O56   Zn3   S    
C66   C78   S    
H20   O43   S    
C6    C84   S    
C33   O57   A    
C86   O51   D    
C38   O9    A    
H19   O41   S    
C36   O3    A    
C73   H3    S    
O1    Zn1   S    
C2    C67   S    
C10   C11   A    
C6    C11   A    
C51   C58   A    
O13   Zn1   S    
C80   O39   S    
C4    O10   A    
C82   O42   D    
C11   C83   S    
C69   O22   S    
C40   C52   T    
C80   H17   S    
C85   O49   D    
C60   C61   T    
C51   C53   A    
C68   H23   S    
C43   C44   A    
C68   H12   S    
C84   O48   S    
C74   H8    S    
C9    C86   S    
C66   O18   D    
C7    C13   S    
C70   H31   S    
C23   C34   A    
C16   C27   S    
C41   C47   S    
C34   C45   A    
C34   C88   S    
C18   O20   S    
C46   C71   S    
C43   O30   S    
O55   Zn4   S    
H28   O22   S    
C48   C49   T    
C71   O25   D    
C30   C49   S    
C39   C46   A    
C12   C31   S    
C10   C14   S    
C18   C24   A    
C20   C69   S    
C68   O20   S    
C42   C43   A    
C15   C28   S    
C72   O27   D    
H14   O36   S    
C31   O34   A    
C37   O6    A    
C76   H13   S    
C87   O54   S    
C54   C55   A    
C51   O33   S    
C59   C62   T    
C73   O29   S    
C28   O16   A    
C81   O41   S    
C74   H7    S    
O9    Zn6   S    
C35   O2    A    
C45   C81   S    
C73   H4    S    
C57   C60   S    
C52   C63   S    
C79   O37   D    
C38   O8    A    
O11   Zn2   S    
H15   O38   S    
C56   C82   S    
C6    C7    A    
C56   C67   A    
C12   C65   T    
O16   Zn2   S    
C70   O24   S    
C85   O50   S    
C13   C17   T    
O14   Zn2   S    
C64   C65   S    
C19   C20   A    
C55   C57   A    
C2    C3    T    
C1    O4    A    
O45   Zn3   S    
C84   O47   D    
C72   O28   S    
C77   O35   D    
C37   C50   S    
C57   C58   A    
C70   H30   S    
C30   O12   A    
C83   O46   S    
O34   Zn4   S    
O2    Zn6   S    
H9    O32   S    
C35   C62   S    
C22   C24   A    
C23   C78   A    
C31   O23   A    
C19   C25   S    
C24   C87   S    
C1    O1    A    
O4    Zn2   S    
H21   O46   S    
C68   H27   S    
O15   Zn1   S    
C63   C64   T    
H26   O54   S    
C71   O26   S    
C20   C21   A    
C22   C26   S    
C30   O17   A    
C14   C15   T    
C74   O30   S    
C1    C3    S    
C32   O45   A    
C76   H10   S    
C44   C48   S    
C37   O7    A    
C23   C79   S    
