data_mof_unit_56817.cif
_audit_creation_date              2012-10-26T19:41:36-0400
_audit_creation_method            fapswitch 2.2
_symmetry_space_group_name_H-M    P1
_symmetry_Int_Tables_number       1
_space_group_crystal_system       triclinic
_cell_length_a                    17.224745
_cell_length_b                    10.79942
_cell_length_c                    9.755968
_cell_angle_alpha                 110.186131
_cell_angle_beta                  93.137309
_cell_angle_gamma                 91.521185
_cell_volume                      1698.75600276

loop_
_atom_site_label
_atom_site_type_symbol
_atom_type_description
_atom_site_fract_x
_atom_site_fract_y
_atom_site_fract_z
_atom_type_partial_charge
C1    C     C_R   0.491000 0.252840 0.443714 0.625364
C2    C     C_R   0.647987 0.499619 0.478980 0.627718
C3    C     C_R   0.267621 0.508140 0.542279 0.034302
C4    C     C_R   0.731364 0.512313 0.464363 -0.001404
C5    C     C_R   0.213432 0.421978 0.434899 0.007500
C6    C     C_R   0.780437 0.407782 0.458746 -0.010457
C7    C     C_R   0.134123 0.440092 0.450343 -0.184316
C8    C     C_R   0.860533 0.429734 0.456545 -0.180482
C9    C     C_R   0.107733 0.543108 0.566945 0.022444
C10   C     C_R   0.892287 0.553233 0.466110 0.022197
C11   C     C_R   0.160506 0.629116 0.674284 0.157151
C12   C     C_R   0.503195 0.747362 0.557571 0.582612
C13   C     C_R   0.844039 0.657347 0.472224 0.159176
C14   C     C_R   0.240885 0.608253 0.665921 0.124345
C15   C     C_R   0.762713 0.635573 0.466726 0.102048
C16   C     C_2   0.023111 0.554484 0.579194 0.158205
C17   C     C_2   0.977572 0.571173 0.469009 0.157698
C18   C     C_2   0.236804 0.309105 0.308116 0.592193
C19   C     C_2   0.751051 0.275300 0.455664 0.586305
C20   C     C_3   0.685926 0.743035 0.329828 -0.291116
C21   C     C_3   0.311438 0.650169 0.900225 -0.259427
C22   C     C_3   0.985117 0.528509 0.207007 -0.287851
C23   C     C_2   0.479419 0.110413 0.419155 0.037836
C24   C     C_3   0.009999 0.433544 0.748132 -0.286854
C25   C     C_3   0.118882 0.852779 0.746548 -0.291078
C26   C     C_3   0.901268 0.866376 0.635338 -0.297657
C27   C     C_2   0.368797 0.851309 0.442929 0.615268
C28   C     C_2   0.391562 0.159564 0.628806 0.597780
C29   C     C_2   0.562768 0.979860 0.683490 0.563142
C30   C     C_2   0.515070 0.015288 0.290253 0.553870
C31   C     C_2   0.499049 0.890357 0.585321 0.015416
C32   C     C_2   0.440237 0.071059 0.516971 0.047274
C33   C     C_2   0.440429 0.933827 0.515153 0.036258
C34   C     C_2   0.503968 0.514790 0.080471 -0.009320
C35   C     C_2   0.493349 0.489082 0.920333 -0.017452
C36   C     C_R   0.351599 0.501781 0.521735 0.668025
Cu1   Cu    Cu3+1 0.513640 0.521550 0.643210 1.056154
Cu2   Cu    Cu3+1 0.486360 0.478450 0.356790 1.059679
H1    H     H_    0.899406 0.350735 0.449053 0.168618
H2    H     H_    0.669260 0.642400 0.252034 0.155220
H3    H     H_    0.732724 0.786238 0.283960 0.135616
H4    H     H_    0.634692 0.805145 0.341520 0.176532
H5    H     H_    0.285297 0.791726 0.806926 0.273572
H6    H     H_    0.260625 0.663785 0.968198 0.123430
H7    H     H_    0.362098 0.709654 0.969007 0.188498
H8    H     H_    0.325378 0.544356 0.863283 0.168875
H9    H     H_    0.068221 0.639566 0.370876 0.255045
H10   H     H_    0.013217 0.568427 0.130203 0.150467
H11   H     H_    0.921082 0.530510 0.188013 0.166021
H12   H     H_    0.091944 0.372398 0.371558 0.153400
H13   H     H_    0.001980 0.425042 0.183727 0.145839
H14   H     H_    0.934683 0.575894 0.727381 0.252655
H15   H     H_    0.982269 0.439102 0.850044 0.137648
H16   H     H_    0.073908 0.431256 0.768606 0.169245
H17   H     H_    0.988196 0.341204 0.659387 0.153199
H18   H     H_    0.161012 0.761482 0.888785 0.257869
H19   H     H_    0.090395 0.928009 0.835290 0.155527
H20   H     H_    0.080280 0.826115 0.644674 0.164903
H21   H     H_    0.175036 0.896262 0.729068 0.162438
H22   H     H_    0.848144 0.833305 0.429048 0.258103
H23   H     H_    0.450209 0.414528 0.854118 0.176031
H24   H     H_    0.933427 0.956723 0.634984 0.153549
H25   H     H_    0.940050 0.813767 0.689123 0.167123
H26   H     H_    0.849325 0.895943 0.699571 0.151409
H27   H     H_    0.280499 0.813805 0.287214 0.328986
H28   H     H_    0.346238 0.200101 0.825210 0.325234
H29   H     H_    0.606793 0.165234 0.793756 0.353881
H30   H     H_    0.519694 0.828872 0.148134 0.324833
H31   H     H_    0.544691 0.592933 0.147436 0.137027
H32   H     H_    0.574098 0.625584 0.923928 0.207753
H33   H     H_    0.428042 0.371056 0.075276 0.223063
H34   H     H_    0.311597 0.164712 0.228054 0.347805
H35   H     H_    0.776931 0.099174 0.471787 0.339404
H36   H     H_    0.730327 0.830485 0.544840 0.282167
N1    N     N_2   0.465840 0.446060 0.141630 -0.341740
N2    N     N_2   0.534160 0.553940 0.858370 -0.358417
N3    N     N_2   0.711888 0.738847 0.471617 -0.504962
N4    N     N_2   0.295379 0.692504 0.776221 -0.481187
N5    N     N_2   0.010277 0.608572 0.356062 -0.498979
N6    N     N_2   0.990897 0.547254 0.708934 -0.504233
N7    N     N_2   0.132035 0.737936 0.787346 -0.495329
N8    N     N_2   0.878012 0.783380 0.486394 -0.489720
O1    O     O_R   0.507280 0.332200 0.576490 -0.468580
O2    O     O_R   0.302457 0.239795 0.321684 -0.651598
O3    O     O_2   0.681647 0.243369 0.434166 -0.481349
O4    O     O_R   0.803547 0.185585 0.476441 -0.716948
O5    O     O_2   0.342591 0.768720 0.489812 -0.535080
O6    O     O_R   0.328756 0.874381 0.326069 -0.669056
O7    O     O_2   0.357759 0.248974 0.605374 -0.514578
O8    O     O_R   0.381232 0.135172 0.758607 -0.683544
O9    O     O_2   0.617883 0.932184 0.728555 -0.504831
O10   O     O_R   0.560015 0.117280 0.727150 -0.677491
O11   O     O_2   0.564181 0.055614 0.227823 -0.452492
O12   O     O_R   0.492720 0.667800 0.423510 -0.492454
O13   O     O_R   0.491717 0.881220 0.237169 -0.706246
O14   O     O_R   0.484240 0.295800 0.334620 -0.451457
O15   O     O_R   0.515760 0.704200 0.665380 -0.457604
O16   O     O_R   0.399260 0.520290 0.634950 -0.472988
O17   O     O_R   0.600740 0.479710 0.365050 -0.490445
O18   O     O_R   0.376220 0.483890 0.393080 -0.464926
O19   O     O_R   0.623780 0.516110 0.606920 -0.477947
O20   O     O_2   0.197041 0.274176 0.192221 -0.539355

loop_
_geom_bond_atom_site_label_1
_geom_bond_atom_site_label_2
_ccdc_geom_bond_type
C22   H10   S    
H9    N5    S    
C19   O4    S    
Cu1   O15   S    
C20   H3    S    
H18   N7    S    
H28   O8    S    
C11   N7    S    
C24   H17   S    
C6    C19   S    
C30   O13   S    
C20   N3    S    
C9    C16   S    
C22   N5    S    
C30   O11   D    
C20   H2    S    
C11   C14   A    
C10   C17   S    
C24   H16   S    
C17   N5    S    
C34   C35   S    
C18   O20   D    
C26   H26   S    
Cu1   O19   S    
H22   N8    S    
C24   N6    S    
C16   C17   D    
H36   N3    S    
C21   N4    S    
C18   O2    S    
C31   C33   D    
C28   O7    D    
C8    H1    S    
C34   N1    D    
C26   N8    S    
C25   N7    S    
C12   O12   A    
C25   H19   S    
Cu1   O16   S    
C28   O8    S    
C21   H7    S    
Cu2   N1    S    
C35   N2    D    
H30   O13   S    
C23   C30   S    
C28   C32   S    
Cu2   O18   S    
C5    C7    A    
C6    C8    A    
C5    C18   S    
C2    O19   A    
C19   O3    D    
C24   H15   S    
C13   N8    S    
C27   C33   S    
H5    N4    S    
C2    C4    S    
C26   H25   S    
Cu1   Cu2   S    
C21   H6    S    
Cu2   O12   S    
C35   H23   S    
C27   O5    D    
C9    C11   A    
C34   H31   S    
C12   O15   A    
H34   O2    S    
C3    C14   A    
C22   H11   S    
C4    C6    A    
Cu1   N2    S    
C2    O17   A    
C1    C23   S    
C13   C15   A    
C12   C31   S    
H32   N2    S    
C25   H20   S    
C29   O9    D    
H27   O6    S    
C21   H8    S    
C7    C9    A    
C7    H12   S    
Cu2   O17   S    
C3    C5    A    
C10   C13   A    
C20   H4    S    
C36   O18   A    
C1    O1    A    
C23   C32   D    
C4    C15   A    
C26   H24   S    
C29   C31   S    
C32   C33   S    
H33   N1    S    
C15   N3    S    
C3    C36   S    
C1    O14   A    
H29   O10   S    
C14   N4    S    
C27   O6    S    
H35   O4    S    
C8    C10   A    
Cu2   O14   S    
Cu1   O1    S    
C36   O16   A    
C25   H21   S    
C16   N6    S    
H14   N6    S    
C29   O10   S    
C22   H13   S    
