data_mof_unit_5953.cif
_audit_creation_date              2012-12-11T16:28:11-0500
_audit_creation_method            fapswitch 2.2
_symmetry_space_group_name_H-M    P1
_symmetry_Int_Tables_number       1
_space_group_crystal_system       triclinic
_cell_length_a                    30.246386
_cell_length_b                    22.559107
_cell_length_c                    18.208526
_cell_angle_alpha                 89.820027
_cell_angle_beta                  123.780775
_cell_angle_gamma                 90.193752
_cell_volume                      10326.6064647

loop_
_atom_site_label
_atom_site_type_symbol
_atom_type_description
_atom_site_fract_x
_atom_site_fract_y
_atom_site_fract_z
_atom_type_partial_charge
C1    C     C_R   0.544417 0.580287 0.742379 -0.126334
C2    C     C_R   0.612410 0.263515 0.434511 -0.173617
C3    C     C_R   0.800709 0.628285 0.029326 -0.212578
C4    C     C_R   0.227965 0.707807 0.826037 -0.209375
C5    C     C_R   0.769582 0.290455 0.170673 -0.208937
C6    C     C_R   0.769230 0.707720 0.172737 -0.209403
C7    C     C_R   0.300128 0.130073 0.026726 -0.214528
C8    C     C_R   0.849541 0.346555 0.052660 -0.228912
C9    C     C_R   0.149391 0.653708 0.947384 -0.229188
C10   C     C_R   0.218305 0.188511 0.139436 -0.235051
C11   C     C_R   0.850307 0.651557 0.057384 -0.229475
C12   C     C_R   0.279299 0.688096 0.858630 -0.243886
C13   C     C_R   0.607885 0.738865 0.428863 -0.174044
C14   C     C_R   0.718874 0.311611 0.139687 -0.234883
C15   C     C_R   0.718142 0.687008 0.140525 -0.234140
C16   C     C_R   0.349277 0.153982 0.053368 -0.228488
C17   C     C_R   0.574674 0.610933 0.427195 -0.127489
C18   C     C_R   0.406297 0.413763 0.573616 -0.130344
C19   C     C_R   0.404577 0.583095 0.572484 -0.129526
C20   C     C_R   0.579578 0.391786 0.428967 -0.125596
C21   C     C_R   0.079370 0.108552 0.428777 -0.124547
C22   C     C_R   0.905424 0.914717 0.572901 -0.139189
C23   C     C_R   0.906831 0.086907 0.573726 -0.130248
C24   C     C_R   0.289762 0.407921 0.531746 -0.165211
C25   C     C_R   0.083822 0.896493 0.427919 -0.134948
C26   C     C_R   0.381785 0.583174 0.258819 -0.121601
C27   C     C_R   0.618415 0.419655 0.743449 -0.135413
C28   C     C_R   0.618410 0.580409 0.743531 -0.138256
C29   C     C_R   0.389508 0.396552 0.282511 -0.128720
C30   C     C_R   0.889601 0.103455 0.282441 -0.127109
C31   C     C_R   0.109944 0.896824 0.719925 -0.127707
C32   C     C_R   0.118296 0.080873 0.743171 -0.136982
C33   C     C_R   0.890440 0.895080 0.285148 -0.126940
C34   C     C_R   0.598218 0.594164 0.794011 0.059759
C35   C     C_R   0.792052 0.094990 0.535503 -0.167455
C36   C     C_R   0.415318 0.368396 0.248324 0.056547
C37   C     C_R   0.401514 0.596830 0.207446 0.058451
C38   C     C_R   0.598336 0.405987 0.794195 0.059736
C39   C     C_R   0.097995 0.095037 0.793379 0.059250
C40   C     C_R   0.916886 0.865887 0.252888 0.054199
C41   C     C_R   0.915408 0.131759 0.248108 0.055361
C42   C     C_R   0.081385 0.865945 0.747201 0.055455
C43   C     C_R   0.610600 0.643987 0.502027 0.057368
C44   C     C_R   0.358362 0.395808 0.499565 0.053317
C45   C     C_R   0.355626 0.598594 0.497713 0.055436
C46   C     C_R   0.117626 0.765295 0.452569 -0.169956
C47   C     C_R   0.615663 0.359436 0.504279 0.057938
C48   C     C_R   0.115229 0.141162 0.503868 0.056885
C49   C     C_R   0.857740 0.896227 0.498862 0.054736
C50   C     C_R   0.859150 0.105388 0.499707 0.052097
C51   C     C_R   0.124610 0.868295 0.502858 0.055887
C52   C     C_R   0.229117 0.678247 0.421643 0.213083
C53   C     C_R   0.711063 0.231499 0.587804 0.210952
C54   C     C_R   0.704463 0.773954 0.583854 0.210583
C55   C     C_R   0.246225 0.297324 0.451088 0.211610
C56   C     C_R   0.747358 0.204117 0.450551 0.211748
C57   C     C_R   0.111029 0.237418 0.433116 -0.173718
C58   C     C_R   0.227678 0.750095 0.577558 0.216073
C59   C     C_R   0.208707 0.271473 0.586720 0.211849
C60   C     C_R   0.745699 0.796917 0.450346 0.211650
C61   C     C_R   0.272141 0.653885 0.423697 -0.199509
C62   C     C_R   0.684235 0.282189 0.586652 -0.197468
C63   C     C_R   0.676525 0.724401 0.583917 -0.194480
C64   C     C_R   0.289872 0.320933 0.453750 -0.197509
C65   C     C_R   0.790475 0.180092 0.452278 -0.198126
C66   C     C_R   0.202696 0.803287 0.572974 -0.211751
C67   C     C_R   0.182442 0.220102 0.585953 -0.197913
C68   C     C_R   0.788897 0.907570 0.530791 -0.165770
C69   C     C_R   0.789347 0.820752 0.453001 -0.197634
C70   C     C_R   0.307873 0.616301 0.492536 0.088135
C71   C     C_R   0.637208 0.300592 0.508550 0.086993
C72   C     C_R   0.630906 0.703875 0.505191 0.087793
C73   C     C_R   0.312401 0.374391 0.496511 0.079847
C74   C     C_R   0.813561 0.127326 0.497057 0.084016
C75   C     C_R   0.148855 0.811840 0.507876 0.084917
C76   C     C_R   0.136006 0.200651 0.507706 0.086877
C77   C     C_R   0.811655 0.874403 0.495478 0.081806
C78   C     C_3   0.192646 0.723955 0.351717 -0.356660
C79   C     C_R   0.254287 0.618881 0.552399 -0.206387
C80   C     C_3   0.202813 0.736987 0.279764 -0.938575
C81   C     C_3   0.764998 0.213788 0.669389 -0.354356
C82   C     C_3   0.783365 0.247952 0.754314 -0.934116
C83   C     C_3   0.757430 0.793077 0.666430 -0.356592
C84   C     C_3   0.774127 0.761003 0.752349 -0.933488
C85   C     C_3   0.224044 0.236036 0.411829 -0.356886
C86   C     C_3   0.254778 0.200829 0.382518 -0.945970
C87   C     C_3   0.725000 0.265083 0.410002 -0.359117
C88   C     C_3   0.756109 0.300396 0.381141 -0.942879
C89   C     C_3   0.287517 0.741694 0.643183 -0.352167
C90   C     C_R   0.638329 0.212917 0.434453 -0.201849
C91   C     C_3   0.317104 0.791838 0.709603 -0.959748
C92   C     C_3   0.262089 0.290388 0.668500 -0.355891
C93   C     C_3   0.279813 0.257406 0.754239 -0.930679
C94   C     C_3   0.724020 0.735332 0.412039 -0.358030
C95   C     C_3   0.755944 0.699489 0.385691 -0.942573
C96   C     C_R   0.634644 0.788645 0.427761 -0.202474
C97   C     C_R   0.461643 0.400390 0.277231 -0.134385
C98   C     C_R   0.245126 0.386594 0.526918 -0.206808
C99   C     C_R   0.747582 0.116278 0.530737 -0.209012
C100  C     C_R   0.141250 0.711608 0.457353 -0.209221
C101  C     C_R   0.136442 0.288626 0.432681 -0.201171
C102  C     C_R   0.743978 0.886346 0.525126 -0.208238
C103  C     C_R   0.222845 0.663026 0.491044 0.017385
C104  C     C_R   0.689486 0.200215 0.507619 0.014517
C105  C     C_R   0.685021 0.802605 0.502180 0.014408
C106  C     C_R   0.224284 0.330947 0.489405 0.013390
C107  C     C_R   0.726164 0.171238 0.491047 0.016142
C108  C     C_R   0.454877 0.580699 0.257107 -0.149506
C109  C     C_R   0.196435 0.705376 0.514759 0.016720
C110  C     C_R   0.187315 0.302239 0.506018 0.015266
C111  C     C_R   0.723184 0.830695 0.487581 0.015263
C112  C     C_R   0.369504 0.613916 0.112899 0.131315
C113  C     C_R   0.630195 0.390241 0.889104 0.131144
C114  C     C_R   0.629860 0.609985 0.888874 0.131337
C115  C     C_R   0.399921 0.311465 0.200323 0.134511
C116  C     C_R   0.899937 0.188702 0.199703 0.134542
C117  C     C_R   0.096304 0.808615 0.794217 0.131579
C118  C     C_R   0.129589 0.111365 0.887982 0.130431
C119  C     C_R   0.544544 0.419764 0.742665 -0.127391
C120  C     C_R   0.901770 0.808402 0.206066 0.133534
C121  C     C_R   0.362824 0.648396 0.980538 -0.214950
C122  C     C_R   0.636404 0.354905 0.020560 -0.210858
C123  C     C_R   0.635536 0.644759 0.019922 -0.210955
C124  C     C_R   0.412965 0.234046 0.121978 -0.212500
C125  C     C_R   0.912947 0.266397 0.120982 -0.212528
C126  C     C_R   0.084762 0.732372 0.876335 -0.211045
C127  C     C_R   0.135523 0.146312 0.019160 -0.212567
C128  C     C_R   0.914947 0.730541 0.128401 -0.213749
C129  C     C_R   0.393385 0.626905 0.067019 -0.174081
C130  C     C_R   0.044287 0.080757 0.742048 -0.127441
C131  C     C_R   0.606141 0.377440 0.934719 -0.171396
C132  C     C_R   0.605495 0.622631 0.933927 -0.171655
C133  C     C_R   0.428470 0.287690 0.167433 -0.178409
C134  C     C_R   0.928448 0.212723 0.166646 -0.178595
C135  C     C_R   0.068694 0.785500 0.829369 -0.171440
C136  C     C_R   0.105341 0.124119 0.933194 -0.172849
C137  C     C_R   0.930736 0.784007 0.174329 -0.179098
C138  C     C_R   0.314256 0.619261 0.068735 -0.258641
C139  C     C_R   0.685435 0.384664 0.933374 -0.257376
C140  C     C_R   0.685168 0.615521 0.933787 -0.257391
C141  C     C_R   0.962861 0.898353 0.280652 -0.134541
C142  C     C_R   0.357515 0.279106 0.191056 -0.254474
C143  C     C_R   0.857499 0.220841 0.190234 -0.254082
C144  C     C_R   0.138173 0.776055 0.802328 -0.252200
C145  C     C_R   0.184827 0.117059 0.932526 -0.258626
C146  C     C_R   0.858709 0.776604 0.195464 -0.254660
C147  C     C_R   0.282874 0.641386 0.982292 0.081815
C148  C     C_R   0.716421 0.361107 0.018836 0.081551
C149  C     C_R   0.715988 0.638486 0.019626 0.081597
C150  C     C_R   0.340944 0.225276 0.144992 0.078891
C151  C     C_R   0.841000 0.274780 0.144127 0.078770
C152  C     C_R   0.961656 0.099779 0.277050 -0.136113
C153  C     C_R   0.156021 0.723314 0.851476 0.078591
C154  C     C_R   0.215771 0.139968 0.018268 0.080830
C155  C     C_R   0.841810 0.722942 0.148766 0.078921
C156  C     C_R   0.308203 0.658316 0.939442 0.190699
C157  C     C_R   0.690765 0.343645 0.060920 0.191726
C158  C     C_R   0.690055 0.655689 0.061184 0.191455
C159  C     C_R   0.368308 0.203817 0.107722 0.191060
C160  C     C_R   0.868379 0.296494 0.106799 0.191343
C161  C     C_R   0.129448 0.702452 0.890708 0.190154
C162  C     C_R   0.190036 0.157180 0.060145 0.191529
C163  C     C_R   0.034142 0.896476 0.714344 -0.130334
C164  C     C_R   0.869578 0.701058 0.112454 0.191221
C165  C     C_R   0.228253 0.654203 0.942473 0.073168
C166  C     C_R   0.770644 0.346763 0.057548 0.072212
C167  C     C_R   0.770500 0.652241 0.059598 0.072212
C168  C     C_R   0.294307 0.195903 0.126704 0.074442
C169  C     C_R   0.794554 0.304187 0.126177 0.074380
C170  C     C_R   0.203218 0.694795 0.871136 0.071437
C171  C     C_R   0.270170 0.153841 0.057620 0.071662
C172  C     C_R   0.794616 0.694119 0.129045 0.074087
C173  C     C_R   0.624675 0.609277 0.574793 -0.131385
C174  C     C_R   0.297553 0.596366 0.554318 -0.181787
C175  C     C_R   0.357039 0.413751 0.426169 -0.140626
C176  C     C_R   0.356154 0.583524 0.425125 -0.133254
C177  C     C_R   0.626996 0.392627 0.576169 -0.132164
C178  C     C_R   0.126803 0.107690 0.575902 -0.131392
C179  C     C_R   0.856877 0.913901 0.425843 -0.140517
C180  C     C_R   0.857407 0.086885 0.426216 -0.140866
C181  C     C_R   0.134208 0.899346 0.574990 -0.129537
C182  C     C_R   0.800624 0.370635 0.026497 -0.213386
C183  C     C_R   0.198815 0.630657 0.974725 -0.214590
C184  C     C_R   0.269291 0.209329 0.171089 -0.209869
H1    H     H_    0.703587 0.393173 0.897886 0.114285
H2    H     H_    0.435853 0.622718 0.098553 0.112000
H3    H     H_    0.782228 0.713495 0.748664 0.255596
H4    H     H_    0.811307 0.781266 0.808053 0.258207
H5    H     H_    0.789598 0.787022 0.654983 0.198700
H6    H     H_    0.754970 0.841023 0.677360 0.192060
H7    H     H_    0.254537 0.224591 0.328913 0.254381
H8    H     H_    0.296354 0.193224 0.439268 0.266980
H9    H     H_    0.235395 0.157044 0.356621 0.260835
H10   H     H_    0.223203 0.208441 0.461674 0.204101
H11   H     H_    0.182573 0.241142 0.353525 0.191735
H12   H     H_    0.797640 0.307922 0.438154 0.267302
H13   H     H_    0.462233 0.310677 0.175199 0.110203
H14   H     H_    0.756035 0.276732 0.327845 0.253979
H15   H     H_    0.736918 0.344194 0.355011 0.260927
H16   H     H_    0.683657 0.259504 0.351461 0.191152
H17   H     H_    0.723745 0.292903 0.459040 0.204698
H18   H     H_    0.315742 0.833146 0.675058 0.265703
H19   H     H_    0.299792 0.799661 0.748871 0.259760
H20   H     H_    0.359475 0.779251 0.755899 0.259274
H21   H     H_    0.294029 0.700858 0.682113 0.186434
H22   H     H_    0.306427 0.735450 0.606058 0.204887
H23   H     H_    0.248691 0.260047 0.768670 0.266022
H24   H     H_    0.563009 0.618022 0.901943 0.111977
H25   H     H_    0.288838 0.210359 0.749928 0.254990
H26   H     H_    0.316689 0.278183 0.809908 0.257973
H27   H     H_    0.293652 0.285207 0.655428 0.198283
H28   H     H_    0.259586 0.338116 0.680566 0.192796
H29   H     H_    0.756082 0.722152 0.331710 0.254015
H30   H     H_    0.797371 0.692922 0.443529 0.266826
H31   H     H_    0.737212 0.655255 0.361270 0.260994
H32   H     H_    0.722361 0.708429 0.461680 0.204010
H33   H     H_    0.682895 0.739983 0.352581 0.191655
H34   H     H_    0.870933 0.364789 0.025829 0.130484
H35   H     H_    0.035564 0.808977 0.822822 0.114124
H36   H     H_    0.128549 0.635999 0.975502 0.130705
H37   H     H_    0.199419 0.200940 0.173133 0.135517
H38   H     H_    0.871936 0.633235 0.031236 0.130053
H39   H     H_    0.297743 0.700012 0.823917 0.141886
H40   H     H_    0.699984 0.298895 0.173390 0.135793
H41   H     H_    0.699088 0.699440 0.173959 0.135746
H42   H     H_    0.370640 0.135920 0.026582 0.131432
H43   H     H_    0.962205 0.189914 0.174510 0.110151
H44   H     H_    0.964970 0.806468 0.183078 0.112246
H45   H     H_    0.062872 0.119467 0.901395 0.113325
H46   H     H_    0.786861 0.408091 0.981947 0.129256
H47   H     H_    0.213440 0.594361 0.021350 0.130776
H48   H     H_    0.288523 0.235784 0.230462 0.127920
H49   H     H_    0.296329 0.610856 0.104628 0.115163
H50   H     H_    0.786641 0.591322 0.984051 0.129245
H51   H     H_    0.208303 0.733017 0.765318 0.139593
H52   H     H_    0.788638 0.263514 0.229668 0.127349
H53   H     H_    0.788316 0.734118 0.232152 0.127545
H54   H     H_    0.286126 0.092896 0.981837 0.131488
H55   H     H_    0.650938 0.620766 0.643482 0.094598
H56   H     H_    0.322291 0.415207 0.359122 0.096251
H57   H     H_    0.322198 0.581158 0.357382 0.091814
H58   H     H_    0.653147 0.381347 0.645047 0.095047
H59   H     H_    0.152907 0.119051 0.644697 0.095099
H60   H     H_    0.335701 0.297814 0.215869 0.115009
H61   H     H_    0.822253 0.915361 0.358684 0.097025
H62   H     H_    0.822573 0.085670 0.359249 0.097165
H63   H     H_    0.166170 0.891930 0.642650 0.086583
H64   H     H_    0.555570 0.624259 0.359090 0.094698
H65   H     H_    0.416932 0.414268 0.640996 0.092039
H66   H     H_    0.414969 0.581483 0.639693 0.087647
H67   H     H_    0.566128 0.380213 0.362499 0.086806
H68   H     H_    0.065840 0.120276 0.362268 0.086741
H69   H     H_    0.914989 0.916488 0.639579 0.090091
H70   H     H_    0.917602 0.086670 0.641187 0.092664
H71   H     H_    0.703544 0.607234 0.898650 0.114317
H72   H     H_    0.070736 0.886111 0.361167 0.091580
H73   H     H_    0.280512 0.666913 0.375469 0.139375
H74   H     H_    0.702109 0.309996 0.644308 0.133910
H75   H     H_    0.692816 0.698901 0.643553 0.133624
H76   H     H_    0.308235 0.297459 0.425684 0.140260
H77   H     H_    0.808085 0.202812 0.422131 0.139480
H78   H     H_    0.225133 0.839699 0.616573 0.138811
H79   H     H_    0.200392 0.192654 0.644118 0.133856
H80   H     H_    0.807861 0.797301 0.425177 0.139673
H81   H     H_    0.323976 0.565413 0.605847 0.112461
H82   H     H_    0.158569 0.794069 0.774237 0.116688
H83   H     H_    0.574836 0.275495 0.374856 0.122250
H84   H     H_    0.571408 0.725590 0.368281 0.120143
H85   H     H_    0.306775 0.450200 0.563084 0.122140
H86   H     H_    0.809901 0.053711 0.569463 0.113572
H87   H     H_    0.075332 0.770965 0.404521 0.129428
H88   H     H_    0.073807 0.224726 0.373309 0.122164
H89   H     H_    0.806027 0.949543 0.562806 0.114758
H90   H     H_    0.731814 0.091835 0.562659 0.129371
H91   H     H_    0.117538 0.677182 0.409981 0.132470
H92   H     H_    0.119909 0.312909 0.371351 0.131304
H93   H     H_    0.835673 0.201931 0.215092 0.114804
H94   H     H_    0.727146 0.911655 0.554356 0.129297
H95   H     H_    0.248962 0.607048 0.604736 0.131102
H96   H     H_    0.621753 0.188281 0.373532 0.131490
H97   H     H_    0.619536 0.811387 0.365652 0.131227
H98   H     H_    0.228634 0.411733 0.556851 0.132294
H99   H     H_    0.517846 0.577045 0.764332 0.083082
H100  H     H_    0.487784 0.395059 0.255117 0.081946
H101  H     H_    0.480399 0.576661 0.233209 0.088233
H102  H     H_    0.518127 0.423005 0.764889 0.083198
H103  H     H_    0.017742 0.077708 0.764067 0.084639
H104  H     H_    0.836582 0.795734 0.219430 0.115010
H105  H     H_    0.989650 0.891640 0.260248 0.083879
H106  H     H_    0.987688 0.105201 0.254664 0.082774
H107  H     H_    0.002935 0.885947 0.724047 0.091196
H108  H     H_    0.382419 0.660362 0.947668 0.122623
H109  H     H_    0.616637 0.342705 0.053057 0.121850
H110  H     H_    0.615532 0.656763 0.051970 0.121760
H111  H     H_    0.434626 0.217409 0.094915 0.122182
H112  H     H_    0.934616 0.283237 0.093864 0.121834
H113  H     H_    0.063850 0.716242 0.905174 0.123008
H114  H     H_    0.115650 0.158377 0.051403 0.122172
H115  H     H_    0.203079 0.108956 0.897172 0.115719
H116  H     H_    0.936939 0.713528 0.102146 0.122225
H117  H     H_    0.340811 0.581649 0.238467 0.083714
H118  H     H_    0.659608 0.424046 0.765864 0.082367
H119  H     H_    0.659655 0.576225 0.766209 0.083267
H120  H     H_    0.351131 0.386483 0.270381 0.088861
H121  H     H_    0.851232 0.113374 0.270231 0.089247
H122  H     H_    0.150589 0.889301 0.741806 0.086776
H123  H     H_    0.159542 0.076733 0.765892 0.084598
H124  H     H_    0.852303 0.884555 0.273623 0.089842
H125  H     H_    0.242690 0.757351 0.308869 0.262945
H126  H     H_    0.563721 0.382156 0.903227 0.112579
H127  H     H_    0.199375 0.695787 0.243650 0.259792
H128  H     H_    0.172602 0.768927 0.231542 0.258161
H129  H     H_    0.150985 0.707930 0.317796 0.191533
H130  H     H_    0.195910 0.766599 0.384805 0.203058
H131  H     H_    0.791478 0.295042 0.747704 0.255474
H132  H     H_    0.753012 0.245100 0.770500 0.265818
H133  H     H_    0.820883 0.228245 0.809918 0.257952
H134  H     H_    0.763086 0.166236 0.683409 0.192094
H135  H     H_    0.795997 0.218890 0.654927 0.198832
H136  H     H_    0.742877 0.765307 0.766265 0.265520
N1    N     N_R   0.532910 0.558440 0.665240 -0.037507
N2    N     N_R   0.402970 0.441090 0.454460 -0.037495
N3    N     N_R   0.402970 0.558910 0.454460 -0.037924
N4    N     N_R   0.597030 0.441090 0.545540 -0.040870
N5    N     N_R   0.097030 0.058910 0.545540 -0.041143
N6    N     N_R   0.902970 0.941090 0.454460 -0.036859
N7    N     N_R   0.902970 0.058910 0.454460 -0.037346
N8    N     N_R   0.097030 0.941090 0.545540 -0.038712
N9    N     N_R   0.566200 0.559270 0.454460 -0.041748
N10   N     N_R   0.433800 0.440730 0.545540 -0.038779
N11   N     N_R   0.433800 0.559270 0.545540 -0.039182
N12   N     N_R   0.467090 0.441560 0.334760 -0.036475
N13   N     N_R   0.566200 0.440730 0.454460 -0.040392
N14   N     N_R   0.066200 0.059270 0.454460 -0.040556
N15   N     N_R   0.933800 0.940730 0.545540 -0.037820
N16   N     N_R   0.933800 0.059270 0.545540 -0.038754
N17   N     N_R   0.066200 0.940730 0.454460 -0.039027
N18   N     N_R   0.421050 0.559750 0.334770 -0.039270
N19   N     N_R   0.578950 0.440250 0.665230 -0.037969
N20   N     N_R   0.578950 0.559750 0.665230 -0.037995
N21   N     N_R   0.421050 0.440250 0.334770 -0.038943
N22   N     N_R   0.921050 0.059750 0.334770 -0.039828
N23   N     N_R   0.467090 0.558440 0.334760 -0.037590
N24   N     N_R   0.078950 0.940250 0.665230 -0.038648
N25   N     N_R   0.078950 0.059750 0.665230 -0.039217
N26   N     N_R   0.921050 0.940250 0.334770 -0.040196
N27   N     N_R   0.532910 0.441560 0.665240 -0.037496
N28   N     N_R   0.032910 0.058440 0.665240 -0.038399
N29   N     N_R   0.967090 0.941560 0.334760 -0.038410
N30   N     N_R   0.967090 0.058440 0.334760 -0.037941
N31   N     N_R   0.032910 0.941560 0.665240 -0.039151
N32   N     N_R   0.597030 0.558910 0.545540 -0.041400
Ni1   Ni    Ni4+2 0.483090 0.500000 0.604440 0.206205
Ni2   Ni    Ni4+2 0.516910 0.500000 0.395560 0.213291
Ni3   Ni    Ni4+2 0.983090 0.000000 0.604440 0.208083
Ni4   Ni    Ni4+2 0.016910 0.000000 0.395560 0.215981
Ni5   Ni    Ni4+2 0.586780 0.500000 0.604440 0.209925
Ni6   Ni    Ni4+2 0.413220 0.500000 0.395560 0.212032
Ni7   Ni    Ni4+2 0.086780 0.000000 0.604440 0.213281
Ni8   Ni    Ni4+2 0.913220 0.000000 0.395560 0.215286

loop_
_geom_bond_atom_site_label_1
_geom_bond_atom_site_label_2
_ccdc_geom_bond_type
C61   C70   A    
C120  C146  A    
C31   C42   A    
C10   C184  A    
N2    Ni6   S    
C44   C175  A    
C96   C105  A    
C119  N27   A    
C16   H42   S    
C124  C133  A    
C24   C98   A    
C57   C76   A    
C137  H44   S    
C7    C171  A    
C52   C61   A    
C86   H9    S    
N6    Ni8   S    
C54   C63   A    
C175  H56   S    
C143  H93   S    
C2    C90   A    
C88   H12   S    
C89   H21   S    
C36   C97   A    
C112  C129  A    
C4    C12   A    
C124  H111  S    
C62   H74   S    
C21   C48   A    
C143  C151  A    
C45   C70   S    
C100  C109  A    
C10   C162  A    
C102  C111  A    
C87   H16   S    
C54   C83   S    
C179  H61   S    
C25   H72   S    
C128  H116  S    
N10   Ni1   S    
C150  C159  A    
C100  H91   S    
C165  C183  A    
C112  C138  A    
C127  C136  A    
C37   C108  A    
C97   H100  S    
C180  N7    A    
C85   H11   S    
C17   H64   S    
C101  C110  A    
C153  C161  A    
C17   C43   A    
C12   H39   S    
C18   C44   A    
C150  C168  A    
C145  H115  S    
C42   C117  S    
C122  H109  S    
N25   N28   A    
N17   Ni4   S    
C90   C104  A    
C115  C133  A    
C20   N13   A    
C22   C49   A    
C38   C119  A    
C9    H36   S    
C22   N15   A    
N14   Ni4   S    
C80   H127  S    
C2    C71   A    
C117  C135  A    
N24   Ni7   S    
C118  C136  A    
C178  H59   S    
C68   C77   A    
C133  H13   S    
C54   C105  A    
C152  H106  S    
C51   C181  A    
C21   N14   A    
C67   H79   S    
C181  H63   S    
C19   H66   S    
C13   C72   A    
C23   N16   A    
C39   C118  S    
C136  H45   S    
C86   H8    S    
C98   C106  A    
C134  H43   S    
N1    Ni1   S    
C18   N10   A    
C127  H114  S    
C43   C173  A    
C142  H60   S    
C24   C73   A    
C58   C89   S    
C20   C47   A    
C3    C11   A    
C84   H3    S    
C18   H65   S    
C104  C107  S    
C49   C179  A    
C130  N28   A    
N7    Ni8   S    
C52   C103  A    
C78   H130  S    
C121  C156  A    
C123  C132  A    
C48   C76   S    
C83   H6    S    
C69   C77   A    
C32   N25   A    
C166  C182  A    
N11   Ni1   S    
C48   C178  A    
C125  C160  A    
C3    C167  A    
C6    C172  A    
C85   C86   S    
C4    C170  A    
C15   H41   S    
C88   H15   S    
N15   Ni3   S    
C80   H128  S    
C176  N3    A    
C78   C80   S    
C66   C75   A    
C53   C104  A    
N18   N23   A    
C128  C164  A    
C31   N24   A    
C147  C165  A    
C59   C67   A    
C182  H46   S    
C168  C171  A    
C68   H89   S    
C153  C170  A    
C64   C73   A    
C113  C139  A    
C30   C41   A    
C114  C140  A    
C89   C91   S    
C149  C158  A    
C91   H20   S    
C19   N11   A    
N24   N31   A    
C135  H35   S    
C40   C141  A    
C20   H67   S    
N20   Ni5   S    
C79   C103  A    
N5    N14   A    
C94   C95   S    
C12   C156  A    
C46   C75   A    
C99   H90   S    
C1    C34   A    
C139  C148  A    
C33   C40   A    
C13   C96   A    
C117  C144  A    
C146  H104  S    
C15   C158  A    
C1    H99   S    
C94   H33   S    
C65   C74   A    
C28   H119  S    
C63   H75   S    
C83   C84   S    
C82   H131  S    
N13   Ni2   S    
C140  H71   S    
C9    C161  A    
C70   C174  A    
N26   Ni8   S    
C174  H81   S    
C145  C154  A    
C127  C162  A    
C92   H28   S    
C13   H84   S    
C183  H47   S    
C122  C131  A    
N26   N29   A    
C154  C162  A    
C118  C145  A    
C65   H77   S    
C141  N29   A    
C138  H49   S    
C173  H55   S    
N8    Ni7   S    
C30   N22   A    
C57   C101  A    
C96   H97   S    
C151  C169  A    
C60   C111  A    
C25   N17   A    
C60   C69   A    
C27   N19   A    
C49   C77   S    
C154  C171  A    
C148  C157  A    
C163  H107  S    
C91   H18   S    
C29   H120  S    
C93   H26   S    
C95   H30   S    
C140  C149  A    
N3    Ni6   S    
C60   C94   S    
C125  C134  A    
C87   C88   S    
C35   C74   A    
C163  N31   A    
C148  C166  A    
C149  C167  A    
C61   H73   S    
C21   H68   S    
C32   H123  S    
C126  H113  S    
C46   H87   S    
C27   H118  S    
C68   C102  A    
C84   H136  S    
N31   Ni3   S    
C85   H10   S    
C116  C134  A    
C27   C38   A    
N12   Ni2   S    
C39   C130  A    
N2    N10   A    
C90   H96   S    
C32   C39   A    
C88   H14   S    
N7    N16   A    
C22   H69   S    
C181  N8    A    
C155  C172  A    
C146  C155  A    
C5    H52   S    
C101  H92   S    
C177  N4    A    
C126  C161  A    
C105  C111  S    
C115  C142  A    
C28   C34   A    
C129  H2    S    
N25   Ni7   S    
C79   C174  A    
C23   H70   S    
C52   C78   S    
N9    Ni2   S    
C6    H53   S    
C144  H82   S    
C14   C157  A    
N4    Ni5   S    
C38   C113  S    
C23   C50   A    
C55   C106  A    
C55   C85   S    
C9    C183  A    
C175  N2    A    
C89   H22   S    
C7    H54   S    
C19   C45   A    
N18   Ni6   S    
C33   H124  S    
C147  C156  A    
N29   Ni4   S    
C5    C14   A    
C7    C16   A    
C40   C120  S    
C126  C135  A    
N16   Ni3   S    
C84   H4    S    
C108  N23   A    
C35   H86   S    
C8    C160  A    
C125  H112  S    
N19   N27   A    
C8    C182  A    
N4    N13   A    
N19   Ni5   S    
C26   H117  S    
N6    N15   A    
C121  H108  S    
C94   H32   S    
C83   H5    S    
C81   H135  S    
C121  C129  A    
C130  H103  S    
N1    N20   A    
C1    N1    A    
C98   H98   S    
C26   C37   A    
C167  C172  A    
C99   C107  A    
C24   H85   S    
C103  C109  S    
C142  C150  A    
C50   C74   S    
C80   H125  S    
C17   N9    A    
C2    H83   S    
C92   C93   S    
C122  C157  A    
C59   C92   S    
C44   C73   S    
C53   C81   S    
C8    H34   S    
C26   N18   A    
C63   C72   A    
C79   H95   S    
C5    C169  A    
C120  C137  A    
C66   H78   S    
N12   N21   A    
C87   H17   S    
C91   H19   S    
C43   C72   S    
C58   C109  A    
C95   H31   S    
N22   Ni8   S    
C81   C82   S    
C41   C152  A    
C29   C36   A    
C86   H7    S    
C14   H40   S    
C30   H121  S    
C51   C75   S    
C3    H50   S    
C31   H122  S    
C56   C65   A    
C124  C159  A    
C59   C110  A    
C144  C153  A    
C37   C112  S    
C108  H101  S    
C10   H37   S    
C6    C15   A    
C173  N32   A    
C58   C66   A    
C82   H132  S    
C168  C184  A    
C62   C71   A    
N22   N30   A    
N8    N17   A    
N23   Ni2   S    
C177  H58   S    
C78   H129  S    
N32   Ni5   S    
C165  C170  A    
C16   C159  A    
C102  H94   S    
C35   C99   A    
C11   H38   S    
C178  N5    A    
C69   H80   S    
N5    Ni7   S    
C82   H133  S    
C131  H126  S    
C184  H48   S    
C45   C176  A    
C42   C163  A    
C56   C87   S    
C57   H88   S    
C50   C180  A    
C128  C137  A    
C25   C51   A    
C56   C107  A    
C179  N6    A    
C28   N20   A    
C116  C143  A    
C53   C62   A    
N30   Ni4   S    
C138  C147  A    
C47   C71   S    
C55   C64   A    
N27   Ni1   S    
C132  H24   S    
C119  H102  S    
C93   H25   S    
C95   H29   S    
C4    H51   S    
N3    N11   A    
C41   C116  S    
C93   H23   S    
C106  C110  S    
C46   C100  A    
C113  C131  A    
C114  C132  A    
C81   H134  S    
C141  H105  S    
C123  C158  A    
C152  N30   A    
C155  C164  A    
C34   C114  S    
C29   N21   A    
C151  C160  A    
C47   C177  A    
C139  H1    S    
C123  H110  S    
C11   C164  A    
C97   N12   A    
C166  C169  A    
C92   H27   S    
C67   C76   A    
N9    N32   A    
C33   N26   A    
C36   C115  S    
N21   Ni6   S    
C64   H76   S    
N28   Ni3   S    
C176  H57   S    
C180  H62   S    
