data_mof_unit_53436.cif
_audit_creation_date              2012-12-11T14:58:38-0500
_audit_creation_method            fapswitch 2.2
_symmetry_space_group_name_H-M    P1
_symmetry_Int_Tables_number       1
_space_group_crystal_system       triclinic
_cell_length_a                    10.910231
_cell_length_b                    10.942726
_cell_length_c                    18.805089
_cell_angle_alpha                 90.483349
_cell_angle_beta                  90.328458
_cell_angle_gamma                 59.864156
_cell_volume                      1941.57099723

loop_
_atom_site_label
_atom_site_type_symbol
_atom_type_description
_atom_site_fract_x
_atom_site_fract_y
_atom_site_fract_z
_atom_type_partial_charge
C1    C     C_R   0.359192 0.772966 0.397734 0.544111
C2    C     C_R   0.246093 0.441458 0.199356 -0.155177
C3    C     C_R   0.244830 0.449636 0.273415 -0.032417
C4    C     C_R   0.386221 0.354998 0.387306 0.532630
C5    C     C_R   0.877185 0.800341 0.368913 -0.118236
C6    C     C_R   0.926215 0.663650 0.393868 -0.102210
C7    C     C_R   0.044945 0.548949 0.362866 -0.047698
C8    C     C_R   0.118079 0.570367 0.307446 0.058351
C9    C     C_R   0.363111 0.343599 0.311373 -0.002376
C10   C     C_R   0.955899 0.300781 0.307692 -0.157867
C11   C     C_R   0.984844 0.292079 0.235542 -0.125147
C12   C     C_R   0.613807 0.118374 0.165600 0.060802
C13   C     C_R   0.874951 0.332106 0.185881 0.039673
C14   C     C_R   0.735695 0.383991 0.207627 -0.151838
C15   C     C_R   0.706466 0.394745 0.279735 -0.117412
C16   C     C_R   0.778245 0.377961 0.403198 0.534809
C17   C     C_R   0.816596 0.353315 0.329467 0.039497
C18   C     C_R   0.471121 0.789439 0.287141 -0.141906
C19   C     C_R   0.458863 0.816273 0.214445 -0.153324
C20   C     C_R   0.324095 0.888513 0.184283 0.033299
C21   C     C_R   0.202729 0.944724 0.227717 -0.141752
C22   C     C_R   0.214852 0.919744 0.299663 -0.149680
C23   C     C_R   0.359625 0.330931 0.162604 -0.004329
C24   C     C_R   0.348252 0.835601 0.328923 0.029116
C25   C     C_R   0.392622 0.196901 0.693774 -0.137194
C26   C     C_R   0.383848 0.184770 0.765923 -0.123889
C27   C     C_R   0.297709 0.304622 0.807870 0.037722
C28   C     C_R   0.345525 0.766426 0.605611 0.547293
C29   C     C_R   0.210953 0.435163 0.775865 -0.138478
C30   C     C_R   0.221567 0.447936 0.703010 -0.129163
C31   C     C_R   0.318499 0.329766 0.662675 0.030416
C32   C     C_R   0.765198 0.471588 0.730639 -0.132710
C33   C     C_R   0.771534 0.462179 0.803377 -0.139583
C34   C     C_R   0.480281 0.238983 0.273733 -0.150982
C35   C     C_R   0.805779 0.334774 0.836878 0.039687
C36   C     C_R   0.804791 0.225213 0.796451 -0.006033
C37   C     C_R   0.793871 0.237780 0.722111 -0.107405
C38   C     C_R   0.781586 0.357944 0.688970 0.018629
C39   C     C_R   0.211555 0.810200 0.716484 -0.130857
C40   C     C_R   0.367859 0.350159 0.595026 0.546426
C41   C     C_R   0.205874 0.818937 0.789699 -0.136870
C42   C     C_R   0.309200 0.832701 0.827224 0.035012
C43   C     C_R   0.425396 0.824745 0.791153 -0.140284
C44   C     C_R   0.432173 0.814174 0.717772 -0.142788
C45   C     C_R   0.483101 0.233383 0.200207 -0.024386
C46   C     C_R   0.324630 0.807991 0.679925 0.037019
C47   C     C_R   0.910967 0.316098 0.111884 0.532527
C48   C     C_R   0.329678 0.295053 0.092020 0.537073
C49   C     C_R   0.300834 0.911375 0.108495 0.548922
C50   C     C_R   0.876792 0.311384 0.906212 0.543915
C51   C     C_R   0.292246 0.283870 0.883421 0.549474
C52   C     C_R   0.754980 0.381324 0.612820 0.550087
C53   C     C_R   0.277788 0.890743 0.898711 0.550527
C54   C     C_R   0.849755 0.898011 0.095836 -0.112500
C55   C     C_R   0.792092 0.036922 0.072343 -0.087194
C56   C     C_R   0.067069 0.708697 0.282605 -0.087382
C57   C     C_R   0.676188 0.147075 0.107587 -0.057925
C58   C     C_3   0.811106 0.098170 0.830598 -0.388734
C59   C     C_R   0.947599 0.822820 0.313336 -0.114043
C60   C     C_R   0.673071 0.977789 0.188789 -0.095873
C61   C     C_R   0.790214 0.868469 0.153991 -0.124998
Cr1   Cr    Cr6+3 0.601770 0.606860 0.505860 0.994763
Cr2   Cr    Cr6+3 0.291380 0.601660 0.495070 1.020511
Cr3   Cr    Cr6+3 0.606880 0.291510 0.499120 1.007637
Cr4   Cr    Cr6+3 0.062440 0.063090 0.008210 0.978371
Cr5   Cr    Cr6+3 0.062880 0.375170 0.998920 1.006046
Cr6   Cr    Cr6+3 0.374700 0.061720 0.992470 1.017675
H1    H     H_    0.575070 0.162767 0.301613 0.140965
H2    H     H_    0.552912 0.774581 0.181679 0.122566
H3    H     H_    0.096963 0.004461 0.205615 0.150726
H4    H     H_    0.834228 0.760626 0.171881 0.122767
H5    H     H_    0.119956 0.958211 0.331533 0.129366
H6    H     H_    0.465670 0.104195 0.663357 0.123374
H7    H     H_    0.447230 0.080986 0.788912 0.133233
H8    H     H_    0.140119 0.527224 0.807236 0.115341
H9    H     H_    0.162087 0.551712 0.679448 0.127266
H10   H     H_    0.746310 0.569716 0.707305 0.133181
H11   H     H_    0.762217 0.551976 0.832884 0.130869
H12   H     H_    0.784919 0.888879 0.392768 0.110793
H13   H     H_    0.794730 0.154408 0.690211 0.127091
H14   H     H_    0.129005 0.801273 0.688841 0.124516
H15   H     H_    0.909493 0.928805 0.293944 0.114805
H16   H     H_    0.117172 0.821355 0.816443 0.114289
H17   H     H_    0.507611 0.833510 0.819271 0.115074
H18   H     H_    0.522297 0.808804 0.690882 0.114773
H19   H     H_    0.939866 0.813148 0.068631 0.108168
H20   H     H_    0.836390 0.059007 0.026264 0.138804
H21   H     H_    0.631986 0.253870 0.088115 0.089905
H22   H     H_    0.120285 0.728309 0.239557 0.116403
H23   H     H_    0.872757 0.646866 0.437690 0.132247
H24   H     H_    0.627238 0.952303 0.233116 0.109083
H25   H     H_    0.152288 0.516864 0.170472 0.134334
H26   H     H_    0.731618 0.132815 0.873963 0.137693
H27   H     H_    0.787186 0.035896 0.791743 0.104336
H28   H     H_    0.918007 0.027532 0.852346 0.169828
H29   H     H_    0.082048 0.444140 0.383352 0.096633
H30   H     H_    0.040930 0.266924 0.346072 0.097095
H31   H     H_    0.093013 0.252538 0.218197 0.125385
H32   H     H_    0.650541 0.417355 0.169306 0.099258
H33   H     H_    0.597696 0.437976 0.296996 0.125213
H34   H     H_    0.575935 0.723907 0.309437 0.144617
O1    O     O_R   0.748800 0.497470 0.428000 -0.531478
O2    O     O_R   0.417600 0.174890 0.067840 -0.505146
O3    O     O_R   0.375320 0.946260 0.070860 -0.495368
O4    O     O_R   0.476420 0.724060 0.429470 -0.511849
O5    O     O_R   0.160600 0.919630 0.926660 -0.535729
O6    O     O_R   0.933060 0.190520 0.936020 -0.519045
O7    O     O_R   0.908880 0.403460 0.925020 -0.524398
O8    O     O_R   0.179600 0.361450 0.918490 -0.501392
O9    O     O_R   0.391510 0.170860 0.907530 -0.534635
O10   O     O_R   0.351130 0.942530 0.922260 -0.507810
O11   O     O_3   0.166667 0.166667 0.999870 -0.242699
O12   O     O_R   0.300070 0.471040 0.567100 -0.509276
O13   O     O_R   0.264580 0.744340 0.416750 -0.505305
O14   O     O_R   0.309380 0.472470 0.418200 -0.494019
O15   O     O_R   0.501710 0.260430 0.414300 -0.532357
O16   O     O_R   0.728090 0.305600 0.428960 -0.502111
O17   O     O_R   0.738760 0.495930 0.588610 -0.530445
O18   O     O_R   0.467110 0.722640 0.578360 -0.509183
O19   O     O_R   0.254530 0.742800 0.577360 -0.528484
O20   O     O_R   0.491670 0.258900 0.574910 -0.522651
O21   O     O_R   0.718780 0.304180 0.577850 -0.503938
O22   O     O_3   0.500010 0.500010 0.500020 -0.245928
O23   O     O_R   0.186690 0.923650 0.086970 -0.531992
O24   O     O_R   0.957250 0.194250 0.084630 -0.518909
O25   O     O_R   0.934970 0.407490 0.085330 -0.517555
O26   O     O_R   0.203780 0.365190 0.067090 -0.509676

loop_
_geom_bond_atom_site_label_1
_geom_bond_atom_site_label_2
_ccdc_geom_bond_type
C25   C31   A    
C23   C45   A    
C27   C29   A    
C11   C13   A    
C41   C42   A    
C4    O14   A    
C19   C20   A    
C59   H15   S    
C15   H33   S    
C43   C44   A    
C8    C56   A    
C49   O3    A    
Cr6   O2    S    
C14   H32   S    
C39   C41   A    
Cr1   O4    S    
C31   C40   S    
C40   O20   A    
C28   C46   S    
C26   C27   A    
C29   C30   A    
C11   H31   S    
Cr3   O15   S    
C5    C6    A    
C36   C37   A    
C37   C38   A    
C36   C58   S    
C42   C53   S    
C30   C31   A    
C33   H11   S    
C38   C52   S    
C10   C17   A    
Cr3   O20   S    
C41   H16   S    
Cr5   O26   S    
C18   C19   A    
Cr4   O23   S    
C33   C35   A    
C32   H10   S    
Cr2   O13   S    
C52   O21   A    
C53   O5    A    
C35   C36   A    
C27   C51   S    
C16   C17   S    
C32   C38   A    
C5    H12   S    
C25   H6    S    
Cr2   O14   S    
C53   O10   A    
C51   O8    A    
C21   C22   A    
C50   O7    A    
C43   H17   S    
C22   H5    S    
Cr1   O22   S    
C44   C46   A    
Cr6   O3    S    
C47   O24   A    
C37   H13   S    
C5    C59   A    
C7    C8    A    
C39   H14   S    
C3    C8    S    
C28   O19   A    
C34   H1    S    
C13   C47   S    
C25   C26   A    
C6    H23   S    
C48   O2    A    
Cr3   O16   S    
Cr5   O25   S    
C60   C61   A    
C18   H34   S    
Cr4   O24   S    
C10   H30   S    
C58   H28   S    
Cr4   O11   S    
C20   C49   S    
C7    H29   S    
C30   H9    S    
Cr6   O9    S    
C40   O12   A    
C35   C50   S    
C34   C45   A    
C2    H25   S    
C3    C9    A    
Cr1   O18   S    
C39   C46   A    
C12   C57   A    
C16   O1    A    
C56   H22   S    
C51   O9    A    
C55   C57   A    
C50   O6    A    
C18   C24   A    
C19   H2    S    
C42   C43   A    
C44   H18   S    
Cr4   O5    S    
C47   O25   A    
C54   H19   S    
C60   H24   S    
Cr6   O10   S    
C15   C17   A    
C54   C55   A    
C23   C48   S    
C4    O15   A    
Cr5   O7    S    
C12   C45   S    
C28   O18   A    
Cr2   O22   S    
C57   H21   S    
C6    C7    A    
C29   H8    S    
C54   C61   A    
Cr3   O22   S    
C56   C59   A    
C21   H3    S    
C32   C33   A    
C2    C3    A    
C58   H27   S    
C16   O16   A    
C48   O26   A    
Cr2   O19   S    
C49   O23   A    
C61   H4    S    
C9    C34   A    
Cr3   O21   S    
C26   H7    S    
Cr2   O12   S    
C22   C24   A    
Cr5   O8    S    
C55   H20   S    
Cr1   O17   S    
C10   C11   A    
C12   C60   A    
Cr6   O11   S    
C20   C21   A    
C1    C24   S    
C1    O13   A    
C2    C23   A    
C14   C15   A    
C58   H26   S    
Cr5   O11   S    
C4    C9    S    
C13   C14   A    
Cr4   O6    S    
C1    O4    A    
Cr1   O1    S    
C52   O17   A    
