data_mof_unit_10005.cif
_audit_creation_date              2012-12-10T17:31:16-0500
_audit_creation_method            fapswitch 2.2
_symmetry_space_group_name_H-M    P1
_symmetry_Int_Tables_number       1
_space_group_crystal_system       triclinic
_cell_length_a                    11.999173
_cell_length_b                    12.859162
_cell_length_c                    15.504886
_cell_angle_alpha                 86.812966
_cell_angle_beta                  115.226082
_cell_angle_gamma                 94.030476
_cell_volume                      2158.01397307

loop_
_atom_site_label
_atom_site_type_symbol
_atom_type_description
_atom_site_fract_x
_atom_site_fract_y
_atom_site_fract_z
_atom_type_partial_charge
C1    C     C_R   0.476201 0.299855 0.497540 0.926629
C2    C     C_R   0.610812 0.968516 0.451127 0.104661
C3    C     C_R   0.413251 0.141350 0.559739 -0.308551
C4    C     C_R   0.609413 0.861776 0.463088 -0.240024
C5    C     C_R   0.516947 0.132358 0.456003 0.030084
C6    C     C_R   0.487014 0.866257 0.553498 0.039758
C7    C     C_R   0.536813 0.026194 0.480853 0.022672
C8    C     C_R   0.480511 0.975244 0.538726 0.080792
C9    C     C_R   0.004455 0.599897 0.411248 -0.379422
C10   C     C_R   0.995284 0.399861 0.588513 -0.374598
C11   C     C_R   0.125333 0.590758 0.419867 0.284152
C12   C     C_R   0.524586 0.700194 0.504031 0.925890
C13   C     C_R   0.874823 0.409698 0.580540 0.275581
C14   C     C_R   0.159268 0.455901 0.537740 -0.098934
C15   C     C_R   0.839983 0.543064 0.461199 -0.094584
C16   C     C_R   0.575586 0.494988 0.680464 0.867779
C17   C     C_R   0.424342 0.504937 0.319676 0.897326
C18   C     C_R   0.038930 0.463243 0.531790 0.079255
C19   C     C_R   0.960540 0.536088 0.467521 0.075858
C20   C     C_R   0.622611 0.506754 0.783687 -0.101113
C21   C     C_R   0.382177 0.522915 0.216903 -0.059835
C22   C     C_R   0.790885 0.551962 0.935570 -0.211496
C23   C     C_R   0.660734 0.579840 0.110278 -0.241446
C24   C     C_R   0.234826 0.592774 0.066216 -0.210786
C25   C     C_R   0.748832 0.529126 0.839481 -0.224841
C26   C     C_R   0.266819 0.563624 0.161333 -0.244725
C27   C     C_R   0.538593 0.507627 0.825341 0.037480
C28   C     C_R   0.465878 0.511679 0.176992 0.032640
C29   C     C_R   0.578147 0.548755 0.915907 0.083089
C30   C     C_R   0.442829 0.558937 0.087494 0.043770
C31   C     C_R   0.706109 0.560958 0.974568 0.138739
C32   C     C_R   0.321734 0.589576 0.028469 0.158185
C33   C     C_R   0.493242 0.570386 0.952372 0.089765
C34   C     C_R   0.372224 0.599859 0.893436 -0.195338
C35   C     C_R   0.533040 0.567764 0.051470 0.051998
C36   C     C_R   0.746377 0.580261 0.071377 -0.226343
C37   C     C_R   0.288875 0.613605 0.932065 -0.238987
C38   C     C_R   0.542245 0.811446 0.508214 -0.114627
C39   C     C_R   0.463428 0.188680 0.501155 -0.064555
C40   C     C_R   0.417982 0.034943 0.577405 0.107870
H1    H     H_    0.945742 0.656411 0.360834 0.142550
H2    H     H_    0.165251 0.733354 0.376596 0.166820
H3    H     H_    0.564439 0.392598 0.166094 0.193687
H4    H     H_    0.643996 0.471594 0.260596 0.196104
H5    H     H_    0.429929 0.379329 0.761170 0.181305
H6    H     H_    0.357369 0.494414 0.728004 0.207688
H7    H     H_    0.201170 0.571973 0.191045 0.165101
H8    H     H_    0.815001 0.528239 0.809098 0.166594
H9    H     H_    0.889047 0.564403 0.978771 0.137344
H10   H     H_    0.143168 0.619185 0.022706 0.135923
H11   H     H_    0.343770 0.812401 0.585293 0.217643
H12   H     H_    0.054034 0.343430 0.638997 0.146422
H13   H     H_    0.483658 0.834667 0.683273 0.203737
H14   H     H_    0.630368 0.200979 0.397615 0.199459
H15   H     H_    0.494377 0.139719 0.317222 0.184634
H16   H     H_    0.659261 0.817466 0.434656 0.172495
H17   H     H_    0.372081 0.187734 0.593802 0.154246
H18   H     H_    0.267765 0.006842 0.604511 0.188169
H19   H     H_    0.402140 0.026195 0.702508 0.185306
H20   H     H_    0.650400 0.041751 0.345664 0.181693
H21   H     H_    0.753002 0.071798 0.461769 0.185589
H22   H     H_    0.778720 0.598746 0.411823 0.127167
H23   H     H_    0.694654 0.595854 0.185064 0.145102
H24   H     H_    0.219703 0.399016 0.585941 0.125696
H25   H     H_    0.343473 0.617840 0.818337 0.154674
H26   H     H_    0.843818 0.591592 0.117527 0.141288
H27   H     H_    0.197196 0.638049 0.885769 0.145724
H28   H     H_    0.891176 0.359549 0.710678 0.158206
H29   H     H_    0.836484 0.267864 0.626430 0.162412
H30   H     H_    0.108521 0.644045 0.290485 0.144036
N1    N     N_R   0.799120 0.480200 0.517090 -0.093145
N2    N     N_3   0.696276 0.014261 0.415877 -0.473652
N3    N     N_R   0.200880 0.519800 0.482910 -0.093371
N4    N     N_3   0.831410 0.345907 0.639468 -0.400027
N5    N     N_3   0.169145 0.655683 0.361844 -0.400856
N6    N     N_3   0.558393 0.435552 0.219132 -0.442371
N7    N     N_3   0.420346 0.451432 0.784677 -0.466222
N8    N     N_3   0.439519 0.808047 0.613615 -0.442377
N9    N     N_3   0.536776 0.183770 0.378584 -0.457945
N10   N     N_3   0.361116 0.990334 0.636482 -0.495793
O1    O     O_R   0.580150 0.341050 0.504560 -0.588916
O2    O     O_R   0.419850 0.658950 0.495440 -0.582007
O3    O     O_R   0.388090 0.353760 0.493600 -0.633128
O4    O     O_R   0.611910 0.646240 0.506400 -0.636075
O5    O     O_R   0.650890 0.490020 0.640860 -0.601057
O6    O     O_R   0.349110 0.509980 0.359140 -0.608083
O7    O     O_R   0.458830 0.502730 0.629890 -0.629059
O8    O     O_R   0.541170 0.497270 0.370110 -0.607667
Zn1   Zn    Zn3+2 0.628240 0.491510 0.507320 0.958150
Zn2   Zn    Zn3+2 0.371760 0.508490 0.492680 0.953021

loop_
_geom_bond_atom_site_label_1
_geom_bond_atom_site_label_2
_ccdc_geom_bond_type
C21   C26   A    
C27   C29   A    
C34   C37   A    
C14   C18   A    
C2    C7    A    
C10   H12   S    
C7    C8    A    
C15   C19   A    
H2    N5    S    
C30   C35   A    
C24   C26   A    
N3    Zn2   S    
C36   H26   S    
C6    N8    S    
C20   C25   A    
H20   N2    S    
H28   N4    S    
C17   O8    A    
C29   C33   A    
C12   O4    A    
C18   C19   A    
H4    N6    S    
C9    C19   A    
C22   C25   A    
C16   O7    A    
C40   N10   S    
C5    N9    S    
H18   N10   S    
O1    Zn1   S    
C23   H23   S    
C3    C39   A    
C4    H16   S    
C2    N2    S    
C34   H25   S    
C24   H10   S    
C22   C31   A    
C17   O6    A    
C14   N3    A    
O6    Zn2   S    
C5    C7    A    
O5    Zn1   S    
C6    C8    A    
C13   N1    A    
C17   C21   S    
C2    C4    A    
C24   C32   A    
H15   N9    S    
N1    Zn1   S    
C16   C20   S    
C14   H24   S    
C6    C38   A    
C33   C34   A    
C12   O2    A    
H29   N4    S    
C32   C37   A    
C13   N4    S    
C9    C11   A    
C25   H8    S    
C26   H7    S    
C22   H9    S    
C3    H17   S    
H21   N2    S    
C21   C28   A    
C4    C38   A    
C3    C40   A    
C23   C35   A    
C5    C39   A    
C11   N3    A    
C16   O5    A    
O4    Zn1   S    
C28   N6    S    
H14   N9    S    
H3    N6    S    
O3    Zn2   S    
C27   N7    S    
C10   C13   A    
H19   N10   S    
H6    N7    S    
C20   C27   A    
C1    O3    A    
C15   N1    A    
C9    H1    S    
O2    Zn2   S    
C28   C30   A    
H13   N8    S    
H11   N8    S    
C29   C31   A    
C11   N5    S    
C30   C32   A    
C10   C18   A    
C37   H27   S    
C33   C35   A    
C15   H22   S    
C12   C38   S    
C1    C39   S    
O8    Zn1   S    
C23   C36   A    
O7    Zn2   S    
H30   N5    S    
C31   C36   A    
H5    N7    S    
C8    C40   A    
C1    O1    A    
