data_mof_unit_11835.cif
_audit_creation_date              2012-12-10T17:06:11-0500
_audit_creation_method            fapswitch 2.2
_symmetry_space_group_name_H-M    P1
_symmetry_Int_Tables_number       1
_space_group_crystal_system       triclinic
_cell_length_a                    10.652468
_cell_length_b                    11.00554
_cell_length_c                    9.828775
_cell_angle_alpha                 111.102751
_cell_angle_beta                  98.29667
_cell_angle_gamma                 90.113052
_cell_volume                      1061.94378079

loop_
_atom_site_label
_atom_site_type_symbol
_atom_type_description
_atom_site_fract_x
_atom_site_fract_y
_atom_site_fract_z
_atom_type_partial_charge
C1    C     C_R   0.488326 0.254258 0.440908 0.852493
C2    C     C_R   0.511663 0.745743 0.559093 0.852506
C3    C     C_R   0.259869 0.505787 0.502558 0.775846
C4    C     C_R   0.740132 0.494215 0.497443 0.775851
C5    C     C_3   0.057148 0.445589 0.593566 -0.204913
C6    C     C_3   0.942854 0.554415 0.406436 -0.204903
C7    C     C_3   0.960789 0.374317 0.453377 0.044802
C8    C     C_3   0.039214 0.625686 0.546625 0.044802
C9    C     C_3   0.876398 0.491012 0.494900 -0.034666
C10   C     C_3   0.123603 0.508991 0.505101 -0.034672
C11   C     C_3   0.971478 0.563139 0.635539 -0.175809
C12   C     C_3   0.028523 0.436866 0.364463 -0.175803
C13   C     C_2   0.480077 0.115040 0.407783 -0.377647
C14   C     C_2   0.519893 0.884961 0.592218 -0.377599
C15   C     C_2   0.502967 0.069578 0.516674 -0.159696
C16   C     C_2   0.496972 0.930423 0.483330 -0.159691
C17   C     C_2   0.510235 0.510416 0.081381 -0.076303
C18   C     C_2   0.489765 0.489584 0.918619 -0.076309
Cu1   Cu    Cu3+1 0.522260 0.521810 0.644920 0.928278
Cu2   Cu    Cu3+1 0.477740 0.478190 0.355080 0.928291
H1    H     H_    0.947346 0.615009 0.747539 0.147624
H2    H     H_    0.052656 0.384996 0.252463 0.147621
H3    H     H_    0.472877 0.864879 0.368825 0.181016
H4    H     H_    0.527050 0.135122 0.631180 0.181022
H5    H     H_    0.543404 0.950826 0.706577 0.146892
H6    H     H_    0.456581 0.049174 0.293422 0.146902
H7    H     H_    0.623707 0.623279 0.934774 0.187011
H8    H     H_    0.376293 0.376721 0.065226 0.187007
N1    N     N_2   0.444270 0.445410 0.137360 -0.284838
N2    N     N_2   0.555730 0.554590 0.862640 -0.284840
O1    O     O_R   0.511880 0.332340 0.577400 -0.576759
O2    O     O_R   0.488120 0.667660 0.422600 -0.576759
O3    O     O_R   0.474280 0.295500 0.332650 -0.578376
O4    O     O_R   0.525720 0.704500 0.667350 -0.578391
O5    O     O_R   0.335640 0.518390 0.622350 -0.584011
O6    O     O_R   0.664360 0.481610 0.377650 -0.583986
O7    O     O_R   0.298050 0.481550 0.377590 -0.575711
O8    O     O_R   0.701950 0.518450 0.622410 -0.575711
C19   C     C_R   0.933180 0.228905 0.398648 0.084741
C20   C     C_R   0.035336 0.146790 0.386109 -0.155491
C21   C     C_R   0.012986 0.011391 0.334398 -0.103070
C22   C     C_R   0.888552 0.956721 0.294198 -0.116823
C23   C     C_R   0.786510 0.037442 0.304864 -0.134508
C24   C     C_R   0.808554 0.173106 0.356825 -0.139871
H9    H     H_    0.132432 0.187706 0.416734 0.123117
H10   H     H_    0.092144 0.948939 0.326181 0.139202
H11   H     H_    0.871208 0.851882 0.254560 0.114828
H12   H     H_    0.690372 0.994523 0.271893 0.133854
H13   H     H_    0.728698 0.233625 0.362276 0.129319
C25   C     C_R   0.066839 0.771097 0.601350 0.084761
C26   C     C_R   0.964692 0.853219 0.613750 -0.155481
C27   C     C_R   0.987058 0.988616 0.665443 -0.103081
C28   C     C_R   0.111497 0.043275 0.705770 -0.116785
C29   C     C_R   0.213530 0.962547 0.695260 -0.134426
C30   C     C_R   0.191472 0.826886 0.643314 -0.139939
H14   H     H_    0.867591 0.812312 0.583027 0.123103
H15   H     H_    0.907907 0.051072 0.673546 0.139234
H16   H     H_    0.128853 0.148111 0.745393 0.114819
H17   H     H_    0.309670 0.005459 0.728341 0.133810
H18   H     H_    0.271320 0.766365 0.637993 0.129370
H19   H     H_    0.105387 0.401774 0.671322 0.133179
H20   H     H_    0.894616 0.598228 0.328678 0.133167
H21   H     H_    0.416982 0.417187 0.845403 0.156202
H22   H     H_    0.583017 0.582813 0.154596 0.156200

loop_
_geom_bond_atom_site_label_1
_geom_bond_atom_site_label_2
_ccdc_geom_bond_type
C24   H13   S    
C23   C24   A    
C4    O6    A    
C19   C24   A    
C18   N2    D    
Cu1   O8    S    
C12   H2    S    
C17   N1    D    
C21   C22   A    
C25   C30   A    
C3    O5    A    
C21   H10   S    
C23   H12   S    
Cu1   O1    S    
C6    H20   S    
C6    C9    S    
C17   C18   S    
C5    H19   S    
C5    C10   S    
C14   H5    S    
C3    C10   S    
Cu1   O5    S    
C28   C29   A    
H7    N2    S    
Cu2   O7    S    
C9    C11   S    
C2    O4    A    
C7    C12   S    
C10   C12   S    
Cu2   N1    S    
C8    C11   S    
C28   H16   S    
Cu2   O3    S    
C8    C10   S    
H8    N1    S    
C4    O8    A    
C5    C11   S    
C16   H3    S    
C5    C7    S    
C29   H17   S    
C13   C15   D    
C17   H22   S    
C6    C12   S    
C20   H9    S    
C2    C14   S    
C14   C16   D    
C18   H21   S    
C1    C13   S    
C27   H15   S    
C13   H6    S    
C1    O3    A    
C26   C27   A    
Cu2   O6    S    
C8    C25   S    
C1    O1    A    
C22   H11   S    
C27   C28   A    
C3    O7    A    
C2    O2    A    
C26   H14   S    
Cu2   O2    S    
C19   C20   A    
C7    C9    S    
C7    C19   S    
C29   C30   A    
C20   C21   A    
C6    C8    S    
C25   C26   A    
C4    C9    S    
C30   H18   S    
Cu1   N2    S    
C15   H4    S    
C11   H1    S    
C15   C16   S    
Cu1   Cu2   S    
C22   C23   A    
Cu1   O4    S    
