data_mof_unit_15854.cif
_audit_creation_date              2012-12-10T19:36:46-0500
_audit_creation_method            fapswitch 2.2
_symmetry_space_group_name_H-M    P1
_symmetry_Int_Tables_number       1
_space_group_crystal_system       triclinic
_cell_length_a                    11.698608
_cell_length_b                    15.867099
_cell_length_c                    16.937843
_cell_angle_alpha                 96.373467
_cell_angle_beta                  90.879398
_cell_angle_gamma                 92.288202
_cell_volume                      3121.50983145

loop_
_atom_site_label
_atom_site_type_symbol
_atom_type_description
_atom_site_fract_x
_atom_site_fract_y
_atom_site_fract_z
_atom_type_partial_charge
C1    C     C_R   0.502806 0.489454 0.348431 0.825062
C2    C     C_R   0.510556 0.114419 0.510033 0.316193
C3    C     C_R   0.559753 0.860603 0.551414 -0.309961
C4    C     C_R   0.433916 0.139617 0.452308 -0.305663
C5    C     C_R   0.571794 0.773233 0.560351 0.301460
C6    C     C_R   0.422980 0.226937 0.442677 0.300360
C7    C     C_R   0.283903 0.500127 0.498689 0.819661
C8    C     C_R   0.716097 0.499794 0.500344 0.815667
C9    C     C_1   0.162294 0.500355 0.498330 -0.194803
C10   C     C_1   0.837682 0.499413 0.499779 -0.195875
C11   C     C_1   0.059841 0.500078 0.498522 -0.014309
C12   C     C_R   0.497845 0.510655 0.651361 0.821042
C13   C     C_1   0.940120 0.499602 0.499146 -0.009135
C14   C     C_R   0.498245 0.483902 0.261444 -0.101055
C15   C     C_R   0.481920 0.518275 0.737199 -0.095383
C16   C     C_R   0.570083 0.431952 0.212054 0.111110
C17   C     C_R   0.371340 0.522881 0.769923 0.094597
C18   C     C_R   0.555145 0.428033 0.127854 0.085293
C19   C     C_R   0.360824 0.535244 0.853909 0.111431
C20   C     C_R   0.470997 0.477681 0.095344 0.254768
C21   C     C_R   0.460899 0.541537 0.902909 0.276065
C22   C     C_R   0.397974 0.526624 0.146922 0.085232
C23   C     C_R   0.415098 0.530317 0.228597 -0.313466
C24   C     C_R   0.570163 0.541810 0.868518 0.074476
C25   C     C_3   0.266317 0.516504 0.715017 -0.401372
C26   C     C_3   0.234494 0.604024 0.694152 -0.833701
C27   C     C_3   0.664508 0.385022 0.249799 -0.391031
C28   C     C_3   0.763705 0.445846 0.281097 -0.809659
C29   C     C_3   0.244678 0.543714 0.891974 -0.396675
C30   C     C_3   0.195492 0.458056 0.911741 -0.849494
C31   C     C_3   0.627905 0.371219 0.071592 -0.376602
C32   C     C_3   0.752161 0.405244 0.068498 -0.844674
C33   C     C_3   0.293726 0.569318 0.119388 -0.372720
C34   C     C_R   0.579246 0.529161 0.786115 -0.316376
C35   C     C_3   0.315617 0.665660 0.121835 -0.326705
C36   C     C_3   0.205651 0.710083 0.105771 -0.880025
C37   C     C_3   0.678238 0.557053 0.918965 -0.379750
C38   C     C_3   0.694317 0.650705 0.952316 -0.336401
C39   C     C_3   0.803252 0.666158 0.003480 -0.857763
C40   C     C_3   0.658013 0.157073 0.620380 -0.404232
C41   C     C_3   0.594989 0.135366 0.694728 -0.322725
C42   C     C_3   0.678621 0.112501 0.758208 -0.862827
C43   C     C_3   0.353501 0.842000 0.372542 -0.406761
C44   C     C_3   0.236739 0.870020 0.403016 -0.323185
C45   C     C_R   0.443201 0.736102 0.451693 0.010563
C46   C     C_3   0.159327 0.890386 0.334929 -0.857500
C47   C     C_3   0.648368 0.749659 0.625980 -0.370681
C48   C     C_3   0.592737 0.767189 0.706793 -0.843693
C49   C     C_3   0.340577 0.250558 0.380335 -0.367920
C50   C     C_3   0.381560 0.222924 0.296641 -0.867768
C51   C     C_R   0.561067 0.263682 0.545663 0.010707
C52   C     C_R   0.430039 0.821276 0.439988 -0.047366
C53   C     C_R   0.574484 0.178432 0.557184 -0.048251
C54   C     C_R   0.488383 0.885564 0.490450 0.318712
Cu1   Cu    Cu3+1 0.494550 0.415220 0.496180 0.915632
Cu2   Cu    Cu3+1 0.505450 0.584780 0.503820 0.917479
H1    H     H_    0.358878 0.567619 0.267725 0.152847
H2    H     H_    0.281142 0.474615 0.659649 0.200859
H3    H     H_    0.192045 0.485335 0.741448 0.206602
H4    H     H_    0.800560 0.478884 0.232368 0.251729
H5    H     H_    0.734814 0.494236 0.328015 0.240694
H6    H     H_    0.831700 0.409726 0.306866 0.237190
H7    H     H_    0.631168 0.351162 0.298812 0.215425
H8    H     H_    0.698767 0.333696 0.208736 0.201747
H9    H     H_    0.180345 0.413870 0.856720 0.245391
H10   H     H_    0.254704 0.428675 0.951398 0.268636
H11   H     H_    0.112762 0.467142 0.942163 0.234994
H12   H     H_    0.662979 0.529216 0.759482 0.142528
H13   H     H_    0.251860 0.590008 0.945737 0.204483
H14   H     H_    0.182225 0.571941 0.853994 0.204258
H15   H     H_    0.758543 0.475376 0.081861 0.252317
H16   H     H_    0.807736 0.377035 0.111218 0.250064
H17   H     H_    0.786418 0.387863 0.008337 0.232415
H18   H     H_    0.624889 0.305451 0.088209 0.179849
H19   H     H_    0.592383 0.363774 0.010014 0.214582
H20   H     H_    0.142251 0.700150 0.152370 0.254088
H21   H     H_    0.224719 0.779300 0.106636 0.244585
H22   H     H_    0.168070 0.685368 0.046762 0.251737
H23   H     H_    0.611714 0.311749 0.582310 0.158448
H24   H     H_    0.350235 0.692175 0.181336 0.212739
H25   H     H_    0.379644 0.679725 0.076863 0.231368
H26   H     H_    0.264989 0.540733 0.059990 0.219712
H27   H     H_    0.221220 0.556402 0.158725 0.183641
H28   H     H_    0.798426 0.628785 0.055107 0.253233
H29   H     H_    0.879276 0.647937 0.967988 0.251171
H30   H     H_    0.813375 0.734531 0.025985 0.243265
H31   H     H_    0.620187 0.670513 0.989152 0.229413
H32   H     H_    0.699770 0.690605 0.902411 0.214042
H33   H     H_    0.674430 0.516605 0.967959 0.231593
H34   H     H_    0.394428 0.688060 0.413749 0.155392
H35   H     H_    0.754278 0.538366 0.883507 0.185018
H36   H     H_    0.726402 0.056037 0.735378 0.253143
H37   H     H_    0.740170 0.166622 0.776131 0.253792
H38   H     H_    0.630700 0.097469 0.811323 0.241208
H39   H     H_    0.546567 0.190849 0.719467 0.216734
H40   H     H_    0.533181 0.080788 0.679355 0.232891
H41   H     H_    0.709571 0.103043 0.596278 0.213888
H42   H     H_    0.719436 0.211652 0.637379 0.183172
H43   H     H_    0.198538 0.943079 0.305134 0.252493
H44   H     H_    0.145059 0.833565 0.290766 0.255586
H45   H     H_    0.606164 0.908202 0.591753 0.167005
H46   H     H_    0.075308 0.910086 0.358562 0.242947
H47   H     H_    0.194676 0.818388 0.432881 0.216557
H48   H     H_    0.247681 0.927387 0.446900 0.232216
H49   H     H_    0.395731 0.892547 0.341367 0.213792
H50   H     H_    0.340346 0.785488 0.327713 0.181370
H51   H     H_    0.580077 0.836175 0.721043 0.242033
H52   H     H_    0.508652 0.732141 0.707106 0.270738
H53   H     H_    0.648904 0.745975 0.753557 0.236052
H54   H     H_    0.668798 0.682006 0.616399 0.243851
H55   H     H_    0.731098 0.786675 0.626286 0.171313
H56   H     H_    0.382509 0.092176 0.415065 0.167750
H57   H     H_    0.468043 0.251356 0.288049 0.256408
H58   H     H_    0.384382 0.152718 0.286021 0.245179
H59   H     H_    0.321703 0.244604 0.252306 0.242126
H60   H     H_    0.255133 0.219935 0.388555 0.175656
H61   H     H_    0.329376 0.319607 0.385854 0.248350
H62   H     H_    0.303374 0.632253 0.659923 0.275935
H63   H     H_    0.154512 0.598059 0.657523 0.243745
H64   H     H_    0.220497 0.647877 0.748520 0.237082
N1    N     N_2   0.463825 0.476290 0.011073 -0.264421
N2    N     N_2   0.453024 0.547024 0.986869 -0.256696
N3    N     N_R   0.513630 0.712130 0.509560 -0.194895
N4    N     N_R   0.486370 0.287870 0.490440 -0.197402
N5    N     N_2   0.472102 0.972549 0.477299 -0.245657
N6    N     N_2   0.526860 0.027403 0.523080 -0.245622
O1    O     O_R   0.494910 0.420530 0.382500 -0.585684
O2    O     O_R   0.505090 0.579470 0.617500 -0.576947
O3    O     O_R   0.504100 0.563720 0.388950 -0.593200
O4    O     O_R   0.495900 0.436280 0.611050 -0.596350
O5    O     O_R   0.332600 0.428410 0.496780 -0.591375
O6    O     O_R   0.667400 0.571590 0.503220 -0.585826
O7    O     O_R   0.341800 0.571600 0.503230 -0.583775
O8    O     O_R   0.658200 0.428400 0.496770 -0.581218

loop_
_geom_bond_atom_site_label_1
_geom_bond_atom_site_label_2
_ccdc_geom_bond_type
Cu1   Cu2   S    
C42   H37   S    
C41   C42   S    
C35   C36   S    
C6    N4    A    
C46   H43   S    
Cu2   O7    S    
C44   H48   S    
C32   H16   S    
C41   H39   S    
C45   N3    A    
C5    C47   S    
C29   C30   S    
C12   O4    A    
C19   C21   A    
C26   H64   S    
C39   H28   S    
C7    O7    A    
C1    O3    A    
C36   H21   S    
C40   H42   S    
C38   C39   S    
C3    C54   A    
C43   C52   S    
C48   H51   S    
Cu1   O8    S    
C35   H24   S    
C23   H1    S    
C50   H59   S    
C43   H49   S    
C21   N2    S    
C36   H20   S    
C17   C19   A    
C49   H61   S    
C31   C32   S    
C52   C54   A    
C8    O6    A    
C33   H26   S    
C15   C34   A    
C7    O5    A    
C30   H11   S    
C28   H5    S    
C3    H45   S    
C16   C27   S    
C48   H53   S    
C4    H56   S    
C51   N4    A    
C44   H47   S    
C44   C46   S    
C32   H15   S    
C29   H13   S    
C28   H4    S    
C35   H25   S    
C54   N5    S    
C37   H35   S    
C8    O8    A    
Cu2   N3    S    
C26   H62   S    
C26   H63   S    
C4    C6    A    
Cu2   O3    S    
C34   H12   S    
C40   H41   S    
C31   H18   S    
C45   C52   A    
C25   C26   S    
C10   C13   T    
C24   C34   A    
C38   H32   S    
C50   H58   S    
C43   H50   S    
C14   C23   A    
C2    C4    A    
C43   C44   S    
C37   C38   S    
C46   H46   S    
C31   H19   S    
C47   C48   S    
C12   C15   S    
Cu1   O4    S    
C24   C37   S    
C20   N1    S    
Cu2   O6    S    
C45   H34   S    
C33   H27   S    
N1    N2    D    
C30   H10   S    
C27   H7    S    
C2    N6    S    
C16   C18   A    
C40   C41   S    
Cu1   O1    S    
C49   C50   S    
Cu1   O5    S    
C9    C11   T    
N5    N6    D    
C14   C16   A    
C25   H2    S    
C39   H29   S    
C19   C29   S    
C32   H17   S    
C29   H14   S    
C7    C9    S    
C22   C33   S    
C46   H44   S    
Cu1   N4    S    
C42   H36   S    
C42   H38   S    
C1    O1    A    
C20   C22   A    
C3    C5    A    
C2    C53   A    
C15   C17   A    
C12   O2    A    
C1    C14   S    
C47   H54   S    
C5    N3    A    
C37   H33   S    
C38   H31   S    
C50   H57   S    
C17   C25   S    
C36   H22   S    
C11   C13   S    
C48   H52   S    
C47   H55   S    
C33   C35   S    
C18   C20   A    
Cu2   O2    S    
C6    C49   S    
C51   H23   S    
C30   H9    S    
C27   H8    S    
C41   H40   S    
C49   H60   S    
C8    C10   S    
C40   C53   S    
C21   C24   A    
C27   C28   S    
C22   C23   A    
C18   C31   S    
C25   H3    S    
C39   H30   S    
C51   C53   A    
C28   H6    S    
