data_mof_unit_55783.cif
_audit_creation_date              2012-12-10T21:10:41-0500
_audit_creation_method            fapswitch 2.2
_symmetry_space_group_name_H-M    P1
_symmetry_Int_Tables_number       1
_space_group_crystal_system       triclinic
_cell_length_a                    17.458487
_cell_length_b                    16.741349
_cell_length_c                    10.515964
_cell_angle_alpha                 90.117076
_cell_angle_beta                  91.177625
_cell_angle_gamma                 90.155561
_cell_volume                      3072.92420055

loop_
_atom_site_label
_atom_site_type_symbol
_atom_type_description
_atom_site_fract_x
_atom_site_fract_y
_atom_site_fract_z
_atom_type_partial_charge
C1    C     C_R   0.352987 0.499902 0.503255 0.854692
C2    C     C_R   0.647102 0.500186 0.500489 0.853158
C3    C     C_R   0.730059 0.500491 0.513115 -0.084342
C4    C     C_R   0.271062 0.499412 0.524865 -0.088890
C5    C     C_R   0.771157 0.430202 0.491120 -0.243103
C6    C     C_R   0.235004 0.428236 0.561020 -0.245948
C7    C     C_R   0.849842 0.427742 0.515725 0.244921
C8    C     C_R   0.157271 0.427334 0.587909 0.249259
C9    C     C_R   0.886761 0.497302 0.561100 0.145076
C10   C     C_R   0.116004 0.499280 0.577999 0.151118
C11   C     C_1   0.967234 0.499110 0.578275 -0.055561
C12   C     C_1   0.035240 0.499776 0.583713 -0.056648
C13   C     C_R   0.460898 0.831482 0.403415 -0.268368
C14   C     C_R   0.539311 0.832534 0.594453 -0.265493
C15   C     C_R   0.461315 0.747424 0.406093 -0.004826
C16   C     C_R   0.538760 0.748418 0.593240 -0.008352
C17   C     C_R   0.500149 0.875157 0.498521 0.151616
C18   C     C_1   0.500132 0.962796 0.497801 -0.069787
C19   C     C_1   0.500058 0.035853 0.497518 0.119621
C20   C     C_R   0.511818 0.499951 0.259813 0.915560
C21   C     C_R   0.487000 0.500079 0.739456 0.913276
C22   C     C_R   0.453203 0.167206 0.411017 0.264943
C23   C     C_R   0.546273 0.166898 0.586365 0.269027
C24   C     C_R   0.455209 0.252331 0.412333 0.403143
C25   C     C_R   0.543870 0.251895 0.587919 0.398096
C26   C     C_R   0.499923 0.123991 0.498010 -0.231163
C27   C     C_R   0.552179 0.646274 0.102532 0.242675
C28   C     C_R   0.446807 0.646854 0.896703 0.242734
C29   C     C_R   0.527374 0.718429 0.048895 -0.223061
C30   C     C_R   0.472552 0.718728 0.950989 -0.222709
C31   C     C_R   0.477977 0.573423 0.941925 0.012370
C32   C     C_R   0.519720 0.573136 0.057179 0.011251
C33   C     C_R   0.525452 0.499822 0.123270 -0.218094
C34   C     C_R   0.471206 0.500347 0.875220 -0.215791
C35   C     C_R   0.515760 0.426803 0.057971 0.172630
C36   C     C_R   0.478271 0.427299 0.940074 0.175655
C37   C     C_R   0.846268 0.567852 0.580065 -0.221586
C38   C     C_R   0.152144 0.570496 0.544693 -0.219210
C39   C     C_R   0.768003 0.569552 0.556220 -0.192617
C40   C     C_R   0.229560 0.570738 0.518538 -0.198420
H1    H     H_    0.550043 0.774765 0.084131 0.158158
H2    H     H_    0.450806 0.775296 0.916008 0.158083
H3    H     H_    0.875296 0.621576 0.613075 0.144280
H4    H     H_    0.119922 0.625535 0.535608 0.144230
H5    H     H_    0.737052 0.624317 0.573999 0.161534
H6    H     H_    0.256689 0.626432 0.492341 0.163462
H7    H     H_    0.741780 0.377173 0.456231 0.139899
H8    H     H_    0.267317 0.373237 0.569462 0.147768
H9    H     H_    0.430129 0.861925 0.327578 0.137949
H10   H     H_    0.570115 0.863875 0.669746 0.138252
H11   H     H_    0.430829 0.714261 0.332502 0.140709
H12   H     H_    0.569252 0.716030 0.667303 0.138642
N1    N     N_R   0.500000 0.707230 0.500000 -0.098107
N2    N     N_R   0.500000 0.292770 0.500000 -0.211415
O1    O     O_R   0.389110 0.566570 0.499990 -0.621374
O2    O     O_R   0.610890 0.566570 0.500010 -0.620690
O3    O     O_R   0.389090 0.433480 0.499980 -0.628216
O4    O     O_R   0.610910 0.433480 0.500020 -0.631939
O5    O     O_R   0.500000 0.566560 0.316760 -0.614132
O6    O     O_R   0.500000 0.566560 0.683240 -0.615151
O7    O     O_R   0.499970 0.433470 0.316760 -0.555870
O8    O     O_R   0.500030 0.433470 0.683240 -0.557599
Zn1   Zn    Zn3+2 0.500000 0.588860 0.500000 0.926619
Zn2   Zn    Zn3+2 0.500000 0.411140 0.500000 0.976286
C41   C     C_3   0.549599 0.349458 0.107825 -0.792900
H13   H     H_    0.584961 0.321842 0.033287 0.223152
H14   H     H_    0.588631 0.358971 0.191128 0.228309
H15   H     H_    0.503727 0.306756 0.132073 0.292802
C42   C     C_3   0.442154 0.351116 0.888709 -0.797430
H16   H     H_    0.404922 0.324843 0.961965 0.221771
H17   H     H_    0.404625 0.362036 0.804064 0.228021
H18   H     H_    0.486627 0.306824 0.865297 0.292038
O9    O     O_3   0.414866 0.127852 0.312425 -0.567913
C43   C     C_3   0.349089 0.087780 0.357334 0.111506
H19   H     H_    0.300814 0.129941 0.366964 0.134956
H20   H     H_    0.357993 0.058298 0.451029 0.131905
C44   C     C_3   0.324765 0.024321 0.260955 -0.832748
H21   H     H_    0.372506 0.981969 0.245957 0.254852
H22   H     H_    0.274437 0.990882 0.296058 0.202651
H23   H     H_    0.309111 0.052760 0.168735 0.252929
O10   O     O_3   0.585388 0.126804 0.682772 -0.566638
C45   C     C_3   0.652340 0.090641 0.635176 0.109997
H24   H     H_    0.698025 0.135742 0.622177 0.133102
H25   H     H_    0.642941 0.059716 0.542528 0.133615
C46   C     C_3   0.681685 0.029400 0.730886 -0.832028
H26   H     H_    0.636985 0.983514 0.747169 0.253831
H27   H     H_    0.733617 0.999754 0.694205 0.202916
H28   H     H_    0.696516 0.059076 0.822696 0.252624
O11   O     O_3   0.419098 0.295309 0.315965 -0.570415
C47   C     C_3   0.338448 0.294649 0.327465 0.209481
H29   H     H_    0.318800 0.356461 0.343974 0.166187
H30   H     H_    0.316977 0.258425 0.408020 0.063932
C48   C     C_3   0.300788 0.268461 0.202119 -0.869003
H31   H     H_    0.238107 0.261492 0.214380 0.203794
H32   H     H_    0.310619 0.314411 0.128231 0.243466
H33   H     H_    0.324707 0.211041 0.168930 0.293225
O12   O     O_3   0.577146 0.293651 0.688761 -0.574029
C49   C     C_3   0.657737 0.298101 0.679123 0.216565
H34   H     H_    0.674123 0.361607 0.670244 0.173688
H35   H     H_    0.681425 0.266369 0.595494 0.065303
C50   C     C_3   0.696044 0.269224 0.802090 -0.868591
H36   H     H_    0.758923 0.265282 0.789558 0.207477
H37   H     H_    0.684787 0.312139 0.880036 0.241857
H38   H     H_    0.673926 0.209860 0.829850 0.293915
C51   C     C_3   0.618734 0.649670 0.196372 -0.853028
H39   H     H_    0.667052 0.682614 0.153489 0.220707
H40   H     H_    0.601778 0.681694 0.283852 0.258024
H41   H     H_    0.640343 0.589461 0.222074 0.223579
C52   C     C_3   0.380822 0.650838 0.801853 -0.853095
H42   H     H_    0.358556 0.590821 0.775382 0.227599
H43   H     H_    0.398718 0.682646 0.714851 0.256797
H44   H     H_    0.332697 0.684231 0.844151 0.221118
C53   C     C_3   0.893290 0.351426 0.493702 -0.950269
H45   H     H_    0.855124 0.302905 0.457499 0.233105
H46   H     H_    0.938552 0.361687 0.422852 0.253408
H47   H     H_    0.920238 0.331163 0.584515 0.241290
C54   C     C_3   0.121119 0.348903 0.624206 -0.958972
H48   H     H_    0.124840 0.306240 0.543588 0.239781
H49   H     H_    0.152339 0.323620 0.707869 0.242091
H50   H     H_    0.060136 0.354879 0.649726 0.251461

loop_
_geom_bond_atom_site_label_1
_geom_bond_atom_site_label_2
_ccdc_geom_bond_type
C48   H31   S    
C27   C29   A    
O9    C43   S    
C35   C36   A    
C24   O11   S    
O12   C49   S    
C44   H21   S    
C40   H6    S    
C51   H40   S    
C50   H36   S    
C43   H20   S    
C47   C48   S    
O6    Zn1   S    
C15   N1    A    
C22   C24   A    
C52   H43   S    
C8    C10   A    
C46   H28   S    
C35   C41   S    
C24   N2    A    
C18   C19   T    
C23   C26   A    
C20   O7    A    
C42   H17   S    
C19   C26   S    
C16   N1    A    
O8    Zn2   S    
C4    C40   A    
C41   H14   S    
C43   C44   S    
O1    Zn1   S    
C15   H11   S    
C39   H5    S    
C53   H47   S    
C46   H27   S    
C3    C39   A    
C50   H37   S    
C14   C17   A    
C8    C54   S    
O10   C45   S    
C44   H22   S    
O4    Zn2   S    
C51   H41   S    
C31   C34   A    
C43   H19   S    
C25   N2    A    
C21   O6    A    
C4    C6    A    
C52   H44   S    
C5    C7    A    
C6    C8    A    
C21   C34   S    
C46   H26   S    
C37   H3    S    
C42   H18   S    
C38   H4    S    
C29   C30   A    
C1    O3    A    
C5    H7    S    
C47   H30   S    
C31   C32   A    
C41   H15   S    
C9    C37   A    
C17   C18   S    
O2    Zn1   S    
C20   O5    A    
C9    C11   S    
C21   O8    A    
C6    H8    S    
C10   C12   S    
C13   H9    S    
C20   C33   S    
C25   O12   S    
C45   H24   S    
C48   H33   S    
C45   H25   S    
C13   C15   A    
C14   C16   A    
C54   H50   S    
C41   H13   S    
C49   C50   S    
C36   C42   S    
O3    Zn2   S    
C53   H45   S    
C44   H23   S    
C7    C9    A    
C23   O10   S    
C29   H1    S    
C27   C32   A    
C28   C31   A    
C16   H12   S    
C3    C5    A    
C11   C12   T    
C2    O4    A    
C28   C52   S    
C50   H38   S    
C45   C46   S    
C51   H39   S    
O5    Zn1   S    
C13   C17   A    
C10   C38   A    
C1    C4    S    
C32   C33   A    
C7    C53   S    
C54   H49   S    
C2    C3    S    
C1    O1    A    
C37   C39   A    
C2    O2    A    
C54   H48   S    
O7    Zn2   S    
C38   C40   A    
N1    Zn1   S    
C47   H29   S    
C14   H10   S    
N2    Zn2   S    
C28   C30   A    
C33   C35   A    
C34   C36   A    
C23   C25   A    
C42   H16   S    
C49   H35   S    
C48   H32   S    
C49   H34   S    
C22   C26   A    
C27   C51   S    
C30   H2    S    
C22   O9    S    
O11   C47   S    
C52   H42   S    
C53   H46   S    
