data_mof_unit_22117.cif
_audit_creation_date              2013-03-05T15:56:02-0500
_audit_creation_method            fapswitch 2.2
_symmetry_space_group_name_H-M    P1
_symmetry_Int_Tables_number       1
_space_group_crystal_system       triclinic
_cell_length_a                    12.300149
_cell_length_b                    13.226951
_cell_length_c                    17.202784
_cell_angle_alpha                 104.856272
_cell_angle_beta                  74.482599
_cell_angle_gamma                 116.737839
_cell_volume                      2378.12775034

loop_
_atom_site_label
_atom_site_type_symbol
_atom_site_description
_atom_site_fract_x
_atom_site_fract_y
_atom_site_fract_z
_atom_type_partial_charge
O1    O     O_R   0.025490 0.682370 0.523640 -0.599139
O2    O     O_R   0.194150 0.640180 0.491890 -0.615787
C1    C     C_R   0.145504 0.713300 0.505306 0.776112
O3    O     O_R   0.905900 0.523560 0.631310 -0.554533
O4    O     O_R   0.074570 0.481370 0.599560 -0.571458
C2    C     C_R   0.984976 0.499969 0.651970 0.861459
Cu1   Cu    Cu3+1 0.900140 0.524980 0.518800 1.000977
Cu2   Cu    Cu3+1 0.099860 0.475020 0.481200 0.971835
O5    O     O_R   0.805850 0.359820 0.508110 -0.563390
O6    O     O_R   0.974510 0.317630 0.476360 -0.569530
O7    O     O_R   0.925430 0.518630 0.400440 -0.546910
O8    O     O_R   0.094100 0.476440 0.368690 -0.610560
C3    C     C_R   0.856244 0.286554 0.485432 0.903242
C4    C     C_R   0.013755 0.498042 0.347783 0.864935
C5    C     C_R   0.970114 0.491111 0.737327 -0.262440
C6    C     C_R   0.986620 0.402475 0.757852 0.303885
C7    C     C_R   0.969309 0.394945 0.839882 -0.210457
C8    C     C_R   0.931314 0.470791 0.900970 -0.086632
C9    C     C_R   0.913621 0.557433 0.881000 -0.162679
C10   C     C_R   0.936458 0.570552 0.799634 0.415692
C11   C     C_R   0.987363 0.569470 0.158707 0.482762
C12   C     C_R   0.981558 0.569276 0.240430 -0.185635
C13   C     C_R   0.072386 0.430492 0.201358 -0.238262
C14   C     C_R   0.073312 0.424700 0.118883 0.337668
C15   C     C_R   0.026794 0.492506 0.097879 -0.036799
C16   C     C_2   0.918787 0.463716 0.986429 0.377822
C17   C     C_2   0.022560 0.486635 0.012629 -0.243684
C18   C     C_R   0.022999 0.499421 0.261926 -0.148698
H1    H     H_    0.946099 0.625017 0.286969 0.188901
H2    H     H_    0.104777 0.376919 0.218625 0.194331
H3    H     H_    0.109422 0.504292 0.969642 0.159668
H4    H     H_    0.885601 0.616934 0.928656 0.170795
H5    H     H_    0.982180 0.327736 0.856348 0.215047
C19   C     C_R   0.740899 0.965346 0.446754 -0.179427
H6    H     H_    0.912534 0.104196 0.470483 0.196147
H7    H     H_    0.573644 0.755565 0.400805 0.164158
H8    H     H_    0.776694 0.900746 0.436480 0.157650
C20   C     C_R   0.776179 0.164891 0.468342 -0.170752
C21   C     C_R   0.183238 0.918119 0.541239 -0.274700
C22   C     C_R   0.261901 0.033103 0.555966 -0.220820
C23   C     C_R   0.390521 0.068549 0.535890 0.505216
C24   C     C_R   0.440471 0.988385 0.489580 0.040057
C25   C     C_R   0.359982 0.870713 0.473777 0.045521
C26   C     C_R   0.569833 0.019682 0.464691 -0.001462
C27   C     C_R   0.616104 0.934375 0.446732 0.116293
C28   C     C_R   0.537871 0.820999 0.424926 -0.181389
C29   C     C_R   0.413334 0.792435 0.429848 -0.151504
C30   C     C_R   0.656099 0.131566 0.454291 0.314646
C31   C     C_R   0.818535 0.080784 0.464102 -0.186766
C32   C     C_R   0.230509 0.835246 0.504077 -0.089000
H9    H     H_    0.084963 0.893581 0.562929 0.183054
H10   H     H_    0.222751 0.094660 0.586982 0.183682
H11   H     H_    0.361529 0.707975 0.399893 0.182349
C33   C     C_R   0.647938 0.681380 0.625896 -0.224197
H12   H     H_    0.822752 0.697689 0.641190 0.150190
H13   H     H_    0.649255 0.752131 0.674560 0.204906
N1    N     N_R   0.749710 0.562810 0.547300 -0.210799
C34   C     C_R   0.253351 0.356762 0.387080 0.020878
C35   C     C_R   0.362018 0.341444 0.353180 -0.260604
C36   C     C_R   0.468754 0.407566 0.388143 0.360030
C37   C     C_R   0.460276 0.478791 0.465282 -0.124764
C38   C     C_R   0.349994 0.498529 0.493387 0.187637
C39   C     C_R   0.556901 0.534465 0.514146 -0.078732
C40   C     C_R   0.549897 0.621170 0.581649 0.012537
C41   C     C_R   0.445458 0.646465 0.603626 0.285232
C42   C     C_R   0.347802 0.584174 0.560986 -0.212854
C43   C     C_R   0.657861 0.503956 0.501654 0.131733
C44   C     C_R   0.747249 0.651009 0.607397 0.059002
N2    N     N_R   0.249640 0.437820 0.453210 -0.189413
H14   H     H_    0.663391 0.431910 0.457116 0.207205
H15   H     H_    0.174287 0.309863 0.356534 0.150248
H16   H     H_    0.365500 0.284640 0.295594 0.199346
H17   H     H_    0.271140 0.606593 0.583606 0.222176
N3    N     N_R   0.014901 0.316539 0.696799 0.142087
O9    O     O_R   0.948600 0.261135 0.639603 -0.370663
O10   O     O_R   0.090682 0.278975 0.706891 -0.381925
N4    N     N_R   0.117771 0.347437 0.058394 0.135193
O11   O     O_R   0.067669 0.293950 0.993603 -0.349204
O12   O     O_R   0.199618 0.320446 0.072297 -0.342007
N5    N     N_R   0.633809 0.196222 0.408282 0.144652
O13   O     O_R   0.727083 0.267654 0.364861 -0.339815
O14   O     O_R   0.524972 0.161734 0.390403 -0.324605
O15   O     O_3   0.467823 0.182276 0.558438 -0.604946
C45   C     C_3   0.449920 0.215767 0.644406 0.024363
H18   H     H_    0.537793 0.239090 0.664864 0.182357
H19   H     H_    0.376688 0.147472 0.679482 0.138475
C46   C     C_3   0.420709 0.321526 0.665489 -0.342875
H20   H     H_    0.500617 0.393186 0.637977 0.230518
H21   H     H_    0.338846 0.302658 0.639469 0.253866
C47   C     C_3   0.394817 0.358753 0.757621 -0.758852
H22   H     H_    0.313044 0.289499 0.786490 0.273124
H23   H     H_    0.375379 0.436269 0.770391 0.274395
H24   H     H_    0.476330 0.379651 0.784741 0.258580
N6    N     N_R   0.433456 0.732186 0.671973 0.112460
O16   O     O_R   0.395893 0.806143 0.664284 -0.399869
O17   O     O_R   0.435866 0.722314 0.744766 -0.363707
N7    N     N_R   0.585795 0.416575 0.337702 0.134908
O18   O     O_R   0.676706 0.517180 0.333237 -0.363464
O19   O     O_R   0.592919 0.330626 0.282486 -0.229256
O20   O     O_3   0.945925 0.639522 0.138975 -0.564881
C48   C     C_3   0.048135 0.743009 0.122605 0.014410
H25   H     H_    0.120307 0.726395 0.072710 0.143755
H26   H     H_    0.089181 0.790209 0.178671 0.147424
C49   C     C_3   0.004420 0.817810 0.095486 -0.308749
H27   H     H_    0.959898 0.770190 0.041082 0.219199
H28   H     H_    0.934730 0.837850 0.145414 0.243344
C50   C     C_3   0.111778 0.929565 0.073900 -0.849370
H29   H     H_    0.156254 0.980057 0.127948 0.268241
H30   H     H_    0.076833 0.981354 0.054078 0.278295
H31   H     H_    0.181653 0.911467 0.023121 0.260246
O21   O     O_3   0.919571 0.658264 0.781735 -0.596285
C51   C     C_3   0.035629 0.749420 0.761973 0.061611
H32   H     H_    0.027201 0.789314 0.715579 0.165882
H33   H     H_    0.112667 0.721438 0.733721 0.140883
C52   C     C_3   0.068624 0.839996 0.837798 -0.362866
H34   H     H_    0.991580 0.867444 0.865413 0.246923
H35   H     H_    0.081957 0.802597 0.883620 0.212762
C53   C     C_3   0.186892 0.944622 0.816402 -0.811253
H36   H     H_    0.265900 0.919619 0.790719 0.293102
H37   H     H_    0.207685 0.008952 0.872423 0.269899
H38   H     H_    0.175693 0.984414 0.771123 0.248045
N8    N     N_R   0.798111 0.430163 0.037757 0.179797
O22   O     O_R   0.709440 0.440578 0.017507 -0.313417
O23   O     O_R   0.770691 0.372455 0.096371 -0.262033

loop_
_geom_bond_atom_site_label_1
_geom_bond_atom_site_label_2
_geom_bond_distance
_ccdc_geom_bond_type
C21   H9    1.083292 S    
C46   H20   1.109642 S    
C48   H25   1.115446 S    
C12   H1    1.083797 S    
C19   H8    1.083796 S    
C23   C24   1.423927 A    
O21   C51   1.417365 S    
C8    C16   1.459509 S    
C45   C46   1.529650 S    
C51   H33   1.117152 S    
N7    O18   1.301758 A    
Cu1   Cu2   2.698372 S    
C20   C31   1.404968 A    
N4    O11   1.301327 A    
Cu1   O7    1.961255 S    
Cu2   N2    2.021788 S    
C7    H5    1.084128 S    
C6    N3    1.436754 S    
C45   H19   1.117138 S    
O4    C2    1.298620 A    
O7    C4    1.299292 A    
C34   H15   1.081725 S    
C33   C44   1.386647 A    
C5    C6    1.416057 A    
C23   O15   1.388692 S    
C8    C9    1.394647 A    
C37   C39   1.446037 A    
O5    C3    1.301082 A    
C53   H36   1.110638 S    
C49   H27   1.110899 S    
C2    C5    1.458977 S    
C9    C10   1.392312 A    
C6    C7    1.392400 A    
C52   H35   1.111332 S    
H6    C31   1.083076 S    
C13   C14   1.398357 A    
H7    C28   1.084294 S    
C20   C30   1.408837 A    
C35   H16   1.082721 S    
C29   H11   1.076821 S    
C35   C36   1.403520 A    
C48   H26   1.114924 S    
C12   C18   1.396464 A    
C11   C12   1.389087 A    
C50   H30   1.110590 S    
N6    O16   1.301390 A    
C24   C26   1.421325 A    
N1    C43   1.367038 A    
O3    Cu1   1.960787 S    
C9    H4    1.082727 S    
C49   H28   1.111998 S    
C51   H32   1.111587 S    
N7    O19   1.301419 A    
C1    C32   1.477663 S    
H12   C44   1.081902 S    
C39   C43   1.419436 A    
N4    O12   1.301603 A    
C5    C10   1.414496 A    
C33   H13   1.081085 S    
N3    O9    1.300786 A    
C38   C42   1.404103 A    
C17   H3    1.088200 S    
C13   H2    1.083693 S    
C45   H18   1.111345 S    
N5    O14   1.301426 A    
C36   N7    1.438726 S    
C21   C22   1.386685 A    
C11   O20   1.382882 S    
C34   C35   1.390574 A    
C22   H10   1.082625 S    
C42   H17   1.060492 S    
C38   N2    1.387859 A    
C36   C37   1.425709 A    
O1    C1    1.311341 A    
C53   H38   1.111562 S    
C10   O21   1.384983 S    
C47   H23   1.110688 S    
O15   C45   1.417543 S    
C52   H34   1.111655 S    
Cu2   O8    1.960787 S    
C52   C53   1.526448 S    
C7    C8    1.395600 A    
C16   C17   1.346801 D    
C25   C32   1.427208 A    
C19   C27   1.399446 A    
C13   C18   1.399440 A    
C14   C15   1.414519 A    
N6    O17   1.301246 A    
C3    C20   1.460207 S    
N3    O10   1.301299 A    
O3    C2    1.297944 A    
C41   N6    1.436629 S    
O8    C4    1.297919 A    
C48   C49   1.528152 S    
C46   H21   1.110988 S    
C50   H31   1.111420 S    
C24   C25   1.420234 A    
C50   H29   1.111202 S    
N8    O23   1.301588 A    
C26   C27   1.413346 A    
C47   H24   1.110898 S    
Cu1   O5    1.944107 S    
C11   C15   1.411735 A    
C28   C29   1.386591 A    
C22   C23   1.401853 A    
C19   C31   1.392537 A    
O1    Cu1   1.951822 S    
O2    Cu2   1.944106 S    
N5    O13   1.301880 A    
O6    C3    1.297231 A    
O4    Cu2   1.961255 S    
C34   N2    1.355204 A    
C15   C17   1.462293 S    
C16   N8    1.444566 S    
C43   H14   1.075087 S    
C40   C41   1.402549 A    
C30   N5    1.451602 S    
O2    C1    1.295781 A    
C47   H22   1.111017 S    
C33   C40   1.408532 A    
O20   C48   1.411836 S    
C49   C50   1.526223 S    
C37   C38   1.430032 A    
C53   H37   1.110740 S    
C39   C40   1.422544 A    
C27   C28   1.386279 A    
C14   N4    1.441997 S    
C21   C32   1.401282 A    
Cu2   O6    1.951823 S    
C41   C42   1.389504 A    
C46   C47   1.525365 S    
N1    C44   1.351759 A    
C4    C18   1.454938 S    
N8    O22   1.301157 A    
C25   C29   1.420763 A    
Cu1   N1    2.033792 S    
C51   C52   1.531626 S    
C26   C30   1.403285 A    
