data_mof_unit_52438.cif
_audit_creation_date              2012-12-11T14:13:22-0500
_audit_creation_method            fapswitch 2.2
_symmetry_space_group_name_H-M    P1
_symmetry_Int_Tables_number       1
_space_group_crystal_system       triclinic
_cell_length_a                    11.594384
_cell_length_b                    18.403486
_cell_length_c                    10.079599
_cell_angle_alpha                 89.777696
_cell_angle_beta                  110.843918
_cell_angle_gamma                 89.811706
_cell_volume                      2009.95520216

loop_
_atom_site_label
_atom_site_type_symbol
_atom_type_description
_atom_site_fract_x
_atom_site_fract_y
_atom_site_fract_z
_atom_type_partial_charge
C1    C     C_R   0.081855 0.643104 0.143874 0.565550
C2    C     C_2   0.643110 0.059586 0.980702 -0.115018
C3    C     C_2   0.641651 0.440288 0.979029 -0.087789
C4    C     C_2   0.406931 0.576998 0.909012 -0.125051
C5    C     C_2   0.521645 0.948087 0.939524 -0.162508
C6    C     C_2   0.537313 0.025279 0.911832 -0.143282
C7    C     C_2   0.536114 0.474941 0.909543 -0.131464
C8    C     C_2   0.521045 0.551911 0.938088 -0.158401
C9    C     C_2   0.114935 0.940841 0.147265 0.231618
C10   C     C_2   0.999739 0.077837 0.879055 0.240695
C11   C     C_2   0.950934 0.431473 0.861221 0.245587
C12   C     C_R   0.921674 0.355362 0.856174 0.560246
C13   C     C_2   0.050533 0.566568 0.130692 0.246371
C14   C     C_2   0.109293 0.977120 0.029559 -0.118592
C15   C     C_2   0.065321 0.053203 0.009094 -0.117437
C16   C     C_2   0.024866 0.459684 0.981591 -0.141904
C17   C     C_2   0.019551 0.537598 0.001810 -0.109251
C18   C     C_R   0.437489 0.637675 0.376881 0.564958
C19   C     C_R   0.521884 0.346128 0.545608 0.529313
C20   C     C_R   0.522239 0.153712 0.546429 0.512027
C21   C     C_R   0.437709 0.862619 0.378235 0.540268
C22   C     C_R   0.377522 0.645641 0.961561 0.549651
C23   C     C_R   0.927352 0.145679 0.858780 0.538984
C24   C     C_R   0.650332 0.360817 0.983981 0.594785
C25   C     C_R   0.650833 0.139160 0.984505 0.589044
C26   C     C_R   0.377343 0.854421 0.961079 0.534805
C27   C     C_R   0.471203 0.406901 0.445572 -0.045161
C28   C     C_R   0.450561 0.558147 0.403650 -0.025756
C29   C     C_R   0.450231 0.942015 0.406216 -0.037038
C30   C     C_R   0.471883 0.093051 0.448057 -0.044060
C31   C     C_R   0.272671 0.406926 0.482615 -0.051937
C32   C     C_R   0.613810 0.547970 0.292220 -0.082128
C33   C     C_R   0.610123 0.952245 0.291139 -0.084533
C34   C     C_R   0.133667 0.861548 0.158843 0.556502
C35   C     C_R   0.271070 0.094210 0.480525 -0.046737
C36   C     C_R   0.201801 0.441779 0.549017 -0.115747
C37   C     C_R   0.715388 0.511118 0.286065 -0.168700
C38   C     C_R   0.711770 0.987930 0.284410 -0.156596
C39   C     C_R   0.195534 0.059507 0.541110 -0.088319
C40   C     C_R   0.219267 0.515207 0.578858 -0.105654
C41   C     C_R   0.729310 0.437810 0.317452 -0.113199
C42   C     C_R   0.728885 0.060555 0.318280 -0.107011
C43   C     C_R   0.213416 0.986161 0.574738 -0.097628
C44   C     C_R   0.304135 0.554118 0.538666 -0.026639
C45   C     C_R   0.368493 0.444332 0.455702 0.027460
C46   C     C_R   0.638325 0.401721 0.350013 -0.040460
C47   C     C_R   0.639421 0.097372 0.352851 -0.057539
C48   C     C_R   0.300943 0.946516 0.538804 -0.045587
C49   C     C_R   0.373026 0.520502 0.463698 0.037873
C50   C     C_R   0.546766 0.441128 0.382544 0.015098
C51   C     C_R   0.547315 0.058609 0.385484 -0.003466
C52   C     C_R   0.372663 0.979868 0.466467 0.034058
C53   C     C_3   0.884554 0.000942 0.705761 -0.121108
C54   C     C_3   0.989873 0.976512 0.262359 -0.121743
C55   C     C_3   0.998094 0.480882 0.266671 -0.124835
C56   C     C_R   0.534529 0.516770 0.356549 0.013873
C57   C     C_3   0.926687 0.492106 0.656338 -0.115600
C58   C     C_R   0.533589 0.983333 0.358556 0.000454
C59   C     C_R   0.368777 0.056171 0.458150 0.034815
C60   C     C_2   0.407173 0.922968 0.907287 -0.125810
Cr1   Cr    Cr6+3 0.187610 0.750000 0.979860 0.998031
Cr2   Cr    Cr6+3 0.812390 0.250000 0.020140 0.969972
Cr3   Cr    Cr6+3 0.245810 0.750000 0.341640 1.017811
Cr4   Cr    Cr6+3 0.754190 0.250000 0.658360 0.999832
Cr5   Cr    Cr6+3 0.485760 0.750000 0.219910 0.978002
Cr6   Cr    Cr6+3 0.514240 0.250000 0.780090 0.998813
H1    H     H_    0.134166 0.411704 0.577849 0.083160
H2    H     H_    0.604056 0.600618 0.245241 0.176021
H3    H     H_    0.597304 0.900674 0.240926 0.178737
H4    H     H_    0.257976 0.151965 0.458798 0.108997
H5    H     H_    0.318878 0.608531 0.578795 0.148613
H6    H     H_    0.642255 0.343013 0.351968 0.136681
H7    H     H_    0.644234 0.156010 0.354538 0.144800
H8    H     H_    0.313367 0.891392 0.576545 0.149339
H9    H     H_    0.456085 0.056306 0.849000 0.171571
H10   H     H_    0.600862 0.914819 0.999168 0.135853
H11   H     H_    0.600502 0.584889 0.995935 0.137970
H12   H     H_    0.778743 0.539938 0.248683 0.091102
H13   H     H_    0.455044 0.444406 0.846623 0.164802
H14   H     H_    0.724726 0.028683 0.039044 0.079804
H15   H     H_    0.329624 0.957676 0.849762 0.110514
H16   H     H_    0.329313 0.542291 0.854429 0.101242
H17   H     H_    0.721960 0.471311 0.037421 0.090934
H18   H     H_    0.069712 0.085462 0.100875 0.147289
H19   H     H_    0.119459 0.947898 0.940864 0.159599
H20   H     H_    0.990064 0.572838 0.908834 0.153263
H21   H     H_    0.079750 0.424493 0.068093 0.124997
H22   H     H_    0.804977 0.038909 0.662739 0.157081
H23   H     H_    0.770447 0.959066 0.241401 0.076480
H24   H     H_    0.870538 0.964454 0.787093 0.110426
H25   H     H_    0.886725 0.966441 0.616625 0.144443
H26   H     H_    0.921169 0.991673 0.156932 0.092909
H27   H     H_    0.981062 0.016470 0.339853 0.136137
H28   H     H_    0.969784 0.922084 0.296600 0.153208
H29   H     H_    0.029606 0.423581 0.285521 0.130540
H30   H     H_    0.912304 0.480548 0.172450 0.099807
H31   H     H_    0.977810 0.499940 0.360229 0.126413
H32   H     H_    0.017048 0.518729 0.708318 0.091589
H33   H     H_    0.866707 0.531205 0.577833 0.160415
H34   H     H_    0.124970 0.089765 0.564638 0.138433
H35   H     H_    0.936932 0.442742 0.598275 0.129216
H36   H     H_    0.167218 0.542950 0.633114 0.091870
H37   H     H_    0.806769 0.408069 0.309217 0.122924
H38   H     H_    0.806142 0.089330 0.307671 0.137815
H39   H     H_    0.157618 0.959449 0.626485 0.135120
H40   H     H_    0.258671 0.349304 0.461500 0.108437
O1    O     O_R   0.267710 0.668200 0.902110 -0.515355
O2    O     O_R   0.883280 0.330790 0.732340 -0.500592
O3    O     O_R   0.883280 0.169210 0.732340 -0.491087
O4    O     O_R   0.116720 0.830790 0.267660 -0.506052
O5    O     O_R   0.366710 0.675440 0.427590 -0.501843
O6    O     O_R   0.633290 0.324560 0.572410 -0.494818
O7    O     O_R   0.633290 0.175440 0.572410 -0.519201
O8    O     O_R   0.366710 0.824560 0.427590 -0.511739
O9    O     O_R   0.534870 0.669390 0.371760 -0.520003
O10   O     O_R   0.465130 0.330610 0.628240 -0.534014
O11   O     O_R   0.465130 0.169390 0.628240 -0.535991
O12   O     O_R   0.732290 0.331800 0.097890 -0.539125
O13   O     O_R   0.534870 0.830610 0.371760 -0.519899
O14   O     O_R   0.453080 0.674480 0.075160 -0.527933
O15   O     O_R   0.546920 0.325520 0.924840 -0.494862
O16   O     O_R   0.546920 0.174480 0.924840 -0.490735
O17   O     O_R   0.453080 0.825520 0.075160 -0.530661
O18   O     O_3   0.306390 0.750000 0.180470 -0.303573
O19   O     O_3   0.693610 0.250000 0.819530 -0.284450
O20   O     O_3   0.997540 0.038522 0.760726 -0.592457
O21   O     O_3   0.110592 0.979125 0.262572 -0.575620
O22   O     O_3   0.093492 0.523847 0.252332 -0.563067
O23   O     O_R   0.732290 0.168200 0.097890 -0.532300
O24   O     O_3   0.871005 0.475485 0.755826 -0.558830
O25   O     O_R   0.267710 0.831800 0.902110 -0.526862
O26   O     O_R   0.099480 0.674460 0.038850 -0.526833
O27   O     O_R   0.900520 0.325540 0.961150 -0.540560
O28   O     O_R   0.900520 0.174460 0.961150 -0.549704
O29   O     O_R   0.099480 0.825540 0.038850 -0.524428
O30   O     O_R   0.116720 0.669210 0.267660 -0.488764

loop_
_geom_bond_atom_site_label_1
_geom_bond_atom_site_label_2
_ccdc_geom_bond_type
C44   C49   A    
C30   C51   A    
C33   C58   A    
C4    C8    D    
C1    O26   A    
C25   O23   A    
Cr3   O18   S    
C28   C56   A    
C36   H1    S    
C7    C8    S    
C20   C30   S    
C19   O6    A    
C22   O14   A    
C38   H23   S    
C9    O21   S    
Cr6   O10   S    
Cr1   O18   S    
C34   O29   A    
Cr2   O27   S    
C38   C42   A    
C48   C52   A    
C3    C7    D    
C10   C15   D    
C43   H39   S    
C20   O7    A    
Cr4   O6    S    
C22   O1    A    
C57   H33   S    
C44   H5    S    
C35   C59   A    
C60   H15   S    
Cr5   O18   S    
C39   H34   S    
C54   H27   S    
Cr1   O26   S    
C13   O22   S    
C35   H4    S    
C16   C17   S    
Cr6   O11   S    
C53   H25   S    
C16   H21   S    
C41   C46   A    
Cr6   O16   S    
C53   H22   S    
C1    O30   A    
C19   C27   S    
C25   O16   A    
C46   H6    S    
C23   O28   A    
C27   C50   A    
C33   H3    S    
C32   H2    S    
C27   C45   A    
Cr3   O5    S    
Cr5   O9    S    
Cr2   O23   S    
C3    C24   S    
C2    C6    D    
C20   O11   A    
Cr4   O2    S    
C23   O3    A    
Cr2   O12   S    
C17   H20   S    
C48   H8    S    
C57   O24   S    
C6    H9    S    
C18   C28   S    
C18   O5    A    
C47   H7    S    
C55   H29   S    
C12   O2    A    
C55   H30   S    
C39   C43   A    
C8    H11   S    
C21   C29   S    
C50   C56   A    
C41   H37   S    
C35   C39   A    
C9    C14   D    
C54   H26   S    
C52   C59   A    
C4    C22   S    
C28   C49   A    
C45   C49   A    
C30   C59   A    
C55   H31   S    
Cr5   O13   S    
Cr6   O15   S    
C51   C58   A    
C32   C37   A    
C29   C58   A    
C12   O27   A    
C3    H17   S    
C9    C34   S    
C34   O4    A    
C31   H40   S    
C1    C13   S    
C26   O17   A    
Cr3   O8    S    
C11   O24   S    
C36   C40   A    
Cr1   O29   S    
C7    H13   S    
C43   C48   A    
Cr4   O7    S    
C5    C60   D    
C31   C36   A    
C14   H19   S    
C21   O8    A    
C42   H38   S    
C18   O9    A    
Cr2   O19   S    
C47   C51   A    
C11   C12   S    
C15   H18   S    
C10   C23   S    
C57   H35   S    
C54   O21   S    
C46   C50   A    
C24   O12   A    
C33   C38   A    
Cr6   O19   S    
C13   C17   D    
Cr3   O30   S    
Cr2   O28   S    
Cr3   O4    S    
C21   O13   A    
Cr4   O3    S    
C5    C6    S    
C19   O10   A    
C5    H10   S    
C57   H32   S    
C24   O15   A    
Cr5   O14   S    
C2    C25   S    
C42   C47   A    
Cr5   O17   S    
C37   C41   A    
Cr1   O1    S    
C54   H28   S    
C11   C16   D    
C2    H14   S    
C53   O20   S    
Cr1   O25   S    
C40   H36   S    
C40   C44   A    
C4    H16   S    
C55   O22   S    
Cr4   O19   S    
C31   C45   A    
C53   H24   S    
C14   C15   S    
C10   O20   S    
C37   H12   S    
C26   C60   S    
C32   C56   A    
C26   O25   A    
C29   C52   A    
