data_mof_unit_42257.cif
_audit_creation_date              2012-12-10T16:49:29-0500
_audit_creation_method            fapswitch 2.2
_symmetry_space_group_name_H-M    P1
_symmetry_Int_Tables_number       1
_space_group_crystal_system       triclinic
_cell_length_a                    7.939471
_cell_length_b                    8.592844
_cell_length_c                    12.828829
_cell_angle_alpha                 87.193477
_cell_angle_beta                  88.205577
_cell_angle_gamma                 92.699219
_cell_volume                      872.700998536

loop_
_atom_site_label
_atom_site_type_symbol
_atom_type_description
_atom_site_fract_x
_atom_site_fract_y
_atom_site_fract_z
_atom_type_partial_charge
C1    C     C_R   0.455756 0.206221 0.498033 0.928374
C2    C     C_R   0.671013 0.380780 0.143512 0.386546
C3    C     C_R   0.557316 0.437495 0.870292 -0.252078
C4    C     C_R   0.443293 0.562614 0.129708 -0.225683
C5    C     C_R   0.557859 0.451734 0.976441 0.113733
C6    C     C_R   0.442746 0.548270 0.023586 0.108051
C7    C     C_2   0.432261 0.043259 0.494498 -0.240858
C8    C     C_2   0.562743 0.956080 0.512741 -0.281565
C9    C     C_R   0.543189 0.793618 0.504212 0.934988
C10   C     C_R   0.466975 0.509035 0.698874 0.898287
C11   C     C_R   0.532994 0.490773 0.301159 0.898783
C12   C     C_R   0.553611 0.478346 0.190210 -0.153523
C13   C     C_R   0.446370 0.521232 0.809863 -0.147683
C14   C     C_R   0.327886 0.629145 0.964396 -0.233044
C15   C     C_R   0.672410 0.370531 0.035724 -0.265104
C16   C     C_R   0.328501 0.618268 0.856651 0.357755
H1    H     H_    0.355392 0.638676 0.165700 0.207971
H2    H     H_    0.160423 0.165036 0.683978 0.393466
H3    H     H_    0.645487 0.361725 0.834244 0.198383
H4    H     H_    0.239656 0.702331 0.002435 0.202190
H5    H     H_    0.760705 0.297378 0.997757 0.193092
H6    H     H_    0.308880 0.995789 0.474476 0.249241
H7    H     H_    0.683350 0.004335 0.535638 0.222689
H8    H     H_    0.815011 0.057079 0.124865 0.368079
H9    H     H_    0.984272 0.556381 0.793467 0.353884
H10   H     H_    0.915952 0.925396 0.466783 0.398775
N1    N     N_2   0.054030 0.541640 0.471970 0.141528
N2    N     N_2   0.945970 0.458360 0.528030 0.142183
O1    O     O_R   0.609680 0.261530 0.506880 -0.565504
O2    O     O_2   0.715527 0.171695 0.302240 -0.316879
O3    O     O_3   0.903782 0.138555 0.136881 -0.502783
O4    O     O_2   0.101502 0.843808 0.855225 -0.281910
O5    O     O_2   0.282717 0.828025 0.699404 -0.281341
O6    O     O_3   0.038795 0.618122 0.733333 -0.471883
O7    O     O_2   0.165389 0.777336 0.347125 -0.277923
O8    O     O_2   0.867935 0.710541 0.340807 -0.290853
O9    O     O_3   0.979685 0.845963 0.504279 -0.480103
O10   O     O_2   0.836358 0.210159 0.641992 -0.298190
O11   O     O_2   0.023869 0.174603 0.491595 -0.284041
O12   O     O_R   0.390320 0.738470 0.493120 -0.562404
O13   O     O_3   0.147569 0.276383 0.663390 -0.534675
O14   O     O_R   0.323330 0.288220 0.488910 -0.563970
O15   O     O_R   0.676670 0.711780 0.511090 -0.584103
O16   O     O_R   0.619510 0.488830 0.661140 -0.618017
O17   O     O_R   0.380490 0.511170 0.338860 -0.605699
O18   O     O_R   0.333160 0.515520 0.643180 -0.523159
O19   O     O_R   0.666840 0.484480 0.356820 -0.541201
O20   O     O_2   0.945558 0.366250 0.259486 -0.213582
S1    S     S_3+6 0.810518 0.263494 0.214720 0.070659
S2    S     S_3+6 0.187120 0.733816 0.785490 0.066096
S3    S     S_3+6 0.013002 0.718926 0.412341 0.190643
S4    S     S_3+6 0.989004 0.276610 0.580283 0.173340
Zn1   Zn    Zn3+2 0.691200 0.482180 0.511990 1.191609
Zn2   Zn    Zn3+2 0.308800 0.517820 0.488010 1.207409

loop_
_geom_bond_atom_site_label_1
_geom_bond_atom_site_label_2
_ccdc_geom_bond_type
C10   O18   A    
N2    Zn1   S    
H10   O9    S    
C3    H3    S    
C7    C8    D    
C2    S1    S    
C4    C12   A    
C7    H6    S    
O13   S4    S    
C11   O19   A    
C3    C13   A    
O19   Zn1   S    
H9    O6    S    
C11   C12   S    
C5    C15   A    
C2    C12   A    
O18   Zn2   S    
C1    O1    A    
O11   S4    D    
N1    Zn2   S    
C6    C14   A    
O14   Zn2   S    
C2    C15   A    
N2    S4    S    
O4    S2    D    
O8    S3    D    
O1    Zn1   S    
O3    S1    S    
C11   O17   A    
C4    H1    S    
O20   S1    D    
O2    S1    D    
N1    S3    S    
O17   Zn2   S    
O12   Zn2   S    
O7    S3    D    
C5    C6    A    
O9    S3    S    
C14   C16   A    
C9    O15   A    
O6    S2    S    
C10   O16   A    
C14   H4    S    
C1    O14   A    
C15   H5    S    
C8    H7    S    
O10   S4    D    
C4    C6    A    
C13   C16   A    
N1    N2    D    
H8    O3    S    
O5    S2    D    
C1    C7    S    
O16   Zn1   S    
O15   Zn1   S    
C9    O12   A    
H2    O13   S    
C16   S2    S    
C8    C9    S    
C3    C5    A    
C10   C13   S    
