data_mof_unit_33798.cif
_audit_creation_date              2013-03-05T16:01:15-0500
_audit_creation_method            fapswitch 2.2
_symmetry_space_group_name_H-M    P1
_symmetry_Int_Tables_number       1
_space_group_crystal_system       triclinic
_cell_length_a                    14.671998
_cell_length_b                    14.798489
_cell_length_c                    17.358045
_cell_angle_alpha                 106.212962
_cell_angle_beta                  72.995827
_cell_angle_gamma                 115.544569
_cell_volume                      3200.17365824

loop_
_atom_site_label
_atom_site_type_symbol
_atom_site_description
_atom_site_fract_x
_atom_site_fract_y
_atom_site_fract_z
_atom_type_partial_charge
O1    O     O_R   0.020090 0.662480 0.528530 -0.580370
O2    O     O_R   0.979910 0.337520 0.471470 -0.580346
O3    O     O_R   0.160710 0.620650 0.491980 -0.562873
O4    O     O_R   0.839290 0.379350 0.508020 -0.584570
C1    C     C_R   0.119266 0.688340 0.514322 0.810567
C2    C     C_R   0.880884 0.311816 0.485917 0.810331
O5    O     O_R   0.921540 0.523360 0.633990 -0.589150
O6    O     O_R   0.078460 0.476640 0.366010 -0.592220
O7    O     O_R   0.062170 0.481520 0.597440 -0.586550
O8    O     O_R   0.937830 0.518480 0.402560 -0.585341
C3    C     C_R   0.990374 0.504676 0.652647 0.812618
C4    C     C_R   0.009586 0.495254 0.347340 0.796485
Cu1   Cu    Cu3+1 0.916740 0.524770 0.521640 0.967406
Cu2   Cu    Cu3+1 0.083260 0.475230 0.478360 0.971511
C5    C     C_R   0.988478 0.511590 0.738634 -0.042229
C6    C     C_R   0.011340 0.488114 0.261327 -0.044989
C7    C     C_R   0.069695 0.504355 0.760260 -0.170126
C8    C     C_R   0.930322 0.495790 0.239768 -0.178621
C9    C     C_R   0.068698 0.511005 0.841750 -0.118041
C10   C     C_R   0.931142 0.488907 0.158276 -0.120284
C11   C     C_R   0.985730 0.523752 0.902697 0.170103
C12   C     C_R   0.013778 0.475546 0.097236 0.169769
C13   C     C_R   0.906174 0.534130 0.881542 -0.126213
C14   C     C_R   0.093093 0.464663 0.118323 -0.128917
C15   C     C_R   0.907187 0.527671 0.799827 -0.153555
C16   C     C_R   0.092219 0.471292 0.200046 -0.162834
C17   C     C_2   0.980297 0.526448 0.988806 -0.202468
C18   C     C_2   0.019164 0.472819 0.011115 -0.201062
H1    H     H_    0.134449 0.494169 0.714361 0.156857
H2    H     H_    0.865849 0.506508 0.285729 0.162758
H3    H     H_    0.155030 0.463994 0.215185 0.174487
H4    H     H_    0.844167 0.534519 0.784621 0.171408
H5    H     H_    0.058627 0.427768 0.965345 0.162765
H6    H     H_    0.940839 0.571522 0.034542 0.160108
H7    H     H_    0.842305 0.545200 0.928135 0.150341
H8    H     H_    0.156682 0.453073 0.071670 0.153213
H9    H     H_    0.866596 0.493120 0.143369 0.142696
H10   H     H_    0.133361 0.507124 0.856754 0.142462
C19   C     C_R   0.186022 0.796256 0.533643 -0.065053
C20   C     C_R   0.814445 0.203440 0.481435 -0.059663
C21   C     C_R   0.212823 0.962741 0.617022 -0.099414
C22   C     C_R   0.794267 0.027262 0.453402 -0.096628
C23   C     C_R   0.146294 0.865729 0.588503 -0.188030
C24   C     C_R   0.857503 0.129462 0.455835 -0.180925
C25   C     C_R   0.292346 0.826718 0.505381 -0.146526
C26   C     C_R   0.707682 0.173832 0.506539 -0.170799
C27   C     C_R   0.361597 0.917917 0.542755 0.076913
C28   C     C_R   0.643410 0.072117 0.513564 0.085040
C29   C     C_R   0.320673 0.989953 0.595348 0.020228
C30   C     C_R   0.686700 0.997195 0.479757 0.024141
C31   C     C_R   0.469791 0.940352 0.527887 -0.058482
C32   C     C_R   0.536483 0.043114 0.549300 -0.055178
C33   C     C_R   0.494465 0.112486 0.606927 -0.130747
C34   C     C_R   0.514691 0.864886 0.495258 -0.104036
C35   C     C_R   0.387079 0.085936 0.628358 0.264072
C36   C     C_R   0.622478 0.894000 0.473632 0.273485
H11   H     H_    0.675097 0.230746 0.519590 0.148586
H12   H     H_    0.319041 0.777425 0.454007 0.150684
H13   H     H_    0.940049 0.150230 0.436277 0.172477
H14   H     H_    0.064024 0.844444 0.610929 0.170804
H15   H     H_    0.178804 0.014404 0.659053 0.196769
H16   H     H_    0.830604 0.972398 0.430998 0.193650
N1    N     N_R   0.208390 0.438070 0.445820 -0.212305
N2    N     N_R   0.791610 0.561930 0.554180 -0.208852
C37   C     C_R   0.303685 0.343584 0.349329 0.232254
C38   C     C_R   0.693257 0.652750 0.651455 0.239648
C39   C     C_R   0.218966 0.372339 0.374954 0.001145
C40   C     C_R   0.782766 0.631700 0.622568 0.006803
C41   C     C_R   0.277185 0.475098 0.496109 -0.004748
C42   C     C_R   0.715560 0.511926 0.510049 0.027465
C43   C     C_R   0.367349 0.452404 0.473275 -0.069467
C44   C     C_R   0.622476 0.529408 0.534839 -0.022781
C45   C     C_R   0.380890 0.387167 0.397120 0.029847
C46   C     C_R   0.610680 0.598428 0.608961 0.053254
C47   C     C_R   0.446620 0.496830 0.520849 0.125951
C48   C     C_R   0.540880 0.480100 0.489407 0.131628
C49   C     C_R   0.551476 0.416729 0.412615 -0.210113
C50   C     C_R   0.435086 0.558046 0.598587 -0.154839
C51   C     C_R   0.473251 0.370936 0.368183 -0.102944
C52   C     C_R   0.515504 0.608621 0.640828 -0.078086
H17   H     H_    0.488308 0.325813 0.308716 0.196786
H18   H     H_    0.501032 0.654328 0.700128 0.192486
H19   H     H_    0.728530 0.456585 0.457429 0.127453
H20   H     H_    0.262093 0.525768 0.551629 0.170689
H21   H     H_    0.845881 0.670842 0.655036 0.161816
H22   H     H_    0.159895 0.340715 0.338723 0.167172
H23   H     H_    0.620840 0.402504 0.383670 0.128730
H24   H     H_    0.364054 0.568469 0.629012 0.148239
C53   C     C_2   0.559780 0.206977 0.654443 0.907736
O9    O     O_2   0.622783 0.203992 0.685831 -0.559312
O10   O     O_R   0.549603 0.299155 0.662718 -0.715297
H25   H     H_    0.599122 0.357989 0.695432 0.337749
C54   C     C_2   0.453484 0.754451 0.487953 0.893821
O11   O     O_2   0.392529 0.719099 0.547290 -0.613566
O12   O     O_R   0.465110 0.691718 0.411880 -0.711898
H26   H     H_    0.414584 0.619009 0.411311 0.331079
N3    N     N_R   0.309442 0.270381 0.275417 0.116089
O13   O     O_R   0.278233 0.272114 0.213148 -0.336842
O14   O     O_R   0.327270 0.191516 0.275402 -0.334537
N4    N     N_R   0.688537 0.729910 0.722651 0.114503
O15   O     O_R   0.730255 0.739769 0.782700 -0.344925
O16   O     O_R   0.660222 0.801429 0.721192 -0.310634
N5    N     N_R   0.345268 0.156287 0.685439 0.132812
O17   O     O_R   0.348673 0.174728 0.762575 -0.307322
O18   O     O_R   0.306025 0.203720 0.659865 -0.334037
N6    N     N_R   0.666546 0.817761 0.443898 0.128314
O19   O     O_R   0.659518 0.761595 0.492837 -0.342177
O20   O     O_R   0.707454 0.799952 0.366733 -0.325287

loop_
_geom_bond_atom_site_label_1
_geom_bond_atom_site_label_2
_geom_bond_distance
_ccdc_geom_bond_type
C38   C40   1.397712 A    
C47   C48   1.431852 A    
C54   O11   1.221882 D    
C7    H1    1.083435 S    
O12   H26   1.008876 S    
C21   H15   1.081919 S    
C44   C48   1.437028 A    
N3    O13   1.301418 A    
C27   C29   1.420670 A    
C20   C26   1.396795 A    
C14   H8    1.083610 S    
O1    C1    1.298922 A    
N2    C40   1.353905 A    
C9    C11   1.403564 A    
C14   C16   1.390976 A    
C28   C32   1.424427 A    
C50   C52   1.388482 A    
C5    C15   1.403586 A    
N6    O19   1.300850 A    
C24   H13   1.083178 S    
C38   C46   1.417679 A    
C35   N5    1.435678 S    
C37   C45   1.417057 A    
C25   C27   1.410204 A    
C38   N4    1.437354 S    
O4    Cu1   1.934501 S    
C41   C43   1.421997 A    
C34   C54   1.475991 S    
C3    C5    1.460106 S    
C4    C6    1.460389 S    
C37   C39   1.396798 A    
C8    H2    1.083419 S    
N2    C42   1.360409 A    
C53   O10   1.399068 S    
C22   H16   1.081847 S    
C8    C10   1.386390 A    
C19   C25   1.395281 A    
C15   H4    1.083219 S    
C28   C30   1.415302 A    
C11   C17   1.463497 S    
C16   H3    1.083191 S    
C54   O12   1.398166 S    
C12   C18   1.463745 S    
Cu1   Cu2   2.689724 S    
C40   H21   1.082139 S    
C21   C23   1.391444 A    
O2    C2    1.296942 A    
C22   C24   1.388175 A    
C21   C29   1.412256 A    
N3    O14   1.301374 A    
N1    C39   1.354163 A    
C33   C35   1.407161 A    
C17   H6    1.085744 S    
C6    C16   1.403648 A    
C34   C36   1.408182 A    
C25   H12   1.076848 S    
C42   C44   1.419901 A    
C31   C32   1.421971 A    
N1    C41   1.360986 A    
C48   C49   1.409572 A    
C44   C46   1.420189 A    
O10   H25   1.013918 S    
C43   C45   1.420595 A    
C27   C31   1.431942 A    
C29   C35   1.404873 A    
C30   C36   1.399365 A    
O5    C3    1.297461 A    
O7    Cu2   1.979949 S    
C9    H10   1.082160 S    
C20   C24   1.398465 A    
O6    C4    1.297497 A    
N4    O16   1.301432 A    
C45   C51   1.400548 A    
C49   C51   1.387958 A    
N5    O18   1.301286 A    
C42   H19   1.075282 S    
O7    C3    1.297268 A    
C36   N6    1.437392 S    
O3    Cu2   1.934503 S    
O8    C4    1.297365 A    
C23   H14   1.083280 S    
C22   C30   1.408478 A    
C52   H18   1.081371 S    
C10   C12   1.403613 A    
C18   H5    1.085820 S    
C13   H7    1.083608 S    
C11   C13   1.399164 A    
C26   H11   1.080096 S    
C33   C53   1.488791 S    
C12   C14   1.399211 A    
O4    C2    1.301295 A    
O1    Cu1   1.942056 S    
C17   C18   1.340166 D    
C32   C33   1.430475 A    
C51   H17   1.081272 S    
C50   H24   1.077062 S    
C5    C7    1.402300 A    
C39   H22   1.081812 S    
O6    Cu2   1.978107 S    
O3    C1    1.301543 A    
O8    Cu1   1.979949 S    
C19   C23   1.396083 A    
C31   C34   1.437020 A    
C1    C19   1.471816 S    
C37   N3    1.437394 S    
C41   H20   1.074656 S    
C43   C47   1.437356 A    
C10   H9    1.082108 S    
Cu1   N2    2.020578 S    
N6    O20   1.301101 A    
Cu2   N1    2.020578 S    
N4    O15   1.301390 A    
C7    C9    1.386423 A    
C2    C20   1.467933 S    
C13   C15   1.390850 A    
O2    Cu2   1.942057 S    
C47   C50   1.409319 A    
C26   C28   1.407449 A    
O5    Cu1   1.978106 S    
C49   H23   1.076620 S    
C6    C8    1.402248 A    
N5    O17   1.301171 A    
C46   C52   1.400722 A    
C53   O9    1.223314 D    
