data_mof_unit_5525.cif
_audit_creation_date              2012-12-10T17:20:24-0500
_audit_creation_method            fapswitch 2.2
_symmetry_space_group_name_H-M    P1
_symmetry_Int_Tables_number       1
_space_group_crystal_system       triclinic
_cell_length_a                    11.686826
_cell_length_b                    10.891261
_cell_length_c                    9.642721
_cell_angle_alpha                 90.035499
_cell_angle_beta                  89.452385
_cell_angle_gamma                 92.485296
_cell_volume                      1226.15621035

loop_
_atom_site_label
_atom_site_type_symbol
_atom_type_description
_atom_site_fract_x
_atom_site_fract_y
_atom_site_fract_z
_atom_type_partial_charge
C1    C     C_R   0.493198 0.262422 0.500299 0.815500
C2    C     C_R   0.328421 0.068391 0.840998 -0.131088
C3    C     C_R   0.325995 0.941923 0.846171 -0.136302
C4    C     C_R   0.356271 0.874536 0.728995 0.023525
C5    C     C_R   0.417010 0.933018 0.615551 0.049080
C6    C     C_R   0.421760 0.064087 0.613417 0.023646
C7    C     C_R   0.477721 0.127907 0.501429 -0.219957
C8    C     C_R   0.521868 0.062277 0.389697 0.607190
C9    C     C_R   0.517453 0.935706 0.390777 -0.224862
C10   C     C_R   0.470336 0.869309 0.503208 -0.219394
C11   C     C_R   0.681941 0.628853 0.139326 0.615305
C12   C     C_R   0.284191 0.496022 0.500145 0.781551
C13   C     C_R   0.783872 0.657741 0.068620 -0.246192
C14   C     C_R   0.783418 0.658991 0.925231 -0.258987
C15   C     C_R   0.681273 0.630424 0.857155 0.618090
C16   C     C_R   0.588312 0.563693 0.924496 -0.009173
C17   C     C_R   0.588401 0.563436 0.073720 -0.090399
C18   C     C_R   0.417512 0.438609 0.074326 0.715156
C19   C     C_R   0.417194 0.439599 0.927079 -0.121060
C20   C     C_R   0.487672 0.736174 0.501083 0.901358
C21   C     C_R   0.715709 0.499416 0.499458 0.913508
C22   C     C_1   0.162210 0.493722 0.499802 -0.094892
C23   C     C_1   0.059644 0.493973 0.499116 0.044871
C24   C     C_1   0.939872 0.495830 0.498471 0.028869
C25   C     C_1   0.837399 0.497689 0.498443 -0.142769
C26   C     C_R   0.366275 0.127865 0.721478 -0.125135
Cu1   Cu    Cu3+1 0.499990 0.499990 0.640660 1.012711
Cu2   Cu    Cu3+1 0.500010 0.500010 0.359340 1.088788
H1    H     H_    0.348805 0.390268 0.873299 0.144848
H2    H     H_    0.347364 0.223374 0.715238 0.151983
H3    H     H_    0.291789 0.119957 0.925301 0.172652
H4    H     H_    0.283745 0.897027 0.934410 0.151575
H5    H     H_    0.557072 0.889477 0.304438 0.230746
N1    N     N_R   0.501070 0.501210 0.147910 -0.218566
N2    N     N_R   0.501110 0.501290 0.852040 -0.202836
O1    O     O_R   0.499990 0.319640 0.618810 -0.611399
O2    O     O_R   0.500000 0.319660 0.381240 -0.491319
O3    O     O_R   0.337190 0.500000 0.618790 -0.593244
O4    O     O_R   0.337200 0.500030 0.381210 -0.532774
O5    O     O_R   0.500000 0.680340 0.618760 -0.505774
O6    O     O_R   0.500010 0.680360 0.381190 -0.527009
O7    O     O_R   0.662800 0.499970 0.618790 -0.543243
O8    O     O_R   0.662810 0.500000 0.381210 -0.535300
F1    F     F_    0.575619 0.120443 0.281099 -0.636211
C27   C     C_1   0.881557 0.707818 0.846964 0.393553
N3    N     N_1   0.959839 0.746851 0.784275 -0.251300
F2    F     F_    0.671440 0.690012 0.736367 -0.630853
C28   C     C_1   0.286417 0.764028 0.716125 0.242562
N4    N     N_1   0.222767 0.680142 0.713407 -0.259810
F3    F     F_    0.333481 0.372992 0.142536 -0.655057
F4    F     F_    0.672767 0.687523 0.261019 -0.646605
C29   C     C_1   0.882866 0.704219 0.144799 0.395191
N5    N     N_1   0.961922 0.741195 0.205780 -0.260750

loop_
_geom_bond_atom_site_label_1
_geom_bond_atom_site_label_2
_ccdc_geom_bond_type
C23   C24   S    
C6    C7    A    
C21   O8    A    
C1    O2    A    
Cu1   O1    S    
C13   C29   S    
C11   C13   A    
C9    C10   A    
Cu2   O8    S    
C14   C15   A    
C15   F2    S    
Cu1   O5    S    
C12   O4    A    
C2    C3    A    
Cu2   N1    S    
C7    C8    A    
C2    C26   A    
C19   N2    A    
C13   C14   A    
C24   C25   T    
C9    H5    S    
C18   N1    A    
Cu1   O7    S    
C8    F1    S    
C6    C26   A    
Cu2   O2    S    
C20   O6    A    
C5    C6    A    
C5    C10   A    
C28   N4    T    
C26   H2    S    
C14   C27   S    
C16   N2    A    
C12   O3    A    
C3    H4    S    
C20   O5    A    
C12   C22   S    
C11   F4    S    
C17   N1    A    
Cu1   O3    S    
C15   C16   A    
C19   H1    S    
C16   C17   A    
C27   N3    T    
Cu2   O6    S    
C4    C5    A    
C29   N5    T    
C18   F3    S    
C18   C19   A    
C4    C28   S    
Cu1   Cu2   S    
C21   C25   S    
C22   C23   T    
C2    H3    S    
Cu2   O4    S    
Cu1   N2    S    
C1    C7    S    
C11   C17   A    
C3    C4    A    
C21   O7    A    
C1    O1    A    
C10   C20   S    
C8    C9    A    
