data_mof_unit_64905.cif
_audit_creation_date              2013-03-05T16:08:45-0500
_audit_creation_method            fapswitch 2.2
_symmetry_space_group_name_H-M    P1
_symmetry_Int_Tables_number       1
_space_group_crystal_system       triclinic
_cell_length_a                    27.681489
_cell_length_b                    11.568309
_cell_length_c                    10.776325
_cell_angle_alpha                 90.060431
_cell_angle_beta                  90.000046
_cell_angle_gamma                 89.999962
_cell_volume                      3450.87928021

loop_
_atom_site_label
_atom_site_type_symbol
_atom_site_description
_atom_site_fract_x
_atom_site_fract_y
_atom_site_fract_z
_atom_type_partial_charge
O1    O     O_R   0.500000 0.334450 0.602530 -0.589818
O2    O     O_R   0.500000 0.665550 0.397470 -0.589818
O3    O     O_R   0.500000 0.665550 0.602530 -0.615172
O4    O     O_R   0.500000 0.334450 0.397470 -0.615172
C1    C     C_R   0.499941 0.281173 0.499948 0.938474
C2    C     C_R   0.499941 0.718827 0.500052 0.938475
O5    O     O_R   0.428750 0.500000 0.602520 -0.590454
O6    O     O_R   0.571250 0.500000 0.397480 -0.593420
O7    O     O_R   0.571250 0.500000 0.602520 -0.593420
O8    O     O_R   0.428750 0.500000 0.397480 -0.590454
C3    C     C_R   0.405858 0.500000 0.500000 0.996306
C4    C     C_R   0.594040 0.500000 0.500000 1.005948
Zn1   Zn    Zn3+2 0.500000 0.500000 0.636920 1.071111
Zn2   Zn    Zn3+2 0.500000 0.500000 0.363080 1.071111
C5    C     C_R   0.177503 0.440055 0.409626 0.702964
C6    C     C_R   0.822107 0.523318 0.608056 0.702834
C7    C     C_R   0.177503 0.559949 0.590372 0.702964
C8    C     C_R   0.822107 0.476685 0.391943 0.702834
O9    O     O_2   0.203021 0.382731 0.322375 -0.406499
O10   O     O_2   0.796599 0.546615 0.711843 -0.403534
O11   O     O_2   0.203021 0.617272 0.677624 -0.406498
O12   O     O_2   0.796599 0.453388 0.288156 -0.403535
N1    N     N_R   0.201310 0.500002 0.499999 -0.347886
N2    N     N_R   0.798292 0.500001 0.500000 -0.347869
C9    C     C_R   0.277742 0.588144 0.437771 0.286793
C10   C     C_R   0.721824 0.399722 0.535456 0.291646
C11   C     C_R   0.277742 0.411859 0.562228 0.286793
C12   C     C_R   0.721823 0.600280 0.464544 0.291646
C13   C     C_R   0.328246 0.588689 0.437964 0.177917
C14   C     C_R   0.671327 0.399708 0.536140 0.172892
C15   C     C_R   0.328246 0.411312 0.562036 0.177917
C16   C     C_R   0.671327 0.600293 0.463860 0.172892
C17   C     C_R   0.252826 0.500001 0.500000 -0.003534
C18   C     C_R   0.746771 0.500001 0.500000 -0.005067
C19   C     C_R   0.101449 0.500002 0.499999 -0.213086
C20   C     C_R   0.898159 0.500002 0.499999 -0.213107
C21   C     C_R   0.126893 0.438536 0.407561 -0.229582
C22   C     C_R   0.872714 0.523309 0.610755 -0.237526
C23   C     C_R   0.126893 0.561468 0.592438 -0.229582
C24   C     C_R   0.872714 0.476695 0.389243 -0.237525
C25   C     C_R   0.101154 0.375315 0.317975 0.632160
C26   C     C_R   0.898446 0.542997 0.721128 0.636369
C27   C     C_R   0.101154 0.624689 0.682022 0.632160
C28   C     C_R   0.898446 0.457006 0.278871 0.636368
C29   C     C_R   0.353370 0.500000 0.500000 -0.286340
C30   C     C_R   0.646350 0.500000 0.500000 -0.279559
C31   C     C_R   0.974542 0.465350 0.392134 -0.086927
C32   C     C_R   0.025066 0.551519 0.599807 -0.077816
C33   C     C_R   0.974542 0.534654 0.607864 -0.086926
C34   C     C_R   0.025066 0.448486 0.400191 -0.077816
C35   C     C_R   0.949153 0.500002 0.499999 -0.043324
C36   C     C_R   0.050454 0.500002 0.499999 -0.041528
C37   C     C_R   0.948643 0.452952 0.279879 0.629884
C38   C     C_R   0.050961 0.621020 0.684780 0.622044
C39   C     C_R   0.948643 0.547052 0.720118 0.629883
C40   C     C_R   0.050961 0.378985 0.315217 0.622043
C41   C     C_1   0.499934 0.161058 0.499879 -0.087246
C42   C     C_1   0.499934 0.838942 0.500121 -0.087246
C43   C     C_1   0.499939 0.059157 0.499943 0.075083
C44   C     C_1   0.499939 0.940843 0.500057 0.075083
N3    N     N_1   0.500000 0.500000 0.180630 -0.062101
N4    N     N_1   0.500000 0.500000 0.819370 -0.062101
C45   C     C_1   0.499997 0.500002 0.069755 0.115702
C46   C     C_1   0.499997 0.499998 0.930245 0.115701
Br1   Br    Br    0.362643 0.286471 0.641645 -0.344073
Br2   Br    Br    0.636436 0.737983 0.417051 -0.352718
Br3   Br    Br    0.362643 0.713530 0.358355 -0.344074
Br4   Br    Br    0.636437 0.262017 0.582950 -0.352717
Br5   Br    Br    0.241908 0.292716 0.646582 -0.238048
Br6   Br    Br    0.757499 0.736663 0.418606 -0.246584
Br7   Br    Br    0.241908 0.707287 0.353418 -0.238049
Br8   Br    Br    0.757499 0.263339 0.581393 -0.246583
F1    F     F_    0.124173 0.307596 0.233566 -0.505299
F2    F     F_    0.875419 0.556198 0.831572 -0.485823
F3    F     F_    0.124173 0.692409 0.766432 -0.505299
F4    F     F_    0.875419 0.443805 0.168426 -0.485823
F5    F     F_    0.971452 0.449281 0.168420 -0.494669
F6    F     F_    0.028138 0.695620 0.762447 -0.519039
F7    F     F_    0.971453 0.550724 0.831577 -0.494669
F8    F     F_    0.028139 0.304385 0.237550 -0.519039

loop_
_geom_bond_atom_site_label_1
_geom_bond_atom_site_label_2
_geom_bond_distance
_ccdc_geom_bond_type
C5    O9    1.349628 S    
C10   Br8   1.926438 S    
C2    C42   1.389530 S    
C37   F5    1.357588 S    
O3    C2    1.265247 A    
C11   C17   1.402339 A    
C32   C38   1.413233 A    
C7    N1    1.364650 A    
O1    C1    1.265090 A    
C19   C21   1.411556 A    
C22   C26   1.404773 A    
C32   C36   1.415828 A    
C41   C43   1.178823 T    
C42   C44   1.178823 T    
O7    Zn1   2.006842 S    
C28   F4    1.358604 S    
C7    C23   1.401230 A    
N3    C45   1.194826 T    
C8    C24   1.401188 A    
C5    C21   1.401230 A    
C20   C24   1.411615 A    
N4    C46   1.194826 T    
C13   Br3   1.931561 S    
C28   C37   1.390356 A    
C10   C18   1.403413 A    
Zn1   N4    1.966139 S    
N1    C17   1.426034 S    
N2    C18   1.426181 S    
C34   C36   1.415827 A    
C9    Br7   1.926806 S    
C11   Br5   1.926806 S    
C6    O10   1.349621 S    
C31   C37   1.413342 A    
C5    N1    1.364650 A    
C12   C18   1.403413 A    
C43   C44   1.368691 S    
C6    N2    1.364773 A    
C21   C25   1.404653 A    
O2    C2    1.265090 A    
O5    C3    1.273626 A    
C31   C34   1.414800 A    
C9    C13   1.398039 A    
C26   F2    1.358602 S    
C11   C15   1.398039 A    
C12   C16   1.397843 A    
C4    C30   1.448013 S    
O8    Zn2   2.006842 S    
C31   C35   1.415908 A    
C33   C35   1.415909 A    
C33   C39   1.413343 A    
Zn2   N3    1.966140 S    
C7    O11   1.349628 S    
C13   C29   1.408787 A    
C19   C23   1.411556 A    
C25   C40   1.390370 A    
C26   C39   1.390357 A    
C39   F7    1.357590 S    
C27   C38   1.390370 A    
C24   C28   1.404775 A    
O6    C4    1.272218 A    
C20   C35   1.411590 A    
C32   C33   1.414798 A    
C10   C14   1.397843 A    
C8    N2    1.364774 A    
C3    C29   1.452946 S    
O1    Zn1   1.950279 S    
C27   F3    1.358556 S    
C16   Br2   1.930319 S    
C15   Br1   1.931562 S    
O6    Zn2   2.006841 S    
C8    O12   1.349620 S    
C16   C30   1.405974 A    
C14   C30   1.405975 A    
C12   Br6   1.926438 S    
O4    C1    1.265247 A    
O3    Zn1   1.951045 S    
C23   C27   1.404654 A    
C40   F8    1.357528 S    
C1    C41   1.389530 S    
C20   C22   1.411614 A    
O4    Zn2   1.951046 S    
O2    Zn2   1.950277 S    
O7    C4    1.272219 A    
C34   C40   1.413232 A    
O8    C3    1.273625 A    
C25   F1    1.358555 S    
C45   C46   1.503404 S    
O5    Zn1   2.006841 S    
C15   C29   1.408786 A    
C9    C17   1.402338 A    
C19   C36   1.411620 A    
C14   Br4   1.930318 S    
C6    C22   1.401190 A    
C38   F6    1.357529 S    
