data_mof_unit_42067.cif
_audit_creation_date              2013-03-05T15:44:35-0500
_audit_creation_method            fapswitch 2.2
_symmetry_space_group_name_H-M    P1
_symmetry_Int_Tables_number       1
_space_group_crystal_system       triclinic
_cell_length_a                    27.710983
_cell_length_b                    10.91249
_cell_length_c                    9.663594
_cell_angle_alpha                 91.394219
_cell_angle_beta                  90.1165
_cell_angle_gamma                 89.419443
_cell_volume                      2921.21071848

loop_
_atom_site_label
_atom_site_type_symbol
_atom_site_description
_atom_site_fract_x
_atom_site_fract_y
_atom_site_fract_z
_atom_type_partial_charge
O1    O     O_R   0.500010 0.321960 0.617040 -0.527549
O2    O     O_R   0.499990 0.321920 0.382900 -0.570439
C1    C     C_R   0.504102 0.265803 0.498127 0.781125
O3    O     O_R   0.430270 0.500040 0.617060 -0.499586
O4    O     O_R   0.430260 0.500000 0.382910 -0.589915
C2    C     C_R   0.407323 0.498403 0.499561 0.863299
Cu1   Cu    Cu3+1 0.500010 0.500020 0.638630 1.030998
Cu2   Cu    Cu3+1 0.499990 0.499980 0.361370 0.944604
O5    O     O_R   0.500010 0.678080 0.617100 -0.579704
O6    O     O_R   0.499990 0.678040 0.382960 -0.572915
O7    O     O_R   0.569740 0.500000 0.617090 -0.574377
O8    O     O_R   0.569730 0.499960 0.382940 -0.596276
C3    C     C_R   0.499723 0.735494 0.502195 0.705424
C4    C     C_R   0.592570 0.498303 0.499840 0.820786
C5    C     C_R   0.177989 0.363259 0.540635 0.618897
O9    O     O_2   0.202986 0.280604 0.614526 -0.527199
N1    N     N_R   0.202035 0.451838 0.471364 -0.445510
C6    C     C_R   0.177942 0.535534 0.392807 0.518732
C7    C     C_R   0.274587 0.522258 0.600810 0.425490
C8    C     C_R   0.325053 0.539829 0.603322 0.382052
C9    C     C_R   0.332351 0.428605 0.383126 -0.290602
C10   C     C_R   0.282516 0.416666 0.376620 -0.162742
C11   C     C_R   0.253424 0.461510 0.484756 0.203261
C12   C     C_R   0.101902 0.448435 0.461608 -0.073418
C13   C     C_R   0.127318 0.359137 0.536071 -0.119760
C14   C     C_R   0.101571 0.272065 0.609506 -0.247850
C15   C     C_R   0.127396 0.537351 0.389137 -0.001999
C16   C     C_R   0.354184 0.488715 0.496491 -0.201579
H1    H     H_    0.353957 0.390235 0.299077 0.184857
H2    H     H_    0.266302 0.371320 0.287361 0.177246
H3    H     H_    0.120363 0.206436 0.673060 0.199542
C17   C     C_R   0.645490 0.486915 0.497268 -0.189095
C18   C     C_R   0.975063 0.345352 0.495491 -0.105500
C19   C     C_R   0.974871 0.557436 0.419001 -0.089959
C20   C     C_R   0.949414 0.451976 0.457674 -0.055811
C21   C     C_R   0.949791 0.233719 0.500621 0.418951
C22   C     C_R   0.899220 0.234449 0.509515 0.383924
C23   C     C_R   0.873094 0.345019 0.490554 -0.169513
C24   C     C_R   0.898350 0.453142 0.459786 -0.184242
C25   C     C_R   0.872661 0.562529 0.432117 -0.162837
C26   C     C_R   0.821903 0.562023 0.440312 0.602450
N2    N     N_R   0.798121 0.457740 0.473813 -0.441467
C27   C     C_R   0.822285 0.350596 0.498417 0.654415
C28   C     C_R   0.717720 0.400860 0.385051 0.558490
C29   C     C_R   0.667255 0.415737 0.391131 -0.422954
C30   C     C_R   0.674584 0.547059 0.596748 0.479141
C31   C     C_R   0.724741 0.532337 0.590856 -0.273592
C32   C     C_R   0.746379 0.462097 0.484275 0.187221
O10   O     O_2   0.797017 0.250719 0.532296 -0.507203
C33   C     C_R   0.025439 0.353039 0.520355 -0.057149
C34   C     C_R   0.050918 0.449611 0.460409 0.003622
C35   C     C_R   0.025591 0.548287 0.400635 0.106266
C36   C     C_R   0.051121 0.270813 0.606618 0.491006
H4    H     H_    0.644823 0.372569 0.312545 0.174640
O11   O     O_2   0.202894 0.619025 0.321938 -0.548978
C37   C     C_R   0.101894 0.626881 0.316618 -0.179498
H5    H     H_    0.120612 0.694260 0.256812 0.186793
C38   C     C_R   0.948988 0.668968 0.405173 0.355213
C39   C     C_R   0.898424 0.669876 0.401707 0.384047
O12   O     O_2   0.796150 0.664852 0.415977 -0.523660
C40   C     C_R   0.051742 0.632837 0.322965 -0.175377
H6    H     H_    0.747139 0.578723 0.667306 0.176513
H7    H     H_    0.033829 0.701779 0.262443 0.184745
C41   C     C_2   0.514554 0.929224 0.397552 -0.257327
C42   C     C_2   0.497565 0.869574 0.507308 0.283822
H8    H     H_    0.530853 0.878808 0.310994 0.122025
C43   C     C_2   0.509134 0.062398 0.385140 0.431553
C44   C     C_2   0.518898 0.137287 0.494730 0.290150
C45   C     C_2   0.469906 0.433787 0.919047 0.680107
N3    N     N_2   0.499480 0.498660 0.846910 -0.035301
C46   C     C_2   0.464782 0.456340 0.076017 -0.124001
N4    N     N_2   0.499460 0.498630 0.153040 -0.272584
H9    H     H_    0.431340 0.433310 0.126355 0.150121
H10   H     H_    0.533021 0.502458 0.108459 0.218788
O13   O     O_3   0.248256 0.553321 0.719026 -0.544899
C47   C     C_3   0.212018 0.641756 0.692068 -0.297920
H11   H     H_    0.218880 0.696920 0.598640 0.152862
H12   H     H_    0.210048 0.706904 0.781842 0.188129
H13   H     H_    0.176360 0.596917 0.683678 0.178401
O14   O     O_3   0.972450 0.780200 0.407342 -0.603432
C48   C     C_3   0.980736 0.815564 0.546856 -0.227226
H14   H     H_    0.000815 0.743848 0.604249 0.133173
H15   H     H_    0.946150 0.838617 0.600147 0.181064
H16   H     H_    0.003448 0.898509 0.549929 0.227978
O15   O     O_3   0.654340 0.620803 0.699694 -0.592921
C49   C     C_3   0.655207 0.743339 0.656341 -0.357153
H17   H     H_    0.633214 0.755326 0.560895 0.153619
H18   H     H_    0.692794 0.774942 0.639758 0.193977
H19   H     H_    0.639118 0.803063 0.738930 0.172807
O16   O     O_3   0.874768 0.779845 0.378451 -0.542461
C50   C     C_3   0.869224 0.796422 0.234038 0.159557
H20   H     H_    0.829986 0.802964 0.211165 0.184621
H21   H     H_    0.884115 0.719919 0.167188 0.084636
C51   C     C_3   0.892988 0.916209 0.193709 -0.303913
H22   H     H_    0.879014 0.992683 0.260856 0.269431
H23   H     H_    0.932550 0.908049 0.209252 0.238802
C52   C     C_3   0.883209 0.945667 0.042527 -0.996229
H24   H     H_    0.897505 0.871191 0.973213 0.259141
H25   H     H_    0.901358 0.032484 0.016828 0.255138
H26   H     H_    0.843837 0.956969 0.024369 0.267840
O17   O     O_3   0.468975 0.931436 0.605920 -0.614145
C53   C     C_3   0.487238 0.920508 0.742573 0.151046
H27   H     H_    0.493811 0.014486 0.784619 0.203501
H28   H     H_    0.522255 0.869861 0.749526 0.131171
C54   C     C_3   0.449368 0.863598 0.835749 -0.377963
H29   H     H_    0.414673 0.913677 0.823845 0.207726
H30   H     H_    0.443879 0.766101 0.805147 0.276440
C55   C     C_3   0.463816 0.872439 0.988163 -0.826844
H31   H     H_    0.500945 0.836381 0.003931 0.267652
H32   H     H_    0.438419 0.818632 0.050732 0.272212
H33   H     H_    0.462069 0.969466 0.024995 0.261945
O18   O     O_3   0.491784 0.107796 0.261816 -0.585158
C56   C     C_3   0.531220 0.119901 0.170957 -0.365953
H34   H     H_    0.546579 0.028874 0.139708 0.154795
H35   H     H_    0.559912 0.179028 0.217042 0.154462
H36   H     H_    0.518430 0.164514 0.075625 0.191129
O19   O     O_3   0.545770 0.094514 0.604847 -0.607393
C57   C     C_3   0.594456 0.126073 0.585094 -0.402999
H37   H     H_    0.599176 0.227227 0.589088 0.173089
H38   H     H_    0.608775 0.086587 0.485857 0.149571
H39   H     H_    0.616240 0.087220 0.670206 0.200866
O20   O     O_3   0.443024 0.346073 0.845667 -0.558047
C58   C     C_3   0.415919 0.269215 0.930330 -0.369001
H40   H     H_    0.384602 0.319977 0.976009 0.179210
H41   H     H_    0.438549 0.226483 0.011423 0.169557
H42   H     H_    0.401288 0.193456 0.864635 0.208291
O21   O     O_3   0.511092 0.607172 0.907470 -0.557885
C59   C     C_3   0.560516 0.626674 0.885535 -0.130646
H43   H     H_    0.565931 0.676079 0.788509 0.211610
H44   H     H_    0.582352 0.540343 0.886610 0.167154
H45   H     H_    0.574209 0.686702 0.970848 0.115832
O22   O     O_3   0.740368 0.337037 0.276933 -0.563558
C60   C     C_3   0.720735 0.218783 0.258817 -0.263041
H46   H     H_    0.687458 0.222265 0.194753 0.137194
H47   H     H_    0.713522 0.174056 0.359106 0.170031
H48   H     H_    0.747334 0.160198 0.201784 0.197248
O23   O     O_3   0.875428 0.124227 0.521131 -0.517457
C61   C     C_3   0.879142 0.085812 0.659213 -0.182222
H49   H     H_    0.864562 0.156598 0.733322 0.135703
H50   H     H_    0.916979 0.061876 0.686875 0.159882
H51   H     H_    0.857326 0.001947 0.670213 0.195830
O24   O     O_3   0.973474 0.121776 0.486704 -0.539461
C62   C     C_3   0.989454 0.106451 0.348546 -0.268290
H52   H     H_    0.020093 0.167852 0.326706 0.157943
H53   H     H_    0.959729 0.121727 0.272961 0.142700
H54   H     H_    0.002797 0.011145 0.332467 0.205761
O25   O     O_3   0.027894 0.191239 0.693462 -0.583076
C63   C     C_3   0.007241 0.257096 0.807422 0.042398
H55   H     H_    0.975090 0.205740 0.841177 0.154688
H56   H     H_    0.993953 0.350598 0.781317 0.123158
C64   C     C_3   0.042992 0.265210 0.928532 -0.356221
H57   H     H_    0.054543 0.171291 0.957033 0.227494
H58   H     H_    0.075412 0.316647 0.897070 0.222523
C65   C     C_3   0.020458 0.330204 0.054822 -0.911633
H59   H     H_    0.009903 0.425610 0.029744 0.257985
H60   H     H_    0.047029 0.333532 0.141011 0.263489
H61   H     H_    0.988083 0.280281 0.089425 0.245767
O26   O     O_3   0.346337 0.608778 0.708772 -0.568867
C66   C     C_3   0.335539 0.735124 0.692373 0.056472
H62   H     H_    0.348118 0.784592 0.787070 0.168585
H63   H     H_    0.296254 0.753649 0.686771 0.158539
C67   C     C_3   0.360751 0.788570 0.565901 -0.425360
H64   H     H_    0.400117 0.772001 0.573994 0.246446
H65   H     H_    0.347727 0.742745 0.469207 0.211770
C68   C     C_3   0.350578 0.925719 0.554469 -0.787110
H66   H     H_    0.311361 0.942356 0.538708 0.249155
H67   H     H_    0.370445 0.961565 0.464585 0.272938
H68   H     H_    0.362412 0.976410 0.649214 0.253506

loop_
_geom_bond_atom_site_label_1
_geom_bond_atom_site_label_2
_geom_bond_distance
_ccdc_geom_bond_type
N3    O21   1.349605 S    
C62   H54   1.107746 S    
C59   H45   1.109162 S    
O17   C53   1.420526 S    
C60   H46   1.110484 S    
C17   C29   1.404736 A    
C7    C11   1.417809 A    
C7    C8    1.413556 A    
C63   C64   1.533337 S    
C42   O17   1.397284 S    
C59   H43   1.104140 S    
C48   H16   1.107444 S    
C31   H6    1.083311 S    
C52   H24   1.110936 S    
C58   H40   1.111187 S    
C3    C42   1.463406 S    
O15   C49   1.411418 S    
C55   H31   1.109371 S    
Cu1   O7    1.943881 S    
C54   H30   1.109208 S    
C68   H66   1.110805 S    
C21   C22   1.404093 A    
C1    C44   1.456765 S    
C47   H12   1.109238 S    
C67   H64   1.106870 S    
C35   C40   1.410424 A    
C66   H62   1.108523 S    
O4    C2    1.295811 A    
C53   H28   1.114559 S    
O7    C4    1.298480 A    
C49   H18   1.113603 S    
C58   H41   1.111145 S    
C5    O9    1.349035 S    
C62   H53   1.113786 S    
C36   O25   1.386213 S    
C18   C21   1.413252 A    
C37   H5    1.083195 S    
C53   C54   1.530338 S    
C40   H7    1.080330 S    
C19   C20   1.414284 A    
C26   N2    1.366797 A    
C64   C65   1.527862 S    
C45   C46   1.537431 S    
C21   O24   1.384617 S    
C57   H37   1.112604 S    
O5    C3    1.288135 A    
C52   H25   1.110754 S    
C2    C16   1.477573 S    
O25   C63   1.418634 S    
O22   C60   1.412348 S    
N1    C6    1.369500 A    
C60   H48   1.109383 S    
C64   H57   1.111499 S    
C47   H13   1.109016 S    
C65   H60   1.110741 S    
C38   O14   1.382464 S    
C56   H36   1.108295 S    
C12   C34   1.412780 A    
C14   H3    1.083440 S    
C68   H67   1.110588 S    
C25   C39   1.415215 A    
C22   O23   1.384543 S    
C9    C10   1.389561 A    
C51   H22   1.111548 S    
Cu1   N3    2.013233 S    
O3    Cu1   1.943352 S    
O18   C56   1.412481 S    
C48   H15   1.112594 S    
C48   H14   1.113873 S    
C67   H65   1.110396 S    
C54   C55   1.526572 S    
Cu2   N4    2.012937 S    
C33   C36   1.423918 A    
O24   C62   1.413011 S    
C43   C44   1.350482 D    
C41   C43   1.467277 S    
Cu1   Cu2   2.679316 S    
C12   C13   1.407683 A    
C65   H61   1.110620 S    
N4    H10   1.027390 S    
C4    C17   1.470686 S    
C24   C25   1.414453 A    
C46   H9    1.082168 S    
C15   C37   1.400841 A    
C27   O10   1.348755 S    
C58   H42   1.109551 S    
N2    C32   1.437811 S    
C8    C16   1.412374 A    
C51   C52   1.526644 S    
C18   C33   1.418988 A    
C9    H1    1.083438 S    
C61   H51   1.109294 S    
C34   C35   1.413873 A    
C49   H19   1.109399 S    
O1    C1    1.293734 A    
C39   O16   1.384528 S    
C41   H8    1.086483 S    
C20   C24   1.415138 A    
O13   C47   1.413899 S    
C22   C23   1.416372 A    
C44   O19   1.385161 S    
C50   H21   1.119111 S    
C67   C68   1.526753 S    
C31   C32   1.400943 A    
Cu2   O8    1.943347 S    
C12   C15   1.407132 A    
C66   H63   1.106660 S    
C33   C34   1.411064 A    
C66   C67   1.538955 S    
C37   C40   1.392013 A    
N1    C11   1.434364 S    
C47   H11   1.114959 S    
C51   H23   1.109226 S    
C65   H59   1.110867 S    
C61   H50   1.111646 S    
C6    O11   1.349904 S    
C57   H38   1.113894 S    
O3    C2    1.300098 A    
C25   C26   1.409020 A    
C9    C16   1.402443 A    
O8    C4    1.294192 A    
C29   H4    1.082429 S    
C68   H68   1.108883 S    
O26   C66   1.420442 S    
C38   C39   1.401451 A    
N2    C27   1.367103 A    
O21   C59   1.405445 S    
C14   C36   1.398448 A    
C50   H20   1.111059 S    
C52   H26   1.110812 S    
C28   C29   1.407389 A    
C49   H17   1.114120 S    
C19   C38   1.415433 A    
C56   H34   1.111940 S    
O23   C61   1.411610 S    
Cu1   O5    1.959213 S    
C30   C31   1.398640 A    
C10   H2    1.083014 S    
O1    Cu1   1.949193 S    
C17   C30   1.407752 A    
O2    Cu2   1.959213 S    
C6    C15   1.400994 A    
C26   O12   1.348948 S    
C63   H56   1.115725 S    
O14   C48   1.412282 S    
O6    C3    1.298301 A    
C59   H44   1.114759 S    
O4    Cu2   1.943884 S    
C5    N1    1.368503 A    
C28   O22   1.388871 S    
C54   H29   1.108253 S    
C19   C35   1.419212 A    
C55   H33   1.109406 S    
C41   C42   1.346152 D    
C30   O15   1.380630 S    
C7    O13   1.389931 S    
O2    C1    1.288071 A    
C13   C14   1.401454 A    
C46   N4    1.296074 D    
O19   C57   1.410255 S    
C50   C51   1.528891 S    
O16   C50   1.419411 S    
C23   C24   1.415984 A    
C45   O20   1.397574 S    
C18   C20   1.412598 A    
C55   H32   1.110429 S    
C63   H55   1.111043 S    
C64   H58   1.110943 S    
C53   H27   1.110495 S    
C45   N3    1.302623 D    
C5    C13   1.405890 A    
C61   H49   1.113875 S    
C28   C32   1.404677 A    
C43   O18   1.385078 S    
C23   C27   1.410786 A    
Cu2   O6    1.949193 S    
C60   H47   1.114994 S    
C10   C11   1.397114 A    
C8    O26   1.386217 S    
O20   C58   1.409117 S    
C57   H39   1.109233 S    
C62   H52   1.110619 S    
C56   H35   1.114357 S    
