data_mof_unit_63660.cif
_audit_creation_date              2012-12-10T16:39:41-0500
_audit_creation_method            fapswitch 2.2
_symmetry_space_group_name_H-M    P1
_symmetry_Int_Tables_number       1
_space_group_crystal_system       triclinic
_cell_length_a                    10.900602
_cell_length_b                    10.930899
_cell_length_c                    16.036082
_cell_angle_alpha                 91.141034
_cell_angle_beta                  97.160618
_cell_angle_gamma                 98.76511
_cell_volume                      1872.23422001

loop_
_atom_site_label
_atom_site_type_symbol
_atom_type_description
_atom_site_fract_x
_atom_site_fract_y
_atom_site_fract_z
_atom_type_partial_charge
C1    C     C_R   0.837892 0.524661 0.517302 0.499445
C2    C     C_R   0.527861 0.835157 0.518517 0.505694
C3    C     C_R   0.473032 0.163350 0.482074 0.494831
C4    C     C_R   0.484065 0.516002 0.276033 0.513784
C5    C     C_R   0.515653 0.484418 0.723745 0.511630
C6    C     C_1   0.478071 0.522270 0.186615 0.045719
C7    C     C_2   0.469655 0.531009 0.021300 -0.119523
C8    C     C_2   0.536056 0.463951 0.978257 -0.007819
C9    C     C_1   0.616144 0.383054 0.019287 0.244173
C10   C     C_2   0.036019 0.664379 0.563098 0.615790
C11   C     C_1   0.357541 0.960874 0.420279 0.223462
C12   C     C_1   0.528239 0.471814 0.888397 -0.033036
C13   C     C_1   0.650303 0.026130 0.581387 0.243195
C14   C     C_1   0.473683 0.526837 0.111407 -0.016979
C15   C     C_1   0.522045 0.478025 0.813177 0.037162
C16   C     C_2   0.025781 0.464731 0.479727 -0.123755
C17   C     C_2   0.971881 0.543132 0.524050 0.052203
C18   C     C_2   0.460558 0.028249 0.477620 -0.053628
C19   C     C_2   0.541355 0.967399 0.525567 -0.032253
C20   C     C_R   0.160970 0.476473 0.481945 0.534402
H1    H     H_    0.410436 0.590824 0.988327 0.141621
H2    H     H_    0.968248 0.386660 0.443610 0.099531
H3    H     H_    0.150430 0.824917 0.551315 0.345713
N1    N     N_1   0.680219 0.318332 0.052124 -0.260698
N2    N     N_1   0.275520 0.907172 0.374639 -0.237584
N3    N     N_1   0.737438 0.072474 0.625996 -0.239790
O1    O     O_3   0.500000 0.500000 0.500000 -0.465499
O2    O     O_R   0.566290 0.591070 0.323460 -0.531368
O3    O     O_R   0.580640 0.419420 0.684420 -0.523166
O4    O     O_R   0.407770 0.434760 0.307690 -0.528896
O5    O     O_R   0.445300 0.554750 0.684430 -0.533868
O6    O     O_2   0.014901 0.696391 0.632723 -0.499211
O7    O     O_R   0.113907 0.744789 0.518345 -0.652186
O8    O     O_R   0.452040 0.769470 0.559450 -0.523243
O9    O     O_R   0.554760 0.223750 0.537250 -0.533760
O10   O     O_R   0.782610 0.596300 0.470630 -0.530104
O11   O     O_R   0.210590 0.410470 0.432660 -0.529957
O12   O     O_R   0.777820 0.443700 0.559450 -0.522980
O13   O     O_R   0.228980 0.549520 0.537250 -0.502319
O14   O     O_R   0.592170 0.786730 0.470640 -0.529160
O15   O     O_R   0.401030 0.220040 0.432660 -0.527425
Zn1   Zn    Zn3+2 0.408180 0.591840 0.569080 0.996410
Zn2   Zn    Zn3+2 0.608390 0.616500 0.442190 0.989261
Zn3   Zn    Zn3+2 0.381900 0.393170 0.419650 0.979722
Zn4   Zn    Zn3+2 0.601540 0.398480 0.569080 0.984457

loop_
_geom_bond_atom_site_label_1
_geom_bond_atom_site_label_2
_ccdc_geom_bond_type
C8    C9    S    
C9    N1    T    
O5    Zn1   S    
O1    Zn2   S    
O13   Zn1   S    
O2    Zn2   S    
C1    C17   S    
O8    Zn1   S    
C12   C15   T    
C3    O9    A    
C8    C12   S    
C2    O8    A    
O11   Zn3   S    
C7    C8    D    
C11   C18   S    
C20   O11   A    
O1    Zn1   S    
O4    Zn3   S    
C1    O12   A    
O12   Zn4   S    
C10   O6    D    
C16   C20   S    
C4    O2    A    
C10   O7    S    
C5    O3    A    
O14   Zn2   S    
O15   Zn3   S    
C13   N3    T    
C5    C15   S    
C6    C14   T    
O1    Zn4   S    
C13   C19   S    
C10   C17   S    
O9    Zn4   S    
C2    O14   A    
C3    C18   S    
C4    C6    S    
C18   C19   D    
C20   O13   A    
C11   N2    T    
C3    O15   A    
O10   Zn2   S    
C16   H2    S    
C5    O5    A    
C2    C19   S    
C7    H1    S    
O1    Zn3   S    
C7    C14   S    
C4    O4    A    
C1    O10   A    
O3    Zn4   S    
C16   C17   D    
H3    O7    S    
