data_mof_unit_6545.cif
_audit_creation_date              2012-12-10T17:26:13-0500
_audit_creation_method            fapswitch 2.2
_symmetry_space_group_name_H-M    P1
_symmetry_Int_Tables_number       1
_space_group_crystal_system       triclinic
_cell_length_a                    10.117313
_cell_length_b                    10.539676
_cell_length_c                    27.515805
_cell_angle_alpha                 91.357041
_cell_angle_beta                  80.665499
_cell_angle_gamma                 95.881656
_cell_volume                      2879.9296608

loop_
_atom_site_label
_atom_site_type_symbol
_atom_type_description
_atom_site_fract_x
_atom_site_fract_y
_atom_site_fract_z
_atom_type_partial_charge
C1    C     C_R   0.556912 0.735258 0.495929 0.923177
C2    C     C_R   0.624335 0.556195 0.124305 -0.078476
C3    C     C_R   0.503303 0.514712 0.647098 -0.046050
C4    C     C_R   0.499816 0.476899 0.353069 -0.039773
C5    C     C_R   0.637365 0.570471 0.021485 0.010948
C6    C     C_R   0.542415 0.360195 0.966950 0.032310
C7    C     C_R   0.541800 0.348353 0.018483 0.013808
C8    C     C_R   0.621555 0.586552 0.971835 0.010965
C9    C     C_R   0.587125 0.454977 0.045668 0.077202
C10   C     C_R   0.574515 0.481431 0.944548 0.078194
C11   C     C_R   0.704592 0.666580 0.047360 -0.216322
C12   C     C_R   0.443088 0.264616 0.502266 0.919146
C13   C     C_R   0.512608 0.254420 0.936993 -0.261514
C14   C     C_R   0.699320 0.662778 0.098394 0.161673
C15   C     C_R   0.493580 0.267794 0.888317 0.186971
C16   C     C_R   0.500360 0.502842 0.594196 0.867861
C17   C     C_R   0.499721 0.495842 0.405856 0.862118
C18   C     C_R   0.646728 0.707031 0.949638 -0.213576
C19   C     C_R   0.495386 0.233521 0.043777 -0.211514
C20   C     C_2   0.589548 0.872255 0.487146 -0.003847
C21   C     C_2   0.410601 0.126791 0.496830 -0.003761
C22   C     C_2   0.500617 0.929118 0.465665 -0.235465
C23   C     C_R   0.557586 0.497973 0.894962 -0.109125
C24   C     C_2   0.501422 0.066797 0.465634 -0.239782
C25   C     C_2   0.927142 0.510331 0.504611 -0.135983
C26   C     C_2   0.072445 0.488121 0.495977 -0.137219
C27   C     C_R   0.571610 0.630854 0.822777 0.494182
C28   C     C_R   0.495741 0.336724 0.174319 0.493071
C29   C     C_R   0.474152 0.415386 0.821600 0.498279
C30   C     C_R   0.594045 0.552243 0.176111 0.494818
C31   C     C_R   0.629696 0.523821 0.714729 -0.137440
C32   C     C_R   0.404513 0.502601 0.279159 -0.092818
C33   C     C_R   0.625858 0.512743 0.664636 -0.219264
C34   C     C_R   0.578848 0.447788 0.097427 -0.090210
C35   C     C_R   0.398305 0.518421 0.329947 -0.223539
C36   C     C_R   0.385238 0.531301 0.680360 -0.221520
C37   C     C_R   0.603479 0.414258 0.325365 -0.208585
C38   C     C_R   0.389421 0.542193 0.730639 -0.087440
C39   C     C_R   0.608586 0.397529 0.275048 -0.122898
C40   C     C_R   0.511538 0.537057 0.747800 0.335234
C41   C     C_R   0.510809 0.443531 0.251755 0.342675
C42   C     C_3   0.287933 0.051969 0.526671 -0.413296
C43   C     C_3   0.197275 0.130613 0.562802 -0.840596
C44   C     C_3   0.709712 0.949838 0.504356 -0.393998
C45   C     C_R   0.591429 0.619904 0.872250 -0.080254
C46   C     C_3   0.797904 0.874489 0.530782 -0.869966
C47   C     C_3   0.692545 0.855414 0.876768 -0.323499
C48   C     C_3   0.758855 0.955624 0.909014 -0.954916
C49   C     C_3   0.464949 0.088881 0.117858 -0.305436
C50   C     C_3   0.487075 0.975042 0.082698 -0.947670
C51   C     C_3   0.773976 0.770842 0.124649 -0.308701
C52   C     C_3   0.874866 0.864254 0.092213 -0.945891
C53   C     C_3   0.468068 0.145363 0.859130 -0.347021
C54   C     C_3   0.585086 0.126846 0.817531 -0.784693
C55   C     C_R   0.523011 0.333223 0.122329 -0.077421
C56   C     C_R   0.642772 0.724853 0.899772 0.167450
C57   C     C_R   0.494289 0.221247 0.094402 0.164952
C58   C     C_R   0.506357 0.392297 0.868178 -0.033825
H1    H     H_    0.289706 0.533984 0.667660 0.160972
H2    H     H_    0.718582 0.501329 0.639788 0.160792
H3    H     H_    0.329646 0.539581 0.260871 0.135824
H4    H     H_    0.723811 0.518152 0.728140 0.132308
H5    H     H_    0.764233 0.744483 0.027453 0.162144
H6    H     H_    0.507282 0.158594 0.950327 0.134765
H7    H     H_    0.589389 0.119499 0.444570 0.171253
H8    H     H_    0.414081 0.874366 0.453925 0.176119
H9    H     H_    0.256657 0.186864 0.587963 0.262256
H10   H     H_    0.144832 0.194766 0.542654 0.272771
H11   H     H_    0.119174 0.065411 0.585421 0.241076
H12   H     H_    0.681730 0.379200 0.342456 0.159703
H13   H     H_    0.225864 0.002025 0.500848 0.215990
H14   H     H_    0.323315 0.978249 0.548365 0.227706
H15   H     H_    0.736182 0.820354 0.562112 0.256385
H16   H     H_    0.852863 0.808660 0.504688 0.271776
H17   H     H_    0.873942 0.941666 0.545527 0.246011
H18   H     H_    0.774222 0.997307 0.471983 0.215416
H19   H     H_    0.671738 0.025574 0.530162 0.227703
H20   H     H_    0.683156 0.988433 0.939298 0.257308
H21   H     H_    0.841600 0.916837 0.924201 0.269030
H22   H     H_    0.803447 0.039899 0.886478 0.264685
H23   H     H_    0.108160 0.417644 0.468922 0.164879
H24   H     H_    0.770118 0.841589 0.844082 0.249323
H25   H     H_    0.606106 0.896156 0.865143 0.241585
H26   H     H_    0.405431 0.959158 0.060047 0.258809
H27   H     H_    0.586439 0.989981 0.058490 0.263728
H28   H     H_    0.485111 0.887157 0.104419 0.271492
H29   H     H_    0.534834 0.081702 0.144725 0.242732
H30   H     H_    0.359615 0.077032 0.137584 0.242503
H31   H     H_    0.950212 0.812182 0.067851 0.268187
H32   H     H_    0.822099 0.922947 0.069976 0.259919
H33   H     H_    0.929334 0.930238 0.116025 0.267973
H34   H     H_    0.891116 0.579573 0.532138 0.160112
H35   H     H_    0.699037 0.828111 0.146690 0.249121
H36   H     H_    0.832680 0.727674 0.149647 0.240916
H37   H     H_    0.599733 0.203281 0.789696 0.278166
H38   H     H_    0.680022 0.126394 0.832690 0.243662
H39   H     H_    0.565006 0.034378 0.798580 0.265773
H40   H     H_    0.455794 0.060531 0.883267 0.173815
H41   H     H_    0.371141 0.141415 0.845076 0.250627
H42   H     H_    0.664656 0.790077 0.971816 0.161593
H43   H     H_    0.454643 0.152227 0.025000 0.158817
H44   H     H_    0.120120 0.617449 0.545345 0.161923
H45   H     H_    0.880192 0.383777 0.454183 0.160042
H46   H     H_    0.297650 0.550977 0.756346 0.139041
H47   H     H_    0.691415 0.353127 0.253732 0.132612
H48   H     H_    0.317115 0.566047 0.350763 0.158505
N1    N     N_R   0.514709 0.529554 0.799306 -0.344381
N2    N     N_R   0.530774 0.444737 0.199241 -0.341505
N3    N     N_2   0.842700 0.448890 0.480020 -0.189978
N4    N     N_2   0.157300 0.551110 0.519980 -0.193020
O1    O     O_R   0.431060 0.692470 0.504020 -0.624198
O2    O     O_2   0.430127 0.235885 0.200249 -0.590412
O3    O     O_2   0.623833 0.655116 0.203857 -0.591114
O4    O     O_2   0.402280 0.325782 0.798244 -0.579420
O5    O     O_R   0.568940 0.307530 0.495980 -0.624066
O6    O     O_R   0.651120 0.659650 0.491200 -0.591348
O7    O     O_R   0.348880 0.340350 0.508800 -0.595310
O8    O     O_R   0.389980 0.516390 0.577660 -0.610751
O9    O     O_R   0.610020 0.483610 0.422340 -0.613529
O10   O     O_R   0.610040 0.483570 0.564830 -0.613101
O11   O     O_R   0.389960 0.516430 0.435170 -0.614582
O12   O     O_2   0.606156 0.740964 0.797889 -0.605661
Zn1   Zn    Zn3+2 0.353060 0.521910 0.508560 0.930492
Zn2   Zn    Zn3+2 0.646940 0.478090 0.491440 0.932304

loop_
_geom_bond_atom_site_label_1
_geom_bond_atom_site_label_2
_ccdc_geom_bond_type
C23   C58   A    
C29   O4    S    
C23   C45   A    
C41   N2    S    
C49   H29   S    
C52   H32   S    
C31   H4    S    
C36   H1    S    
C50   H26   S    
C39   C41   A    
C53   C54   S    
C53   H41   S    
C15   C53   S    
C48   H21   S    
C44   H19   S    
C32   H3    S    
C5    C11   A    
C11   H5    S    
C16   O10   A    
C11   C14   A    
C3    C33   A    
C49   C57   S    
C31   C40   A    
C39   H47   S    
C47   H24   S    
C48   H20   S    
C44   H18   S    
C22   H8    S    
C38   H46   S    
C50   H27   S    
C28   C55   A    
C14   C51   S    
C45   C56   A    
C43   H10   S    
C1    C20   S    
C32   C41   A    
C31   C33   A    
C54   H39   S    
C1    O6    A    
C47   H25   S    
C26   N4    D    
C54   H38   S    
C25   N3    D    
C12   O5    A    
C2    C34   A    
C4    C35   A    
C34   C55   A    
C43   H11   S    
C37   H12   S    
C49   H30   S    
C52   H31   S    
C18   H42   S    
C19   C57   A    
C46   H17   S    
C20   C44   S    
C27   O12   S    
C44   C46   S    
O1    Zn1   S    
C51   C52   S    
C32   C35   A    
C17   O9    A    
C25   C26   S    
O9    Zn2   S    
C12   C21   S    
C8    C18   A    
C21   C42   S    
C5    C9    A    
C16   O8    A    
N4    Zn1   S    
C47   C48   S    
C27   N1    A    
C42   H14   S    
C4    C37   A    
C54   H37   S    
C24   H7    S    
C51   H35   S    
C40   N1    S    
C4    C17   S    
C17   O11   A    
C20   C22   D    
C33   H2    S    
C7    C19   A    
C55   C57   A    
C9    C34   A    
C10   C23   A    
C15   C58   A    
C22   C24   S    
H44   N4    S    
C42   C43   S    
C46   H16   S    
C7    C9    A    
C25   H34   S    
O5    Zn2   S    
O6    Zn2   S    
C30   N2    A    
C8    C10   A    
C6    C10   A    
C5    C8    A    
N3    Zn2   S    
C6    C7    A    
C18   C56   A    
C53   H40   S    
C26   H23   S    
C2    C30   A    
H45   N3    S    
C48   H22   S    
C13   C15   A    
O7    Zn1   S    
C37   C39   A    
C35   H48   S    
C1    O1    A    
C6    C13   A    
C38   C40   A    
C19   H43   S    
C27   C45   A    
C13   H6    S    
C3    C36   A    
C28   N2    A    
C36   C38   A    
C42   H13   S    
O8    Zn1   S    
C2    C14   A    
O11   Zn1   S    
C50   H28   S    
C51   H36   S    
C12   O7    A    
C29   C58   A    
C43   H9    S    
C49   C50   S    
C21   C24   D    
C29   N1    A    
C52   H33   S    
C28   O2    S    
C46   H15   S    
C3    C16   S    
O10   Zn2   S    
C47   C56   S    
C30   O3    S    
