data_mof_unit_50448.cif
_audit_creation_date              2012-12-11T15:33:44-0500
_audit_creation_method            fapswitch 2.2
_symmetry_space_group_name_H-M    P1
_symmetry_Int_Tables_number       1
_space_group_crystal_system       triclinic
_cell_length_a                    27.148108
_cell_length_b                    7.235189
_cell_length_c                    22.658908
_cell_angle_alpha                 90.018115
_cell_angle_beta                  101.296321
_cell_angle_gamma                 89.759968
_cell_volume                      4364.43980882

loop_
_atom_site_label
_atom_site_type_symbol
_atom_type_description
_atom_site_fract_x
_atom_site_fract_y
_atom_site_fract_z
_atom_type_partial_charge
O1    O     O_R   0.207310 0.594030 0.676830 -0.535697
O2    O     O_R   0.792690 0.405970 0.323170 -0.535883
O3    O     O_R   0.292690 0.094030 0.823170 -0.524387
O4    O     O_R   0.707310 0.905970 0.176830 -0.537015
O5    O     O_R   0.197320 0.262370 0.795700 -0.532932
O6    O     O_R   0.802680 0.737630 0.204300 -0.520389
O7    O     O_R   0.302680 0.762370 0.704300 -0.515792
O8    O     O_R   0.697320 0.237630 0.295700 -0.528611
C1    C     C_R   0.185377 0.432341 0.812236 0.741616
C2    C     C_R   0.815668 0.568531 0.188046 0.695272
C3    C     C_R   0.314871 0.931045 0.687285 0.687001
C4    C     C_R   0.683560 0.068186 0.310141 0.712106
O9    O     O_R   0.201410 0.264250 0.675590 -0.541448
O10   O     O_R   0.798590 0.735750 0.324410 -0.534781
O11   O     O_R   0.298590 0.764250 0.824410 -0.531081
O12   O     O_R   0.701410 0.235750 0.175590 -0.525713
O13   O     O_R   0.296810 0.094940 0.702210 -0.531041
O14   O     O_R   0.703190 0.905060 0.297790 -0.539955
O15   O     O_R   0.203190 0.594940 0.797790 -0.534764
O16   O     O_R   0.796810 0.405060 0.202210 -0.539112
C5    C     C_R   0.189706 0.432885 0.653511 0.701370
C6    C     C_R   0.810185 0.566906 0.346468 0.702236
C7    C     C_R   0.310083 0.932252 0.846789 0.721346
C8    C     C_R   0.689673 0.067286 0.153588 0.720796
O17   O     O_3   0.281300 0.427390 0.758870 -0.354640
O18   O     O_3   0.718700 0.572610 0.241130 -0.369543
O19   O     O_3   0.218700 0.927390 0.741130 -0.383670
O20   O     O_3   0.781300 0.072610 0.258870 -0.362860
V1    V     V_3+5 0.244190 0.152150 0.748350 1.470563
V2    V     V_3+5 0.755810 0.847850 0.251650 1.474356
V3    V     V_3+5 0.255810 0.652150 0.751650 1.503818
V4    V     V_3+5 0.744190 0.347850 0.248350 1.478315
C9    C     C_R   0.654872 0.057132 0.094965 -0.104874
C10   C     C_R   0.344847 0.937296 0.905849 -0.117985
C11   C     C_R   0.844751 0.555698 0.405200 -0.100448
C12   C     C_R   0.154843 0.439845 0.594727 -0.103999
C13   C     C_R   0.642811 0.004765 0.987655 0.449919
C14   C     C_R   0.359357 0.884969 0.013607 0.430711
C15   C     C_R   0.856584 0.499540 0.512294 0.447788
C16   C     C_R   0.140495 0.388413 0.487081 0.433980
C17   C     C_R   0.674411 0.029314 0.043447 -0.260955
C18   C     C_R   0.327628 0.883614 0.957080 -0.245386
C19   C     C_R   0.825071 0.524997 0.456430 -0.253551
C20   C     C_R   0.172337 0.390020 0.543405 -0.222360
C21   C     C_R   0.602700 0.055914 0.091055 -0.188910
C22   C     C_R   0.395501 0.983708 0.910616 -0.198671
C23   C     C_R   0.896925 0.556286 0.409388 -0.197630
C24   C     C_R   0.103909 0.482715 0.590271 -0.212068
C25   C     C_R   0.568938 0.032439 0.034797 0.035593
C26   C     C_R   0.429930 0.979108 0.967010 0.038087
C27   C     C_R   0.930586 0.531516 0.465659 0.039727
C28   C     C_R   0.069597 0.479579 0.533813 0.039813
C29   C     C_R   0.589767 0.024514 0.981751 -0.053517
C30   C     C_R   0.410294 0.943624 0.019996 -0.054255
C31   C     C_R   0.909585 0.520565 0.518534 -0.055326
C32   C     C_R   0.089505 0.447217 0.480814 -0.057860
C33   C     C_R   0.515539 0.012351 0.029794 0.071642
C34   C     C_R   0.483179 0.004969 0.972031 0.070410
C35   C     C_R   0.984074 0.513160 0.470807 0.070660
C36   C     C_R   0.016261 0.503883 0.528660 0.071713
C37   C     C_R   0.505220 0.017970 0.920792 -0.230053
C38   C     C_R   0.493864 0.992527 0.080995 -0.234118
C39   C     C_R   0.994013 0.513825 0.579808 -0.234723
C40   C     C_R   0.006093 0.497864 0.419653 -0.238448
C41   C     C_R   0.557130 0.029951 0.924778 -0.051116
C42   C     C_R   0.442626 0.961163 0.077163 -0.031061
C43   C     C_R   0.942046 0.524501 0.575638 -0.049304
C44   C     C_R   0.057508 0.468534 0.423673 -0.037592
H1    H     H_    0.406541 0.022486 0.869241 0.112428
H2    H     H_    0.589971 0.074828 0.132776 0.139570
H3    H     H_    0.092630 0.518076 0.631840 0.107033
H4    H     H_    0.909706 0.577312 0.367820 0.113392
H5    H     H_    0.288857 0.841763 0.953314 0.160522
H6    H     H_    0.714689 0.019636 0.046733 0.152081
H7    H     H_    0.211136 0.349628 0.547142 0.123219
H8    H     H_    0.784765 0.514303 0.452808 0.125144
H9    H     H_    0.482841 0.017347 0.876026 0.148893
H10   H     H_    0.516352 0.997860 0.125702 0.149779
H11   H     H_    0.016287 0.511913 0.624631 0.145963
H12   H     H_    0.983849 0.506319 0.374875 0.149247
C45   C     C_R   0.641342 0.914146 0.385338 -0.146521
C46   C     C_R   0.382190 0.097878 0.647476 -0.138609
C47   C     C_R   0.874692 0.392148 0.135920 -0.168093
C48   C     C_R   0.106297 0.557140 0.836677 -0.160581
H13   H     H_    0.669874 0.807052 0.390415 0.145895
H14   H     H_    0.380023 0.206218 0.679662 0.192534
H15   H     H_    0.861226 0.271626 0.153594 0.197183
H16   H     H_    0.101303 0.639064 0.795896 0.130879
C49   C     C_R   0.604940 0.904782 0.421035 -0.146755
C50   C     C_R   0.415924 0.118334 0.608492 -0.161492
C51   C     C_R   0.909657 0.375374 0.098474 -0.183795
C52   C     C_R   0.069712 0.566054 0.872205 -0.147699
H17   H     H_    0.606517 0.790316 0.452149 0.172858
H18   H     H_    0.438179 0.243078 0.611199 0.182255
H19   H     H_    0.920322 0.238565 0.086228 0.198133
H20   H     H_    0.037428 0.655155 0.857901 0.168803
C53   C     C_R   0.567803 0.042060 0.417991 -0.088869
C54   C     C_R   0.422315 0.977653 0.568069 -0.091369
C55   C     C_R   0.930186 0.532322 0.076596 -0.089273
C56   C     C_R   0.074158 0.460315 0.924967 -0.090055
C57   C     C_R   0.566717 0.187950 0.376148 0.384893
C58   C     C_R   0.392895 0.816082 0.566157 0.366274
C59   C     C_R   0.916062 0.708193 0.095413 0.388194
C60   C     C_R   0.117423 0.347895 0.942754 0.393191
C61   C     C_R   0.603706 0.198476 0.339765 -0.109256
C62   C     C_R   0.359791 0.792743 0.606759 -0.086524
C63   C     C_R   0.877047 0.722173 0.128519 -0.059888
C64   C     C_R   0.154327 0.336481 0.906303 -0.093692
C65   C     C_R   0.642016 0.060712 0.344882 -0.174115
C66   C     C_R   0.352956 0.937853 0.647122 -0.184218
C67   C     C_R   0.856151 0.562536 0.150377 -0.187038
C68   C     C_R   0.148352 0.441449 0.852490 -0.155881
N1    N     N_R   0.505717 0.179337 0.473373 -0.223953
N2    N     N_R   0.485786 0.845692 0.514884 -0.216518
N3    N     N_R   0.972374 0.646899 0.995966 -0.225361
N4    N     N_R   0.027481 0.336193 0.000205 -0.234126
N5    N     N_R   0.471954 0.164315 0.508753 -0.288592
N6    N     N_R   0.519588 0.860809 0.479735 -0.277910
N7    N     N_R   0.005919 0.629596 0.960454 -0.281536
N8    N     N_R   0.993928 0.353435 0.035689 -0.307765
C69   C     C_R   0.460957 0.996690 0.529886 0.511040
C70   C     C_R   0.530088 0.027666 0.457747 0.512951
C71   C     C_R   0.034652 0.474642 0.962251 0.529521
C72   C     C_R   0.966047 0.510133 0.034898 0.520989
C73   C     C_2   0.575222 0.063186 0.867964 0.822543
O21   O     O_2   0.557960 0.973990 0.822832 -0.558257
O22   O     O_R   0.610495 0.201795 0.865459 -0.648715
H21   H     H_    0.619534 0.212386 0.824257 0.306916
C74   C     C_2   0.425097 0.956715 0.135214 0.787740
O23   O     O_2   0.389707 0.053104 0.142497 -0.555153
O24   O     O_R   0.451002 0.849475 0.182751 -0.679057
H22   H     H_    0.436226 0.860444 0.220388 0.280899
C75   C     C_2   0.923683 0.554655 0.632475 0.817224
O25   O     O_2   0.941086 0.463625 0.677249 -0.562191
O26   O     O_R   0.888003 0.692508 0.635454 -0.649157
H23   H     H_    0.878821 0.700964 0.676637 0.306706
C76   C     C_2   0.075879 0.473642 0.366152 0.805776
O27   O     O_2   0.111615 0.570769 0.361312 -0.549999
O28   O     O_R   0.050330 0.375431 0.316389 -0.678581
H24   H     H_    0.065674 0.392724 0.279418 0.289484
O29   O     O_3   0.664886 0.953983 0.939910 -0.558131
C77   C     C_3   0.660645 0.760212 0.931022 0.100800
H25   H     H_    0.661665 0.732537 0.883047 0.169675
H26   H     H_    0.624184 0.703791 0.938650 0.112023
C78   C     C_3   0.704805 0.657745 0.970408 -0.369141
H27   H     H_    0.740797 0.712885 0.961492 0.229405
H28   H     H_    0.703976 0.679212 0.018721 0.195633
C79   C     C_3   0.702372 0.450480 0.957866 -0.705856
H29   H     H_    0.666873 0.393063 0.967402 0.249109
H30   H     H_    0.734454 0.379968 0.987340 0.230918
H31   H     H_    0.704380 0.422839 0.910173 0.251069
O30   O     O_3   0.339508 0.826840 0.062138 -0.552291
C80   C     C_3   0.347648 0.634541 0.071383 0.106470
H32   H     H_    0.363458 0.612673 0.119952 0.157687
H33   H     H_    0.375164 0.572575 0.046109 0.101426
C81   C     C_3   0.297559 0.532657 0.055397 -0.372822
H34   H     H_    0.270181 0.595660 0.080153 0.209893
H35   H     H_    0.282365 0.546489 0.006432 0.218480
C82   C     C_3   0.303808 0.328150 0.071601 -0.717056
H36   H     H_    0.331714 0.263232 0.048100 0.248844
H37   H     H_    0.267412 0.255949 0.057717 0.241510
H38   H     H_    0.316388 0.311771 0.120991 0.257573
O31   O     O_3   0.834481 0.447413 0.559801 -0.560996
C83   C     C_3   0.839350 0.253596 0.568470 0.106453
H39   H     H_    0.838396 0.225107 0.616407 0.169624
H40   H     H_    0.875991 0.197853 0.560790 0.111392
C84   C     C_3   0.795528 0.151207 0.528936 -0.383957
H41   H     H_    0.759357 0.206065 0.537755 0.216691
H42   H     H_    0.796433 0.173082 0.480665 0.191590
C85   C     C_3   0.798457 0.943913 0.541421 -0.710187
H43   H     H_    0.834221 0.886919 0.532174 0.250274
H44   H     H_    0.766689 0.873380 0.511711 0.219485
H45   H     H_    0.796252 0.915937 0.589025 0.251966
O32   O     O_3   0.160164 0.327045 0.438646 -0.556076
C86   C     C_3   0.153571 0.133421 0.431887 0.109641
H46   H     H_    0.145490 0.103395 0.382847 0.161915
H47   H     H_    0.120890 0.079238 0.449798 0.101145
C87   C     C_3   0.201837 0.030774 0.460852 -0.387853
H48   H     H_    0.234338 0.090251 0.444357 0.210751
H49   H     H_    0.208501 0.046574 0.510493 0.187373
C88   C     C_3   0.198395 0.824976 0.446214 -0.708607
H50   H     H_    0.165991 0.763510 0.462243 0.249671
H51   H     H_    0.233261 0.753975 0.469077 0.241325
H52   H     H_    0.193956 0.803226 0.396940 0.253835
O33   O     O_3   0.529687 0.322534 0.370772 -0.541296
C89   C     C_3   0.488907 0.271537 0.324718 0.107625
H53   H     H_    0.465591 0.166572 0.342281 0.116450
H54   H     H_    0.501438 0.213369 0.284417 0.109170
C90   C     C_3   0.456906 0.443140 0.304864 -0.271706
H55   H     H_    0.442676 0.500342 0.343824 0.207263
H56   H     H_    0.480497 0.550229 0.288920 0.224120
C91   C     C_3   0.412569 0.398974 0.254242 -0.813381
H57   H     H_    0.426273 0.351667 0.213674 0.260376
H58   H     H_    0.389323 0.525172 0.242377 0.229680
H59   H     H_    0.388775 0.289835 0.268621 0.237729
O34   O     O_3   0.398798 0.672652 0.527588 -0.550246
C92   C     C_3   0.369656 0.709975 0.469917 0.122723
H60   H     H_    0.388394 0.816377 0.446673 0.111694
H61   H     H_    0.331158 0.760058 0.472340 0.121401
C93   C     C_3   0.364772 0.531998 0.432947 -0.248966
H62   H     H_    0.402809 0.479247 0.430467 0.221403
H63   H     H_    0.345589 0.425363 0.455511 0.212283
C94   C     C_3   0.334827 0.563685 0.369372 -0.857290
H64   H     H_    0.296293 0.612938 0.370976 0.248152
H65   H     H_    0.332009 0.431889 0.343842 0.240492
H66   H     H_    0.353819 0.667409 0.345507 0.232337
O35   O     O_3   0.938420 0.868949 0.080215 -0.562496
C95   C     C_3   0.988127 0.883830 0.114141 0.079198
H67   H     H_    0.008340 0.984591 0.090654 0.194453
H68   H     H_    0.009702 0.752032 0.116264 0.106937
C96   C     C_3   0.988887 0.954728 0.178156 -0.338475
H69   H     H_    0.967834 0.087114 0.176286 0.226992
H70   H     H_    0.970758 0.852059 0.203371 0.208905
C97   C     C_3   0.042574 0.985452 0.212125 -0.788737
H71   H     H_    0.064606 0.855032 0.214293 0.233158
H72   H     H_    0.041989 0.030912 0.258775 0.261766
H73   H     H_    0.061112 0.093817 0.189541 0.227035
O36   O     O_3   0.124167 0.249654 0.996172 -0.542028
C98   C     C_3   0.148399 0.364408 0.043454 0.115029
H74   H     H_    0.124628 0.486908 0.048703 0.115180
H75   H     H_    0.185224 0.413085 0.034869 0.105369
C99   C     C_3   0.157432 0.253976 0.102064 -0.264401
H76   H     H_    0.120902 0.203168 0.110724 0.205050
H77   H     H_    0.181666 0.132464 0.097708 0.213797
C100  C     C_3   0.182745 0.371417 0.155294 -0.839264
H78   H     H_    0.219897 0.420277 0.148295 0.238148
H79   H     H_    0.188462 0.287294 0.197078 0.241670
H80   H     H_    0.158821 0.492539 0.160970 0.235575
C101  C     C_2   0.599496 0.349962 0.294817 0.792389
O37   O     O_2   0.601087 0.315116 0.242397 -0.577839
O38   O     O_R   0.592069 0.531821 0.312161 -0.642268
H81   H     H_    0.589278 0.622518 0.277550 0.295397
C102  C     C_2   0.334814 0.611495 0.606513 0.802597
O39   O     O_2   0.344488 0.512091 0.650808 -0.558951
O40   O     O_R   0.303524 0.547873 0.554189 -0.682574
H82   H     H_    0.293958 0.413724 0.557609 0.275039
C103  C     C_2   0.858022 0.904946 0.139274 0.789848
O41   O     O_2   0.872057 0.977452 0.188376 -0.578618
O42   O     O_R   0.819543 0.982009 0.096066 -0.665788
H83   H     H_    0.801163 0.086663 0.112225 0.266906
C104  C     C_2   0.200750 0.226334 0.927459 0.753974
O43   O     O_2   0.198592 0.076646 0.951867 -0.540526
O44   O     O_R   0.247211 0.296887 0.920843 -0.679071
H84   H     H_    0.276292 0.214186 0.939289 0.291065

loop_
_geom_bond_atom_site_label_1
_geom_bond_atom_site_label_2
_ccdc_geom_bond_type
O17   V3    S    
C54   C69   S    
C55   C59   A    
C94   H64   S    
O31   C83   S    
O1    C5    A    
C62   C102  S    
O19   V1    S    
C9    C21   A    
O3    C7    A    
O42   H83   S    
C10   C18   A    
C79   H31   S    
C56   C60   A    
C11   C23   A    
C78   H27   S    
C33   C34   A    
C25   C33   A    
C33   C38   A    
C84   H42   S    
C5    C12   S    
C39   H11   S    
C88   H50   S    
O7    C3    A    
C6    C11   S    
C76   O28   S    
C35   C40   A    
C48   C68   A    
C13   O29   S    
C36   C39   A    
C46   C66   A    
O9    V1    S    
C83   H39   S    
C43   C75   S    
C59   O35   S    
C14   C18   A    
C95   C96   S    
C82   H36   S    
O16   V4    S    
O4    C8    A    
C97   H72   S    
C87   H49   S    
C94   H65   S    
C85   H43   S    
C92   H60   S    
O44   H84   S    
C60   C64   A    
O1    V3    S    
C100  H80   S    
O13   V1    S    
O2    V4    S    
C104  O43   D    
N6    C70   A    
O3    V1    S    
N5    C69   A    
O32   C86   S    
C22   H1    S    
C28   C36   A    
C17   H6    S    
N2    C69   A    
C81   H35   S    
C1    O15   A    
C15   C31   A    
N1    C70   A    
C96   H69   S    
C20   H7    S    
C37   H9    S    
C93   H62   S    
C16   C32   A    
C64   C104  S    
O2    C6    A    
O40   H82   S    
C82   H37   S    
C58   C62   A    
C10   C22   A    
C80   H33   S    
C11   C19   A    
C102  O39   D    
C16   C20   A    
C27   C31   A    
C42   C74   S    
C13   C29   A    
C34   C37   A    
O11   C7    A    
O15   V3    S    
C35   C36   A    
O12   C8    A    
C103  O41   D    
C3    C66   S    
C49   H17   S    
C40   H12   S    
C77   C78   S    
C44   C76   S    
C90   H55   S    
O10   V2    S    
C57   O33   S    
C14   O30   S    
C4    C65   S    
C78   H28   S    
C50   H18   S    
C86   C87   S    
O5    V1    S    
C88   H51   S    
C52   H20   S    
C57   C61   A    
N4    C71   A    
C94   H66   S    
C39   C43   A    
O7    V3    S    
C38   C42   A    
O35   C95   S    
O8    V4    S    
C91   H59   S    
C87   H48   S    
O26   H23   S    
C79   H29   S    
C86   H47   S    
C2    O16   A    
C84   H41   S    
C97   H71   S    
C95   H67   S    
C23   C27   A    
C99   C100  S    
C32   C44   A    
C97   H73   S    
C64   C68   A    
C49   C53   A    
C104  O44   S    
C61   C101  S    
C92   C93   S    
O5    C1    A    
C101  O37   D    
C37   C41   A    
C98   H75   S    
C63   C103  S    
C53   C57   A    
C31   C43   A    
C86   H46   S    
C14   C30   A    
C21   C25   A    
O8    C4    A    
C7    C10   S    
O36   C98   S    
C100  H78   S    
C82   H38   S    
O9    C5    A    
C2    C67   S    
C26   C30   A    
C80   C81   S    
C99   H77   S    
C102  O40   S    
C60   O36   S    
N2    N6    A    
N1    N5    A    
C84   C85   S    
C93   H63   S    
C26   C34   A    
O6    V2    S    
C45   C65   A    
N3    N7    A    
C103  O42   S    
C75   O25   D    
C77   H26   S    
C12   C20   A    
C27   C35   A    
C24   H3    S    
C89   H54   S    
C53   C70   S    
C40   C44   A    
C98   H74   S    
C78   C79   S    
C29   C41   A    
C52   C56   A    
C73   O22   S    
C74   O23   D    
C62   C66   A    
C88   H52   S    
C19   H8    S    
C61   C65   A    
C3    O13   A    
C18   H5    S    
N3    C72   A    
C96   H70   S    
C21   H2    S    
C63   C67   A    
C38   H10   S    
C83   C84   S    
C48   H16   S    
C79   H30   S    
O34   C92   S    
O24   H22   S    
C58   O34   S    
C47   H15   S    
O6    C2    A    
C15   C19   A    
O28   H24   S    
O11   V3    S    
O22   H21   S    
C30   C42   A    
N7    C71   A    
O12   V4    S    
C47   C51   A    
C76   O27   D    
C22   C26   A    
C8    C9    S    
C46   C50   A    
C56   C71   S    
C9    C17   A    
C91   H57   S    
O10   C6    A    
C89   C90   S    
C92   H61   S    
C89   H53   S    
C45   C49   A    
O20   V2    S    
C101  O38   S    
C54   C58   A    
C90   C91   S    
C81   C82   S    
C98   C99   S    
C46   H14   S    
O33   C89   S    
C73   O21   D    
C85   H44   S    
C1    C68   S    
C93   C94   S    
C25   C29   A    
C83   H40   S    
C100  H79   S    
C12   C24   A    
C47   C67   A    
C13   C17   A    
C99   H76   S    
N4    N8    A    
O4    V2    S    
C23   H4    S    
C87   C88   S    
O14   V2    S    
C51   H19   S    
C28   C32   A    
C24   C28   A    
C96   C97   S    
C81   H34   S    
O30   C80   S    
C16   O32   S    
C95   H68   S    
C4    O14   A    
O38   H81   S    
C75   O26   S    
C77   H25   S    
C55   C72   S    
C59   C63   A    
C48   C52   A    
C51   C55   A    
C80   H32   S    
O29   C77   S    
C15   O31   S    
C50   C54   A    
O18   V4    S    
C45   H13   S    
N8    C72   A    
C41   C73   S    
C90   H56   S    
C74   O24   S    
C85   H45   S    
C91   H58   S    
