data_mof_unit_53050.cif
_audit_creation_date              2012-12-10T18:58:45-0500
_audit_creation_method            fapswitch 2.2
_symmetry_space_group_name_H-M    P1
_symmetry_Int_Tables_number       1
_space_group_crystal_system       triclinic
_cell_length_a                    12.93468
_cell_length_b                    10.800877
_cell_length_c                    9.625035
_cell_angle_alpha                 89.664245
_cell_angle_beta                  96.056375
_cell_angle_gamma                 92.549651
_cell_volume                      1335.84419343

loop_
_atom_site_label
_atom_site_type_symbol
_atom_type_description
_atom_site_fract_x
_atom_site_fract_y
_atom_site_fract_z
_atom_type_partial_charge
C1    C     C_R   0.498427 0.262568 0.500075 0.772013
C2    C     C_R   0.024478 0.453078 0.547967 0.100698
C3    C     C_R   0.973957 0.527686 0.442957 0.174679
C4    C     C_R   0.867720 0.542916 0.439796 -0.339386
C5    C     C_R   0.859846 0.403054 0.638307 0.428552
C6    C     C_R   0.967305 0.390861 0.644632 -0.311278
C7    C     C_R   0.431710 0.058422 0.580312 0.010007
C8    C     C_R   0.494447 0.128907 0.497223 -0.074392
C9    C     C_R   0.545112 0.067718 0.396992 -0.167484
C10   C     C_R   0.544999 0.938584 0.395973 -0.199111
C11   C     C_R   0.493950 0.869886 0.494834 -0.147152
C12   C     C_R   0.300877 0.500357 0.473763 0.787376
C13   C     C_R   0.431365 0.931354 0.578694 0.118546
C14   C     C_3   0.413552 0.919298 0.728838 0.295229
C15   C     C_3   0.414900 0.060645 0.731625 -0.466969
C16   C     C_R   0.539990 0.599115 0.078291 0.169693
C17   C     C_R   0.442887 0.412396 0.066940 0.042289
C18   C     C_R   0.436318 0.418462 0.917043 0.052684
C19   C     C_R   0.544070 0.596603 0.934322 0.135262
C20   C     C_3   0.646662 0.667937 0.944505 0.284772
C21   C     C_3   0.642612 0.666656 0.103704 -0.547808
C22   C     C_R   0.499295 0.737137 0.499352 0.803960
C23   C     C_R   0.698929 0.496397 0.525823 0.835984
C24   C     C_R   0.810788 0.482923 0.538155 -0.140095
C25   C     C_R   0.188353 0.504608 0.458197 -0.044881
C26   C     C_R   0.030653 0.586539 0.343311 -0.178450
C27   C     C_R   0.137665 0.574222 0.350363 -0.178586
C28   C     C_R   0.131636 0.442822 0.555285 -0.240314
Cu1   Cu    Cu3+1 0.499990 0.499980 0.640670 0.962011
Cu2   Cu    Cu3+1 0.500010 0.500020 0.359330 0.936913
H1    H     H_    0.829273 0.602398 0.361262 0.155003
H2    H     H_    0.480260 0.879791 0.795266 0.043524
H3    H     H_    0.338122 0.096755 0.748421 0.234619
H4    H     H_    0.482113 0.102777 0.798865 0.173121
H5    H     H_    0.638659 0.761206 0.895220 0.039365
H6    H     H_    0.701549 0.608876 0.161954 0.225758
H7    H     H_    0.636392 0.760625 0.147093 0.144989
H8    H     H_    0.992540 0.642874 0.261313 0.130729
H9    H     H_    0.005627 0.333118 0.725095 0.183451
H10   H     H_    0.181250 0.622143 0.274586 0.153007
H11   H     H_    0.170939 0.386836 0.636255 0.180088
H12   H     H_    0.589105 0.119460 0.324479 0.164250
H13   H     H_    0.589346 0.893233 0.323458 0.147470
N1    N     N_R   0.500660 0.500930 0.148010 -0.224017
N2    N     N_R   0.500660 0.500890 0.852110 -0.227709
O1    O     O_R   0.500000 0.319640 0.618810 -0.608682
O2    O     O_R   0.500010 0.319680 0.381230 -0.596989
O3    O     O_R   0.348990 0.499960 0.599490 -0.610729
O4    O     O_R   0.349000 0.500000 0.361910 -0.611470
O5    O     O_R   0.499990 0.680320 0.618770 -0.610915
O6    O     O_R   0.500000 0.680360 0.381190 -0.570705
O7    O     O_R   0.651000 0.500000 0.638090 -0.484604
O8    O     O_R   0.651010 0.500040 0.400510 -0.593081
C29   C     C_2   0.387935 0.308304 0.132924 0.510265
H14   H     H_    0.338848 0.324187 0.214410 0.097050
O9    O     O_2   0.396742 0.201946 0.094884 -0.564924
C30   C     C_2   0.349697 0.347765 0.834816 0.371306
H15   H     H_    0.356150 0.312786 0.732568 0.122715
O10   O     O_2   0.265569 0.331005 0.880466 -0.592454
O11   O     O_3   0.730300 0.601097 0.904691 -0.497984
C31   C     C_3   0.822194 0.678152 0.928573 0.077751
H16   H     H_    0.835964 0.708455 0.039673 0.123545
H17   H     H_    0.817121 0.761896 0.860434 0.125565
C32   C     C_3   0.916770 0.608813 0.897527 -0.723460
H18   H     H_    0.921466 0.607745 0.783402 0.237545
H19   H     H_    0.988642 0.657288 0.947228 0.181593
H20   H     H_    0.912700 0.512766 0.939051 0.281571
O12   O     O_3   0.804434 0.342702 0.735581 -0.540117
C33   C     C_3   0.774785 0.222307 0.685899 0.089847
H21   H     H_    0.844245 0.167966 0.672192 0.133008
H22   H     H_    0.724639 0.226173 0.584605 0.117487
C34   C     C_3   0.712950 0.155331 0.791646 -0.758047
H23   H     H_    0.646853 0.211509 0.813988 0.269286
H24   H     H_    0.682359 0.063795 0.749554 0.181631
H25   H     H_    0.763578 0.141020 0.890465 0.239049
O13   O     O_3   0.312423 0.867662 0.741904 -0.548537
C35   C     C_3   0.317618 0.765502 0.833812 0.081856
H26   H     H_    0.352461 0.794556 0.940046 0.139429
H27   H     H_    0.363924 0.692233 0.793548 0.175994
C36   C     C_3   0.208417 0.710604 0.844564 -0.754488
H28   H     H_    0.172147 0.680030 0.739910 0.259514
H29   H     H_    0.211997 0.629328 0.915895 0.208658
H30   H     H_    0.159753 0.780903 0.886260 0.244111

loop_
_geom_bond_atom_site_label_1
_geom_bond_atom_site_label_2
_ccdc_geom_bond_type
Cu2   O6    S    
C16   C21   S    
C31   C32   S    
C1    C8    S    
C19   C20   S    
C12   O3    A    
C12   O4    A    
C30   H15   S    
C7    C8    A    
C21   H6    S    
C35   H26   S    
C25   C28   A    
C26   C27   A    
C33   H21   S    
C36   H30   S    
C5    C6    A    
C4    C24   A    
C1    O1    A    
C30   O10   D    
C28   H11   S    
C33   H22   S    
C31   H17   S    
O12   C33   S    
C20   H5    S    
C8    C9    A    
C23   C24   S    
C20   O11   S    
C9    C10   A    
C16   N1    A    
C15   H4    S    
C22   O5    A    
C7    C15   S    
C13   C14   S    
Cu2   N1    S    
C2    C6    A    
C34   H25   S    
C5    O12   S    
C23   O8    A    
Cu1   O5    S    
C35   H27   S    
Cu2   O8    S    
C29   O9    D    
Cu1   O3    S    
C32   H20   S    
Cu2   O2    S    
O13   C35   S    
C34   H23   S    
C34   H24   S    
C1    O2    A    
Cu1   N2    S    
O11   C31   S    
C14   O13   S    
C33   C34   S    
Cu1   Cu2   S    
C18   C30   S    
C27   H10   S    
C17   C18   A    
C9    H12   S    
C36   H29   S    
Cu2   O4    S    
C3    C4    A    
C18   N2    A    
C35   C36   S    
C29   H14   S    
C10   H13   S    
C6    H9    S    
C3    C26   A    
C26   H8    S    
C14   H2    S    
C36   H28   S    
C19   N2    A    
C25   C27   A    
Cu1   O1    S    
C11   C22   S    
C12   C25   S    
C32   H18   S    
C2    C3    A    
C17   N1    A    
C11   C13   A    
C23   O7    A    
C5    C24   A    
C16   C19   A    
C31   H16   S    
C4    H1    S    
C10   C11   A    
C7    C13   A    
C21   H7    S    
C20   C21   S    
C14   C15   S    
C2    C28   A    
C17   C29   S    
C15   H3    S    
C32   H19   S    
C22   O6    A    
Cu1   O7    S    
