data_mof_unit_19440.cif
_audit_creation_date              2012-12-11T16:08:49-0500
_audit_creation_method            fapswitch 2.2
_symmetry_space_group_name_H-M    P1
_symmetry_Int_Tables_number       1
_space_group_crystal_system       triclinic
_cell_length_a                    12.959586
_cell_length_b                    13.309727
_cell_length_c                    27.749953
_cell_angle_alpha                 94.432876
_cell_angle_beta                  90.47378
_cell_angle_gamma                 119.226707
_cell_volume                      4158.87342168

loop_
_atom_site_label
_atom_site_type_symbol
_atom_type_description
_atom_site_fract_x
_atom_site_fract_y
_atom_site_fract_z
_atom_type_partial_charge
C1    C     C_R   0.627740 0.897376 0.426555 0.581571
C2    C     C_R   0.633030 0.404688 0.235439 -0.068990
C3    C     C_R   0.623393 0.388934 0.284937 0.305098
C4    C     C_R   0.673280 0.327800 0.305356 0.044618
C5    C     C_R   0.688190 0.356532 0.205997 -0.002212
C6    C     C_1   0.697364 0.374539 0.155350 -0.053614
C7    C     C_1   0.656270 0.302712 0.355240 -0.034504
C8    C     C_1   0.705392 0.398237 0.113979 -0.014212
C9    C     C_R   0.149033 0.745165 0.355717 -0.139231
C10   C     C_R   0.123591 0.731635 0.306188 0.024335
C11   C     C_R   0.099445 0.711045 0.205559 0.012394
C12   C     C_R   0.601212 0.222498 0.440693 0.532549
C13   C     C_R   0.073673 0.613890 0.230073 -0.124102
C14   C     C_R   0.085183 0.624046 0.280252 -0.128758
C15   C     C_R   0.089070 0.700882 0.155636 -0.124537
C16   C     C_R   0.105533 0.794959 0.130559 -0.014668
C17   C     C_R   0.211989 0.950033 0.357354 -0.123321
C18   C     C_R   0.185637 0.937717 0.307770 -0.032579
C19   C     C_R   0.145793 0.829128 0.281774 0.048365
C20   C     C_R   0.207904 0.033988 0.283308 -0.109118
C21   C     C_R   0.193631 0.024157 0.232765 0.276217
C22   C     C_R   0.157446 0.916463 0.206349 0.025438
C23   C     C_R   0.267839 0.876396 0.426242 0.536747
C24   C     C_R   0.133422 0.818866 0.231232 0.017204
C25   C     C_R   0.141770 0.903062 0.155730 -0.118295
C26   C     C_R   0.201748 0.855527 0.380466 0.000807
C27   C     C_R   0.746277 0.954402 0.353071 0.224548
C28   C     C_R   0.747525 0.942240 0.302602 0.010402
C29   C     C_R   0.740442 0.924571 0.201507 0.021563
C30   C     C_R   0.824373 0.026095 0.227656 -0.159232
C31   C     C_R   0.832423 0.032236 0.277612 -0.115563
C32   C     C_R   0.743827 0.913067 0.151675 -0.129880
C33   C     C_R   0.677222 0.804409 0.126130 -0.004039
C34   C     C_R   0.627038 0.899006 0.565157 0.549097
C35   C     C_R   0.570200 0.761114 0.350832 0.224616
C36   C     C_R   0.578556 0.745773 0.300520 0.016283
C37   C     C_R   0.661172 0.839616 0.276378 -0.029081
C38   C     C_R   0.504387 0.639466 0.273539 -0.083687
C39   C     C_R   0.506139 0.628579 0.223317 -0.151591
C40   C     C_R   0.582998 0.723411 0.199102 0.014531
C41   C     C_R   0.660480 0.829496 0.225656 0.071832
C42   C     C_R   0.591358 0.711456 0.149174 -0.133317
C43   C     C_R   0.651956 0.867025 0.377086 0.015492
C44   C     C_R   0.736183 0.287469 0.652119 -0.176946
C45   C     C_R   0.604003 0.228072 0.578147 0.551397
C46   C     C_R   0.749519 0.311428 0.702333 0.007782
C47   C     C_R   0.762734 0.341905 0.803990 0.019779
C48   C     C_R   0.844564 0.319541 0.779449 -0.126305
C49   C     C_R   0.836800 0.302526 0.728949 -0.116193
C50   C     C_R   0.771315 0.362030 0.854558 -0.136838
C51   C     C_R   0.688371 0.384000 0.878346 -0.020667
C52   C     C_R   0.579070 0.338111 0.649529 0.264099
C53   C     C_R   0.584268 0.351630 0.700114 -0.021521
C54   C     C_R   0.669204 0.337563 0.726576 0.001635
C55   C     C_R   0.502191 0.373585 0.724626 -0.104845
C56   C     C_R   0.272635 0.879582 0.563607 0.544559
C57   C     C_R   0.499736 0.375926 0.774910 0.236756
C58   C     C_R   0.587221 0.366376 0.801412 0.011600
C59   C     C_R   0.672994 0.348478 0.777337 0.020859
C60   C     C_R   0.592875 0.378619 0.851648 -0.114810
C61   C     C_R   0.645502 0.292375 0.626082 -0.004651
C62   C     C_1   0.226077 0.863354 0.610849 0.005041
C63   C     C_R   0.198422 0.762522 0.726921 0.292923
C64   C     C_R   0.183701 0.756100 0.776874 -0.085660
C65   C     C_R   0.143196 0.915971 0.780598 -0.127856
C66   C     C_R   0.155506 0.921450 0.730648 -0.160607
C67   C     C_1   0.634970 0.272763 0.395582 -0.028710
C68   C     C_R   0.181424 0.843912 0.703551 0.045993
C69   C     C_R   0.157056 0.833120 0.803791 -0.006940
C70   C     C_1   0.133110 0.819302 0.854170 -0.052461
C71   C     C_1   0.200483 0.853638 0.652576 -0.012113
C72   C     C_1   0.104639 0.800150 0.895164 -0.009385
C73   C     C_1   0.641289 0.867357 0.611968 -0.017635
C74   C     C_R   0.675809 0.929351 0.738125 -0.116953
C75   C     C_R   0.676041 0.917129 0.787699 -0.114485
C76   C     C_R   0.624491 0.716296 0.769954 -0.099335
C77   C     C_R   0.624073 0.728470 0.720331 -0.120665
C78   C     C_R   0.729571 0.280849 0.275824 -0.164841
C79   C     C_R   0.650899 0.835409 0.704315 0.020852
C80   C     C_R   0.650698 0.810649 0.803745 0.031111
C81   C     C_1   0.663261 0.800839 0.854477 -0.050074
C82   C     C_1   0.647531 0.849069 0.653471 -0.072208
C83   C     C_1   0.681879 0.791211 0.896032 -0.006889
C84   C     C_R   0.061247 0.769758 0.080138 0.545300
C85   C     C_R   0.717293 0.441651 0.067442 0.545284
C86   C     C_R   0.719074 0.782704 0.080176 0.546886
C87   C     C_R   0.056637 0.766468 0.941338 0.547721
C88   C     C_R   0.710334 0.435411 0.928625 0.544904
C89   C     C_R   0.737186 0.295274 0.226344 -0.124125
C90   C     C_R   0.716067 0.776372 0.943065 0.545579
Cr1   Cr    Cr6+3 0.416430 0.829200 0.492370 1.034001
Cr2   Cr    Cr6+3 0.674630 0.087020 0.504170 1.020007
Cr3   Cr    Cr6+3 0.408920 0.083740 0.503490 1.049313
Cr4   Cr    Cr6+3 0.914010 0.832750 0.013970 1.024409
Cr5   Cr    Cr6+3 0.922310 0.578600 0.003000 1.022254
Cr6   Cr    Cr6+3 0.656280 0.574630 0.003870 1.028289
H1    H     H_    0.766025 0.231493 0.290824 0.103087
H2    H     H_    0.239151 0.117677 0.303241 0.101821
H3    H     H_    0.251179 0.035396 0.376759 0.134119
H4    H     H_    0.809057 0.985388 0.133661 0.125746
H5    H     H_    0.887482 0.098930 0.209419 0.083622
H6    H     H_    0.905292 0.108621 0.296001 0.136152
H7    H     H_    0.538974 0.627337 0.129244 0.131382
H8    H     H_    0.448589 0.545511 0.203509 0.104604
H9    H     H_    0.445640 0.563592 0.290955 0.156844
H10   H     H_    0.780814 0.258417 0.204012 0.116708
H11   H     H_    0.844678 0.365378 0.875059 0.123633
H12   H     H_    0.913683 0.314008 0.799311 0.107363
H13   H     H_    0.898899 0.282267 0.710707 0.117701
H14   H     H_    0.527624 0.394016 0.869875 0.188377
H15   H     H_    0.436834 0.385296 0.704966 0.171505
H16   H     H_    0.596494 0.453684 0.219995 0.124751
H17   H     H_    0.191836 0.690152 0.794441 0.124462
H18   H     H_    0.144901 0.986129 0.713178 0.118703
H19   H     H_    0.695415 0.012178 0.726141 0.118576
H20   H     H_    0.697860 0.991042 0.813433 0.113499
H21   H     H_    0.606327 0.633988 0.781989 0.151774
H22   H     H_    0.059729 0.616344 0.136601 0.138876
H23   H     H_    0.138417 0.671825 0.374030 0.111798
H24   H     H_    0.045674 0.530338 0.210402 0.103398
H25   H     H_    0.067730 0.548769 0.298640 0.098861
H26   H     H_    0.153493 0.974720 0.135971 0.160367
O1    O     O_R   0.296680 0.802170 0.437540 -0.543861
O2    O     O_R   0.662610 0.183990 0.557860 -0.516281
O3    O     O_R   0.500730 0.201280 0.562180 -0.453349
O4    O     O_R   0.312500 0.978850 0.548170 -0.491237
O5    O     O_3   0.499990 0.999990 0.500010 -0.258890
O6    O     O_R   0.820790 0.857990 0.068830 -0.521382
O7    O     O_R   0.016700 0.827330 0.062850 -0.499830
O8    O     O_R   0.041970 0.673520 0.060040 -0.521389
O9    O     O_R   0.817980 0.483660 0.048840 -0.499929
O10   O     O_R   0.637200 0.461990 0.052510 -0.507616
O11   O     O_R   0.664790 0.681920 0.057970 -0.504416
O12   O     O_R   0.525380 0.838530 0.443500 -0.473737
O13   O     O_R   0.815840 0.852920 0.961840 -0.510423
O14   O     O_R   0.012100 0.822630 0.963670 -0.494564
O15   O     O_R   0.037010 0.668460 0.953040 -0.506972
O16   O     O_R   0.813390 0.478970 0.949660 -0.497832
O17   O     O_R   0.632250 0.456930 0.945520 -0.521674
O18   O     O_R   0.660200 0.677230 0.958780 -0.492303
O19   O     O_3   0.830870 0.661990 0.006950 -0.246011
O20   O     O_R   0.702130 0.995190 0.446810 -0.482136
O21   O     O_R   0.661770 0.181390 0.458760 -0.525149
O22   O     O_R   0.499820 0.198480 0.455280 -0.504422
O23   O     O_R   0.311660 0.976250 0.449080 -0.501636
O24   O     O_R   0.297580 0.804960 0.544440 -0.500840
O25   O     O_R   0.526220 0.841130 0.542590 -0.492770
O26   O     O_R   0.703030 0.997990 0.553710 -0.505814
O27   O     O_3   0.226692 0.122395 0.209208 -0.581023
C91   C     C_3   0.131268 0.144882 0.208404 -0.148197
H27   H     H_    0.052810 0.072690 0.187683 0.126581
H28   H     H_    0.108118 0.161240 0.245646 0.109809
H29   H     H_    0.157675 0.223976 0.189702 0.134141
O28   O     O_3   0.838737 0.050471 0.379128 -0.544913
C92   C     C_3   0.822504 0.148431 0.378748 -0.075844
H30   H     H_    0.731148 0.127561 0.367049 0.102580
H31   H     H_    0.887302 0.212368 0.355901 0.080465
H32   H     H_    0.842848 0.192966 0.415822 0.175552
O29   O     O_3   0.483987 0.672743 0.374843 -0.549280
C93   C     C_3   0.372633 0.665084 0.365562 -0.084228
H33   H     H_    0.378855 0.750212 0.360693 0.131911
H34   H     H_    0.317534 0.629368 0.396786 0.161690
H35   H     H_    0.324629 0.604126 0.333427 0.080640
H36   H     H_    0.790515 0.256603 0.633929 0.142618
O30   O     O_3   0.417049 0.396462 0.798258 -0.582948
C94   C     C_3   0.308911 0.291701 0.795978 -0.129971
H37   H     H_    0.318837 0.223569 0.813005 0.116537
H38   H     H_    0.272137 0.261017 0.758021 0.119292
H39   H     H_    0.243843 0.306761 0.816483 0.144026
O31   O     O_3   0.497607 0.355076 0.623824 -0.557078
C95   C     C_3   0.559469 0.458048 0.601065 -0.107037
H40   H     H_    0.614262 0.448991 0.572228 0.127006
H41   H     H_    0.615852 0.533023 0.627649 0.098154
H42   H     H_    0.494094 0.476729 0.583662 0.149787
O32   O     O_3   0.222340 0.684666 0.700384 -0.562910
C96   C     C_3   0.343887 0.721160 0.707320 -0.105491
H43   H     H_    0.367352 0.717053 0.745509 0.125532
H44   H     H_    0.399818 0.809962 0.696202 0.123494
H45   H     H_    0.364334 0.661993 0.684197 0.155783
H46   H     H_    0.121216 0.975140 0.800973 0.117214
H47   H     H_    0.603045 0.654866 0.694621 0.109154
O33   O     O_3   0.569218 0.437357 0.313512 -0.551598
C97   C     C_3   0.447318 0.356919 0.312829 -0.121500
H48   H     H_    0.431577 0.275491 0.327574 0.121822
H49   H     H_    0.405278 0.338297 0.275686 0.129068
H50   H     H_    0.403648 0.394451 0.336428 0.152109

loop_
_geom_bond_atom_site_label_1
_geom_bond_atom_site_label_2
_ccdc_geom_bond_type
C50   H11   S    
C66   C68   A    
C95   H40   S    
O30   C94   S    
Cr2   O26   S    
C11   C24   A    
C35   C36   A    
C33   C86   S    
C25   H26   S    
C42   H7    S    
C13   H24   S    
Cr6   O17   S    
Cr1   O25   S    
C39   H8    S    
C94   H38   S    
C53   C54   A    
C23   O23   A    
C46   C49   A    
C2    H16   S    
Cr1   O5    S    
C37   C41   A    
C33   C42   A    
C36   C37   A    
C8    C85   S    
C29   C32   A    
C52   C61   A    
Cr2   O2    S    
C85   O10   A    
C5    C6    S    
C65   C69   A    
C92   H31   S    
O31   C95   S    
C58   C60   A    
C15   C16   A    
C84   O7    A    
C16   C84   S    
C75   H20   S    
C18   C19   A    
C23   C26   S    
C45   C61   S    
Cr2   O21   S    
Cr3   O4    S    
C1    O20   A    
Cr6   O19   S    
O33   C97   S    
C34   O26   A    
C1    C43   S    
C96   H45   S    
C47   C48   A    
C45   O3    A    
C91   H29   S    
C89   H10   S    
Cr5   O8    S    
C77   H47   S    
Cr3   O23   S    
C56   O4    A    
C40   C42   A    
C35   C43   A    
C75   C80   A    
C18   C20   A    
Cr6   O10   S    
C29   C41   A    
C27   O28   S    
C96   H44   S    
C78   C89   A    
C14   H25   S    
Cr1   O1    S    
C21   C22   A    
C92   H32   S    
Cr5   O9    S    
Cr4   O19   S    
C11   C15   A    
C87   O15   A    
C4    C7    S    
C81   C83   T    
C44   C46   A    
C9    C26   A    
C50   C51   A    
C47   C50   A    
C35   O29   S    
C54   C59   A    
C53   C55   A    
C45   O2    A    
C5    C89   A    
C38   C39   A    
C95   H42   S    
Cr5   O15   S    
Cr4   O7    S    
C74   C75   A    
C86   O6    A    
C31   H6    S    
C76   C77   A    
C10   C14   A    
C97   H50   S    
C52   O31   S    
C39   C40   A    
C6    C8    T    
C12   C67   S    
C58   C59   A    
C7    C67   T    
C22   C25   A    
C12   O22   A    
C93   H34   S    
C97   H48   S    
C93   H35   S    
C88   O17   A    
C4    C78   A    
C29   C30   A    
C91   H28   S    
C27   C43   A    
C95   H41   S    
C34   O25   A    
C86   O11   A    
Cr4   O14   S    
O29   C93   S    
C10   C19   A    
C46   C54   A    
C78   H1    S    
C17   C18   A    
C77   C79   A    
C64   C69   A    
C17   H3    S    
C88   O16   A    
O28   C92   S    
Cr3   O22   S    
C40   C41   A    
Cr5   O19   S    
C21   O27   S    
C74   C79   A    
C55   C57   A    
C94   H37   S    
C9    H23   S    
C56   C62   S    
C2    C5    A    
C17   C26   A    
C3    C4    A    
Cr2   O5    S    
C73   C82   T    
C92   H30   S    
C72   C87   S    
Cr2   O20   S    
C52   C53   A    
C49   H13   S    
C9    C10   A    
C16   C25   A    
C83   C90   S    
C63   C68   A    
C96   H43   S    
Cr5   O16   S    
C64   H17   S    
C66   H18   S    
C55   H15   S    
Cr3   O5    S    
C87   O14   A    
C28   C31   A    
C76   C80   A    
C80   C81   S    
C51   C88   S    
Cr6   O18   S    
C79   C82   S    
C23   O1    A    
C12   O21   A    
C63   O32   S    
Cr6   O11   S    
C51   C60   A    
C65   H46   S    
Cr4   O6    S    
C44   C61   A    
C76   H21   S    
C15   H22   S    
Cr4   O13   S    
C93   H33   S    
C38   H9    S    
C97   H49   S    
C19   C24   A    
O32   C96   S    
O27   C91   S    
C32   C33   A    
C36   C38   A    
C90   O13   A    
C11   C13   A    
C30   C31   A    
C57   C58   A    
C48   H12   S    
Cr1   O12   S    
C28   C37   A    
C68   C71   S    
C48   C49   A    
C74   H19   S    
C30   H5    S    
C84   O8    A    
C62   C71   T    
C2    C3    A    
C22   C24   A    
C56   O24   A    
C69   C70   S    
C3    O33   S    
Cr3   O3    S    
C60   H14   S    
C34   C73   S    
C47   C59   A    
C63   C64   A    
C32   H4    S    
C20   H2    S    
C20   C21   A    
C94   H39   S    
C65   C66   A    
C27   C28   A    
C91   H27   S    
C57   O30   S    
C70   C72   T    
C90   O18   A    
C44   H36   S    
C13   C14   A    
Cr1   O24   S    
C85   O9    A    
C1    O12   A    
