data_mof_unit_14031.cif
_audit_creation_date              2012-12-10T20:32:43-0500
_audit_creation_method            fapswitch 2.2
_symmetry_space_group_name_H-M    P1
_symmetry_Int_Tables_number       1
_space_group_crystal_system       triclinic
_cell_length_a                    11.528988
_cell_length_b                    10.752505
_cell_length_c                    9.966537
_cell_angle_alpha                 89.31908
_cell_angle_beta                  89.989024
_cell_angle_gamma                 89.879017
_cell_volume                      1235.41673402

loop_
_atom_site_label
_atom_site_type_symbol
_atom_type_description
_atom_site_fract_x
_atom_site_fract_y
_atom_site_fract_z
_atom_type_partial_charge
C1    C     C_R   0.503231 0.260380 0.500399 0.979036
C2    C     C_R   0.498213 0.128078 0.497618 -0.239212
C3    C     C_R   0.533343 0.065372 0.381059 0.403068
C4    C     C_R   0.510439 0.938174 0.371916 0.427802
C5    C     C_R   0.482688 0.871745 0.490764 -0.247059
C6    C     C_R   0.440178 0.936704 0.599356 -0.138959
C7    C     C_3   0.462895 0.926297 0.745921 0.873242
C8    C     C_3   0.451010 0.068319 0.747738 0.912485
C9    C     C_R   0.408667 0.546715 0.070094 -0.052241
C10   C     C_R   0.595609 0.463906 0.071841 0.491058
C11   C     C_R   0.594865 0.461658 0.928898 0.565617
C12   C     C_R   0.282217 0.500130 0.500069 0.877918
C13   C     C_R   0.409123 0.547783 0.928596 -0.067727
C14   C     C_3   0.285132 0.509623 0.922628 0.412371
C15   C     C_3   0.285203 0.505500 0.075750 0.274960
C16   C     C_R   0.495908 0.739642 0.498322 0.937676
C17   C     C_R   0.717801 0.500047 0.499994 0.905103
C18   C     C_1   0.161683 0.500322 0.500440 -0.112110
C19   C     C_1   0.059412 0.500402 0.500698 0.007218
C20   C     C_1   0.940656 0.500342 0.500385 0.029883
C21   C     C_1   0.838378 0.500206 0.500071 -0.080485
C22   C     C_R   0.440269 0.063672 0.598889 -0.152566
H1    H     H_    0.276405 0.411053 0.122301 0.099100
H2    H     H_    0.228553 0.582445 0.876870 0.138821
N1    N     N_R   0.499240 0.499140 0.142800 -0.195957
N2    N     N_R   0.499240 0.499180 0.857150 -0.158966
O1    O     O_R   0.500010 0.316790 0.614690 -0.526807
O2    O     O_R   0.500000 0.316760 0.385350 -0.617810
O3    O     O_R   0.334450 0.500030 0.614670 -0.567165
O4    O     O_R   0.334440 0.500000 0.385330 -0.619909
O5    O     O_R   0.500000 0.683240 0.614650 -0.581155
O6    O     O_R   0.499990 0.683210 0.385310 -0.583664
O7    O     O_R   0.665560 0.500000 0.614670 -0.555628
O8    O     O_R   0.665550 0.499970 0.385330 -0.544761
Zn1   Zn    Zn3+2 0.500010 0.500020 0.653130 1.105195
Zn2   Zn    Zn3+2 0.499990 0.499980 0.346870 1.028561
O9    O     O_3   0.611114 0.121908 0.293634 -0.559115
C23   C     C_3   0.557398 0.146417 0.169682 -0.103148
H3    H     H_    0.610365 0.214694 0.113452 0.230811
H4    H     H_    0.468327 0.185117 0.180899 0.084530
H5    H     H_    0.556941 0.062490 0.108351 0.171035
F1    F     F_    0.271038 0.393202 0.867578 -0.654081
O10   O     O_3   0.214830 0.598859 0.132276 -0.613231
C24   C     C_3   0.100012 0.554883 0.142402 -0.224334
H6    H     H_    0.094836 0.470302 0.207485 0.166202
H7    H     H_    0.063030 0.535614 0.041705 0.184401
H8    H     H_    0.045861 0.627914 0.189204 0.200375
O11   O     O_3   0.519160 0.880200 0.249388 -0.601727
C25   C     C_3   0.405044 0.867211 0.198616 -0.264018
H9    H     H_    0.352249 0.801926 0.260502 0.215360
H10   H     H_    0.409090 0.828428 0.096350 0.214674
H11   H     H_    0.358874 0.958089 0.193009 0.116304
F2    F     F_    0.376014 0.860382 0.812220 -0.704529
O12   O     O_3   0.578154 0.883539 0.766676 -0.628045
C26   C     C_3   0.594064 0.839741 0.898623 -0.097783
H12   H     H_    0.546277 0.751810 0.915730 0.163628
H13   H     H_    0.567674 0.910189 0.971887 0.153178
H14   H     H_    0.687572 0.820084 0.914361 0.186104
O13   O     O_3   0.344492 0.112443 0.799565 -0.582641
C27   C     C_3   0.353350 0.131596 0.937940 -0.105279
H15   H     H_    0.408947 0.213552 0.957897 0.175615
H16   H     H_    0.385963 0.047032 0.989619 0.099005
H17   H     H_    0.265705 0.151627 0.978268 0.200276
F3    F     F_    0.549463 0.131070 0.790507 -0.662102
F4    F     F_    0.692592 0.426845 0.137831 -0.605887
F5    F     F_    0.689562 0.418395 0.863850 -0.582514

loop_
_geom_bond_atom_site_label_1
_geom_bond_atom_site_label_2
_ccdc_geom_bond_type
C2    C22   A    
C1    O2    A    
C8    C22   S    
O10   C24   S    
C11   F5    S    
O9    C23   S    
C12   O3    A    
C16   O6    A    
O3    Zn1   S    
C19   C20   S    
C7    O12   S    
C24   H8    S    
O4    Zn2   S    
C14   F1    S    
C25   H11   S    
C12   O4    A    
C26   H12   S    
C15   H1    S    
C2    C3    A    
C9    C15   S    
C15   O10   S    
C7    C8    S    
C13   C14   S    
C24   H6    S    
C16   O5    A    
C23   H4    S    
C3    O9    S    
C17   O8    A    
C6    C7    S    
C17   O7    A    
C8    F3    S    
C27   H17   S    
O6    Zn2   S    
C10   N1    A    
O11   C25   S    
O7    Zn1   S    
C24   H7    S    
C1    C2    S    
O8    Zn2   S    
C26   H13   S    
C8    O13   S    
C5    C6    A    
C25   H9    S    
O5    Zn1   S    
C13   N2    A    
C26   H14   S    
C10   C11   A    
C7    F2    S    
N1    Zn2   S    
C9    N1    A    
C3    C4    A    
C6    C22   A    
N2    Zn1   S    
O13   C27   S    
C23   H3    S    
C20   C21   T    
O2    Zn2   S    
C23   H5    S    
C27   H16   S    
C18   C19   T    
C4    O11   S    
C10   F4    S    
C14   H2    S    
C1    O1    A    
C9    C13   A    
C14   C15   S    
C4    C5    A    
C5    C16   S    
C11   N2    A    
O1    Zn1   S    
O12   C26   S    
C17   C21   S    
C27   H15   S    
C25   H10   S    
C12   C18   S    
