data_mof_unit_29915.cif
_audit_creation_date              2012-12-10T18:07:37-0500
_audit_creation_method            fapswitch 2.2
_symmetry_space_group_name_H-M    P1
_symmetry_Int_Tables_number       1
_space_group_crystal_system       triclinic
_cell_length_a                    11.539726
_cell_length_b                    12.70795
_cell_length_c                    12.989803
_cell_angle_alpha                 81.73361
_cell_angle_beta                  90.365695
_cell_angle_gamma                 104.345533
_cell_volume                      1825.48553892

loop_
_atom_site_label
_atom_site_type_symbol
_atom_type_description
_atom_site_fract_x
_atom_site_fract_y
_atom_site_fract_z
_atom_type_partial_charge
C1    C     C_R   0.476508 0.438298 0.692325 0.969285
C2    C     C_R   0.418496 0.655956 0.904212 0.301261
C3    C     C_R   0.385760 0.569687 0.842226 0.316737
C4    C     C_R   0.718189 0.502309 0.500195 0.884623
C5    C     C_R   0.533566 0.507582 0.133142 0.456403
C6    C     C_R   0.597908 0.698738 0.143043 0.480339
C7    C     C_R   0.440180 0.397870 0.803646 -0.095845
C8    C     C_R   0.289934 0.065094 0.409410 0.347323
C9    C     C_R   0.655068 0.801938 0.615970 0.470622
C10   C     C_R   0.701436 0.910663 0.635711 0.208345
C11   C     C_R   0.647134 0.994706 0.593431 0.344985
C12   C     C_R   0.558972 0.591701 0.195331 -0.306637
C13   C     C_R   0.549882 0.969183 0.524124 -0.125873
C14   C     C_R   0.509751 0.857330 0.505694 0.020031
C15   C     C_R   0.482391 0.043745 0.476276 0.021001
C16   C     C_R   0.528595 0.560693 0.308432 0.921851
C17   C     C_R   0.365510 0.997375 0.441838 -0.054133
C18   C     C_R   0.329236 0.884658 0.437834 -0.104962
C19   C     C_R   0.417992 0.830898 0.435553 0.416647
C20   C     C_R   0.522061 0.160251 0.458506 -0.034171
C21   C     C_R   0.319958 0.168687 0.439756 0.441001
C22   C     C_R   0.282309 0.499110 0.496070 0.954758
C23   C     C_R   0.427385 0.285992 0.844690 0.423682
C24   C     C_1   0.840064 0.506567 0.498836 -0.060882
C25   C     C_1   0.941872 0.504681 0.496407 0.085542
C26   C     C_1   0.059268 0.499520 0.493754 0.096084
C27   C     C_1   0.160837 0.496697 0.493273 0.000131
C28   C     C_R   0.551657 0.721629 0.044587 -0.138687
C29   C     C_R   0.401549 0.251390 0.951004 -0.290971
C30   C     C_R   0.401260 0.326831 0.018665 0.463821
C31   C     C_R   0.432899 0.440507 0.979383 -0.062595
C32   C     C_R   0.423127 0.471348 0.872399 -0.218183
C33   C     C_R   0.477118 0.525720 0.038981 0.037692
C34   C     C_R   0.480077 0.635877 0.996477 -0.166756
H1    H     H_    0.244902 0.847794 0.405762 0.210642
H2    H     H_    0.468703 0.952210 0.162124 0.412946
H3    H     H_    0.551041 0.892777 0.819000 0.361765
H4    H     H_    0.633211 0.424546 0.212937 0.347738
H5    H     H_    0.419912 0.136298 0.820935 0.379264
H6    H     H_    0.464814 0.222376 0.228823 0.374816
H7    H     H_    0.136645 0.500195 0.898319 0.365767
H8    H     H_    0.187024 0.243579 0.668972 0.397785
H9    H     H_    0.614738 0.201395 0.463012 0.227658
H10   H     H_    0.581444 0.803604 0.001886 0.199140
H11   H     H_    0.378318 0.164457 0.981037 0.214621
H12   H     H_    0.861174 0.793167 0.295437 0.401317
H13   H     H_    0.100865 0.936991 0.211740 0.400354
H14   H     H_    0.793895 0.748945 0.660121 0.355094
H15   H     H_    0.865806 0.174587 0.559890 0.406624
H16   H     H_    0.792641 0.873406 0.755523 0.361429
N1    N     N_R   0.440320 0.222190 0.444690 -0.184680
N2    N     N_R   0.559060 0.776980 0.554780 -0.133356
O1    O     O_R   0.471500 0.366730 0.627160 -0.489559
O2    O     O_2   0.754169 0.895466 0.136176 -0.215667
O3    O     O_3   0.779248 0.746686 0.290243 -0.532670
O4    O     O_2   0.067537 0.930343 0.419077 -0.289080
O5    O     O_2   0.094881 0.110837 0.313014 -0.156951
O6    O     O_3   0.180397 0.964784 0.240648 -0.454140
O7    O     O_3   0.706392 0.718697 0.656738 -0.712468
O8    O     O_2   0.592096 0.171839 0.656696 -0.227263
O9    O     O_2   0.749569 0.107620 0.748489 -0.183881
O10   O     O_3   0.798808 0.210339 0.561401 -0.545694
O11   O     O_3   0.798186 0.935747 0.698820 -0.659938
O12   O     O_R   0.509620 0.544830 0.662520 -0.578457
O13   O     O_2   0.593542 0.847861 0.301064 -0.242755
O14   O     O_2   0.392036 0.740722 0.260459 -0.321656
O15   O     O_3   0.437288 0.952463 0.232854 -0.474285
O16   O     O_2   0.256304 0.773309 0.831680 -0.109275
O17   O     O_2   0.385283 0.842567 0.966680 -0.278855
O18   O     O_3   0.477553 0.865322 0.781103 -0.554446
O19   O     O_3   0.571874 0.412708 0.159073 -0.751083
O20   O     O_3   0.431344 0.210274 0.779545 -0.629351
O21   O     O_2   0.313992 0.356755 0.204847 -0.275686
O22   O     O_2   0.198692 0.211819 0.114493 -0.182352
O23   O     O_R   0.646490 0.410960 0.482310 -0.610168
O24   O     O_3   0.390106 0.179145 0.202615 -0.505656
O25   O     O_2   0.277330 0.656649 0.679368 -0.221498
O26   O     O_2   0.227299 0.455233 0.718725 -0.368197
O27   O     O_3   0.140024 0.560729 0.840217 -0.444527
O28   O     O_2   0.129923 0.252992 0.461784 -0.265197
O29   O     O_2   0.124250 0.076022 0.564318 -0.229342
O30   O     O_3   0.258641 0.243794 0.627236 -0.484698
O31   O     O_R   0.684610 0.589050 0.517670 -0.554458
O32   O     O_R   0.490380 0.455170 0.337480 -0.598916
O33   O     O_R   0.528500 0.633270 0.372840 -0.529606
O34   O     O_R   0.315390 0.410950 0.482330 -0.542958
O35   O     O_R   0.353510 0.589040 0.517690 -0.601079
O36   O     O_2   0.830331 0.741890 0.097280 -0.269388
S1    S     S_3+6 0.744113 0.774573 0.165061 0.082898
S2    S     S_3+6 0.152383 0.018018 0.346339 0.136537
S3    S     S_3+6 0.695151 0.122401 0.643570 0.091278
S4    S     S_3+6 0.462101 0.839422 0.304758 0.053505
S5    S     S_3+6 0.380054 0.785280 0.872544 0.105073
S6    S     S_3+6 0.323132 0.271390 0.138587 0.100825
S7    S     S_3+6 0.257588 0.560214 0.764600 0.082039
S8    S     S_3+6 0.204909 0.186279 0.522897 0.122125
Zn1   Zn    Zn3+2 0.474550 0.381080 0.476390 1.110933
Zn2   Zn    Zn3+2 0.525450 0.618920 0.523610 1.104595

loop_
_geom_bond_atom_site_label_1
_geom_bond_atom_site_label_2
_ccdc_geom_bond_type
N1    Zn1   S    
O13   S4    D    
O22   S6    D    
C10   O11   S    
H8    O30   S    
C16   O32   A    
H2    O15   S    
C26   C27   T    
O32   Zn1   S    
C23   C29   A    
C20   N1    A    
O17   S5    D    
C6    C12   A    
C30   C31   A    
C4    C24   S    
O23   Zn1   S    
C18   C19   A    
O34   Zn1   S    
C1    O1    A    
C4    O23   A    
C19   S4    S    
O24   S6    S    
C6    C28   A    
C12   C16   S    
O31   Zn2   S    
C5    C33   A    
H12   O3    S    
H5    O20   S    
C31   C33   A    
H15   O10   S    
O28   S8    D    
C9    C10   A    
O35   Zn2   S    
C2    C34   A    
O12   Zn2   S    
C28   C34   A    
H3    O18   S    
H16   O11   S    
C9    N2    A    
O21   S6    D    
C14   C19   A    
C33   C34   A    
C15   C20   A    
C14   N2    A    
O30   S8    S    
O5    S2    D    
O18   S5    S    
C24   C25   T    
O2    S1    D    
O29   S8    D    
O14   S4    D    
O1    Zn1   S    
C25   C26   S    
O25   S7    D    
H6    O24   S    
C29   H11   S    
C9    O7    S    
O27   S7    S    
C29   C30   A    
C31   C32   A    
O26   S7    D    
O10   S3    S    
C17   C18   A    
O33   Zn2   S    
C22   O35   A    
O6    S2    S    
C5    C12   A    
C22   C27   S    
C13   C15   A    
C16   O33   A    
C8    S2    S    
C1    O12   A    
C21   N1    A    
C20   H9    S    
H14   O7    S    
C18   H1    S    
O8    S3    D    
C15   C17   A    
H4    O19   S    
C7    C32   A    
O4    S2    D    
C1    C7    S    
C23   O20   S    
C2    S5    S    
O16   S5    D    
C8    C21   A    
H7    O27   S    
C21   S8    S    
C6    S1    S    
C8    C17   A    
C2    C3    A    
C5    O19   S    
H13   O6    S    
C11   C13   A    
C4    O31   A    
C7    C23   A    
N2    Zn2   S    
O15   S4    S    
C28   H10   S    
C22   O34   A    
C3    C32   A    
O3    S1    S    
C10   C11   A    
C11   S3    S    
O36   S1    D    
C30   S6    S    
C3    S7    S    
C13   C14   A    
O9    S3    D    
