data_mof_unit_46789.cif
_audit_creation_date              2012-12-11T14:44:06-0500
_audit_creation_method            fapswitch 2.2
_symmetry_space_group_name_H-M    P1
_symmetry_Int_Tables_number       1
_space_group_crystal_system       triclinic
_cell_length_a                    18.9102
_cell_length_b                    11.045174
_cell_length_c                    18.849658
_cell_angle_alpha                 90.036864
_cell_angle_beta                  90.101416
_cell_angle_gamma                 89.831818
_cell_volume                      3937.03720795

loop_
_atom_site_label
_atom_site_type_symbol
_atom_type_description
_atom_site_fract_x
_atom_site_fract_y
_atom_site_fract_z
_atom_type_partial_charge
C1    C     C_R   0.730052 0.379323 0.146484 0.539052
C2    C     C_R   0.269913 0.379342 0.853492 0.538899
C3    C     C_R   0.230052 0.879323 0.146484 0.539053
C4    C     C_R   0.769913 0.879343 0.853492 0.538901
C5    C     C_R   0.518240 0.380561 0.928452 -0.065328
C6    C     C_R   0.481001 0.380468 0.071621 -0.065620
C7    C     C_R   0.018240 0.880561 0.928452 -0.065328
C8    C     C_R   0.981001 0.880468 0.071621 -0.065620
C9    C     C_R   0.012233 0.989164 0.965542 -0.095778
C10   C     C_R   0.986424 0.989100 0.034615 -0.095632
C11   C     C_R   0.512233 0.489164 0.965542 -0.095777
C12   C     C_R   0.486424 0.489100 0.034615 -0.095632
C13   C     C_R   0.682309 0.917287 0.028864 0.065773
C14   C     C_R   0.318110 0.917938 0.971386 0.065985
C15   C     C_R   0.182309 0.417287 0.028864 0.065773
C16   C     C_R   0.818110 0.417938 0.971386 0.065984
C17   C     C_R   0.693272 0.887298 0.958022 -0.139583
C18   C     C_R   0.307063 0.887799 0.042182 -0.139370
C19   C     C_R   0.193272 0.387298 0.958022 -0.139584
C20   C     C_R   0.807063 0.387799 0.042182 -0.139370
C21   C     C_R   0.749537 0.935750 0.920868 -0.003365
C22   C     C_R   0.250219 0.935512 0.079095 -0.003618
C23   C     C_R   0.249537 0.435750 0.920868 -0.003367
C24   C     C_R   0.750219 0.435512 0.079095 -0.003618
C25   C     C_R   0.793193 0.023894 0.954013 -0.018385
C26   C     C_R   0.205971 0.022957 0.045774 -0.018902
C27   C     C_R   0.293193 0.523894 0.954013 -0.018385
C28   C     C_R   0.705971 0.522957 0.045774 -0.018903
C29   C     C_R   0.782867 0.052943 0.024630 -0.167062
C30   C     C_R   0.216316 0.051967 0.975217 -0.167271
C31   C     C_R   0.282867 0.552942 0.024630 -0.167061
C32   C     C_R   0.716316 0.551967 0.975217 -0.167271
C33   C     C_R   0.729868 0.996143 0.063703 0.035779
C34   C     C_R   0.269989 0.996002 0.936355 0.034897
C35   C     C_R   0.229868 0.496143 0.063703 0.035781
C36   C     C_R   0.769988 0.496002 0.936355 0.034897
C37   C     C_R   0.484605 0.060011 0.458599 -0.135868
C38   C     C_R   0.478464 0.056120 0.530952 -0.133787
C39   C     C_R   0.984710 0.559933 0.458624 -0.135880
C40   C     C_R   0.978596 0.556064 0.530979 -0.133852
C41   C     C_R   0.488152 0.161079 0.571878 0.039729
C42   C     C_R   0.506224 0.166583 0.425552 0.037508
C43   C     C_R   0.988153 0.661092 0.571875 0.039698
C44   C     C_R   0.006194 0.666560 0.425543 0.037542
C45   C     C_R   0.530281 0.154683 0.147026 0.528930
C46   C     C_R   0.469773 0.154587 0.852933 0.531057
C47   C     C_R   0.030281 0.654683 0.147026 0.528925
C48   C     C_R   0.969773 0.654587 0.852933 0.531061
C49   C     C_R   0.506828 0.269920 0.539045 -0.142878
C50   C     C_R   0.517320 0.272082 0.465940 -0.144802
C51   C     C_R   0.006673 0.769986 0.539006 -0.142758
C52   C     C_R   0.017148 0.772136 0.465898 -0.144615
C53   C     C_R   0.810885 0.976180 0.466400 0.101487
C54   C     C_R   0.212460 0.048997 0.520787 0.095280
C55   C     C_R   0.310965 0.475790 0.466309 0.101420
C56   C     C_R   0.712463 0.549036 0.520785 0.095287
C57   C     C_R   0.810432 0.985520 0.539823 0.113989
C58   C     C_R   0.210701 0.029590 0.447543 0.100464
C59   C     C_R   0.310566 0.485140 0.539729 0.114013
C60   C     C_R   0.710689 0.529605 0.447542 0.100459
C61   C     C_R   0.754147 0.932464 0.578566 0.052958
C62   C     C_R   0.253466 0.938023 0.417625 0.047781
C63   C     C_R   0.254223 0.432323 0.578512 0.052972
C64   C     C_R   0.753470 0.438063 0.417619 0.047780
C65   C     C_R   0.691218 0.904943 0.543968 -0.177789
C66   C     C_R   0.306840 0.883898 0.458271 -0.183409
C67   C     C_R   0.191253 0.404972 0.543947 -0.177905
C68   C     C_R   0.806883 0.384021 0.458250 -0.183369
C69   C     C_R   0.687559 0.913535 0.470403 -0.195007
C70   C     C_R   0.314059 0.913598 0.529526 -0.179465
C71   C     C_R   0.187571 0.413556 0.470385 -0.195075
C72   C     C_R   0.814114 0.413750 0.529501 -0.179418
C73   C     C_R   0.748153 0.943732 0.430864 0.040067
C74   C     C_R   0.265724 0.992802 0.562007 0.042648
C75   C     C_R   0.248176 0.443576 0.430816 0.040080
C76   C     C_R   0.765747 0.492876 0.561998 0.042624
C77   C     C_R   0.726935 0.020357 0.140294 0.570298
C78   C     C_R   0.273010 0.020399 0.859796 0.572472
C79   C     C_R   0.226935 0.520357 0.140294 0.570298
C80   C     C_R   0.773010 0.520399 0.859796 0.572472
C81   C     C_R   0.731098 0.382237 0.350863 0.570417
C82   C     C_R   0.269654 0.382515 0.648814 0.558739
C83   C     C_R   0.231098 0.882233 0.350862 0.570455
C84   C     C_R   0.769637 0.882547 0.648831 0.558780
C85   C     C_R   0.533079 0.157357 0.353793 0.545399
C86   C     C_R   0.465992 0.156313 0.645515 0.536233
C87   C     C_R   0.033068 0.657354 0.353788 0.545383
C88   C     C_R   0.965989 0.656314 0.645512 0.536241
C89   C     C_R   0.740781 0.975037 0.356047 0.578747
C90   C     C_R   0.271609 0.019592 0.638071 0.582659
C91   C     C_R   0.240790 0.474989 0.356025 0.578829
C92   C     C_R   0.771617 0.519619 0.638073 0.582692
C93   C     C_R   0.502053 0.159325 0.924939 -0.037270
C94   C     C_R   0.498191 0.159340 0.074930 -0.037166
C95   C     C_R   0.002053 0.659325 0.924939 -0.037272
C96   C     C_R   0.998191 0.659340 0.074930 -0.037166
C97   C     C_R   0.504553 0.269755 0.962693 0.003496
C98   C     C_R   0.495224 0.269741 0.037277 0.003482
C99   C     C_R   0.004553 0.769755 0.962693 0.003496
C100  C     C_R   0.995224 0.769741 0.037277 0.003483
C101  C     C_R   0.494516 0.049634 0.036404 -0.019935
C102  C     C_R   0.506283 0.049650 0.963358 -0.020182
C103  C     C_R   0.994516 0.549634 0.036405 -0.019935
C104  C     C_R   0.006282 0.549650 0.963359 -0.020182
Cr1   Cr    Cr6+3 0.772000 0.169640 0.250110 1.035193
Cr2   Cr    Cr6+3 0.228000 0.169640 0.749890 1.039095
Cr3   Cr    Cr6+3 0.272000 0.669640 0.250110 1.035165
Cr4   Cr    Cr6+3 0.728000 0.669640 0.749890 1.039089
Cr5   Cr    Cr6+3 0.614960 0.323350 0.249260 1.051055
Cr6   Cr    Cr6+3 0.385040 0.323350 0.750740 1.047498
Cr7   Cr    Cr6+3 0.114960 0.823350 0.249260 1.051060
Cr8   Cr    Cr6+3 0.885040 0.823350 0.750740 1.047458
Cr9   Cr    Cr6+3 0.616670 0.010620 0.250840 1.054695
Cr10  Cr    Cr6+3 0.383330 0.010620 0.749160 1.054650
Cr11  Cr    Cr6+3 0.116670 0.510620 0.250840 1.054687
Cr12  Cr    Cr6+3 0.883330 0.510620 0.749160 1.054668
H1    H     H_    0.645656 0.875043 0.573846 0.138912
H2    H     H_    0.340589 0.814184 0.436070 0.129707
H3    H     H_    0.145670 0.375217 0.573846 0.138840
H4    H     H_    0.840657 0.314354 0.436039 0.129618
H5    H     H_    0.637401 0.896057 0.444581 0.138269
H6    H     H_    0.354819 0.868615 0.560115 0.132390
H7    H     H_    0.137382 0.396227 0.444588 0.138326
H8    H     H_    0.854912 0.368843 0.560077 0.132331
H9    H     H_    0.534932 0.383538 0.873588 0.141263
H10   H     H_    0.464344 0.383350 0.126504 0.141105
H11   H     H_    0.034932 0.883538 0.873588 0.141264
H12   H     H_    0.964344 0.883350 0.126504 0.141098
H13   H     H_    0.024411 0.073924 0.939623 0.155912
H14   H     H_    0.973880 0.073802 0.060631 0.155745
H15   H     H_    0.524411 0.573924 0.939623 0.155913
H16   H     H_    0.473880 0.573802 0.060631 0.155746
H17   H     H_    0.660966 0.818835 0.933368 0.145259
H18   H     H_    0.339924 0.820037 0.067044 0.145214
H19   H     H_    0.160966 0.318835 0.933368 0.145259
H20   H     H_    0.839924 0.320037 0.067044 0.145214
H21   H     H_    0.818912 0.115299 0.050198 0.124809
H22   H     H_    0.179835 0.113768 0.949547 0.124827
H23   H     H_    0.318912 0.615299 0.050198 0.124810
H24   H     H_    0.679835 0.613768 0.949547 0.124827
H25   H     H_    0.476284 0.977031 0.429049 0.131256
H26   H     H_    0.464067 0.970318 0.554360 0.130975
H27   H     H_    0.976487 0.476894 0.429103 0.131254
H28   H     H_    0.964315 0.470219 0.554409 0.130948
H29   H     H_    0.513907 0.351927 0.569719 0.118326
H30   H     H_    0.536146 0.354683 0.441559 0.130930
H31   H     H_    0.013633 0.852053 0.569650 0.118338
H32   H     H_    0.035862 0.854789 0.441491 0.130845
O1    O     O_R   0.787540 0.042690 0.170470 -0.523980
O2    O     O_R   0.212460 0.042690 0.829530 -0.520728
O3    O     O_R   0.287540 0.542690 0.170470 -0.523977
O4    O     O_R   0.712460 0.542690 0.829530 -0.520728
O5    O     O_R   0.556540 0.252920 0.323970 -0.505067
O6    O     O_R   0.443460 0.252920 0.676030 -0.502816
O7    O     O_R   0.056540 0.752920 0.323970 -0.505051
O8    O     O_R   0.943460 0.752920 0.676030 -0.502862
O9    O     O_R   0.545870 0.051100 0.330840 -0.526182
O10   O     O_R   0.454130 0.051100 0.669160 -0.533438
O11   O     O_R   0.045870 0.551100 0.330840 -0.526211
O12   O     O_R   0.954130 0.551100 0.669160 -0.533445
O13   O     O_R   0.681340 0.959300 0.325510 -0.512406
O14   O     O_R   0.318660 0.959300 0.674490 -0.506720
O15   O     O_R   0.181340 0.459300 0.325510 -0.512428
O16   O     O_R   0.818660 0.459300 0.674490 -0.506679
O17   O     O_3   0.667880 0.167870 0.250070 -0.286946
O18   O     O_3   0.332120 0.167870 0.749930 -0.306143
O19   O     O_3   0.167880 0.667870 0.250070 -0.286929
O20   O     O_3   0.832120 0.667870 0.749930 -0.306147
O21   O     O_R   0.765660 0.292160 0.175050 -0.524439
O22   O     O_R   0.234340 0.292160 0.824950 -0.524281
O23   O     O_R   0.265660 0.792160 0.175050 -0.524440
O24   O     O_R   0.734340 0.792160 0.824950 -0.524287
O25   O     O_R   0.670190 0.408980 0.168550 -0.488450
O26   O     O_R   0.329810 0.408980 0.831450 -0.487917
O27   O     O_R   0.170190 0.908980 0.168550 -0.488453
O28   O     O_R   0.829810 0.908980 0.831450 -0.487908
O29   O     O_R   0.556580 0.251450 0.175160 -0.506006
O30   O     O_R   0.443420 0.251450 0.824840 -0.504459
O31   O     O_R   0.056580 0.751450 0.175160 -0.506014
O32   O     O_R   0.943420 0.751450 0.824840 -0.504455
O33   O     O_R   0.545920 0.049510 0.170320 -0.481066
O34   O     O_R   0.454080 0.049510 0.829680 -0.480041
O35   O     O_R   0.045920 0.549510 0.170320 -0.481063
O36   O     O_R   0.954080 0.549510 0.829680 -0.480041
O37   O     O_R   0.681390 0.957840 0.176710 -0.476333
O38   O     O_R   0.318610 0.957840 0.823290 -0.472414
O39   O     O_R   0.181390 0.457840 0.176710 -0.476340
O40   O     O_R   0.818610 0.457840 0.823290 -0.472409
O41   O     O_R   0.787500 0.044280 0.330990 -0.470373
O42   O     O_R   0.212500 0.044280 0.669010 -0.464720
O43   O     O_R   0.287500 0.544280 0.330990 -0.470431
O44   O     O_R   0.712500 0.544280 0.669010 -0.464764
O45   O     O_R   0.765610 0.293630 0.323860 -0.515026
O46   O     O_R   0.234390 0.293630 0.676140 -0.509020
O47   O     O_R   0.265610 0.793630 0.323860 -0.515061
O48   O     O_R   0.734390 0.793630 0.676140 -0.509017
O49   O     O_R   0.670140 0.410570 0.329080 -0.474990
O50   O     O_R   0.329860 0.410570 0.670920 -0.471513
O51   O     O_R   0.170140 0.910570 0.329080 -0.474972
O52   O     O_R   0.829860 0.910570 0.670920 -0.471595
C105  C     C_1   0.478762 0.935892 0.071732 0.254953
N1    N     N_1   0.467389 0.845530 0.100578 -0.313262
C106  C     C_1   0.522328 0.935925 0.927877 0.254632
N2    N     N_1   0.533881 0.845560 0.898914 -0.312810
C107  C     C_1   0.978761 0.435892 0.071732 0.254953
N3    N     N_1   0.967388 0.345530 0.100578 -0.313260
C108  C     C_1   0.022328 0.435925 0.927877 0.254631
N4    N     N_1   0.033881 0.345560 0.898914 -0.312811
N5    N     N_3   0.874718 0.001709 0.427885 -0.599149
H33   H     H_    0.914377 0.943051 0.445364 0.220854
H34   H     H_    0.890261 0.090875 0.437725 0.220890
N6    N     N_3   0.155516 0.113696 0.554142 -0.591883
H35   H     H_    0.110953 0.057903 0.552673 0.220336
H36   H     H_    0.142982 0.190304 0.524806 0.213938
N7    N     N_3   0.374797 0.501111 0.427744 -0.599236
H37   H     H_    0.414396 0.442304 0.445179 0.221004
H38   H     H_    0.390455 0.590220 0.437581 0.220953
N8    N     N_3   0.655514 0.613711 0.554149 -0.591878
H39   H     H_    0.610983 0.557833 0.552760 0.220367
H40   H     H_    0.642900 0.690239 0.524771 0.213861
N9    N     N_3   0.867157 0.048302 0.575019 -0.586279
H41   H     H_    0.868660 0.137486 0.556600 0.213470
H42   H     H_    0.915198 0.005874 0.563370 0.224195
N10   N     N_3   0.163334 0.098869 0.403587 -0.597491
H43   H     H_    0.177037 0.190112 0.406927 0.227618
H44   H     H_    0.111349 0.087049 0.421014 0.223063
N11   N     N_3   0.367387 0.547748 0.574876 -0.586235
H45   H     H_    0.368964 0.636931 0.556462 0.213421
H46   H     H_    0.415376 0.505176 0.563182 0.224187
N12   N     N_3   0.663296 0.598840 0.403590 -0.597481
H47   H     H_    0.676983 0.690093 0.406914 0.227614
H48   H     H_    0.611317 0.586989 0.421031 0.223029
N13   N     N_3   0.626201 0.860451 0.066490 -0.566619
H49   H     H_    0.650721 0.802868 0.102481 0.273674
H50   H     H_    0.596552 0.805466 0.032610 0.236170
N14   N     N_3   0.375132 0.862473 0.934084 -0.568415
H51   H     H_    0.351588 0.805278 0.897394 0.275977
H52   H     H_    0.404653 0.806903 0.967873 0.235564
N15   N     N_3   0.126201 0.360451 0.066490 -0.566618
H53   H     H_    0.150721 0.302868 0.102481 0.273674
H54   H     H_    0.096552 0.305466 0.032610 0.236170
N16   N     N_3   0.875132 0.362473 0.934084 -0.568415
H55   H     H_    0.851588 0.305278 0.897394 0.275979
H56   H     H_    0.904652 0.306903 0.967873 0.235563
C109  C     C_1   0.853709 0.075456 0.918916 0.211475
N17   N     N_1   0.901996 0.111576 0.887933 -0.310354
C110  C     C_1   0.145136 0.074449 0.080728 0.210316
N18   N     N_1   0.096714 0.110967 0.111573 -0.309105
C111  C     C_1   0.353709 0.575456 0.918916 0.211470
N19   N     N_1   0.401996 0.611576 0.887933 -0.310363
C112  C     C_1   0.645136 0.574449 0.080728 0.210315
N20   N     N_1   0.596714 0.610967 0.111573 -0.309103

loop_
_geom_bond_atom_site_label_1
_geom_bond_atom_site_label_2
_ccdc_geom_bond_type
C58   C62   A    
Cr7   O31   S    
C106  N2    T    
C101  C102  A    
Cr2   O2    S    
C48   C95   S    
C55   C59   A    
Cr6   O50   S    
C77   O37   A    
C105  N1    T    
C14   C18   A    
Cr5   O49   S    
N15   H53   S    
C42   C50   A    
C81   O49   A    
C72   C76   A    
C3    O23   A    
N10   H43   S    
C14   N14   S    
C97   C98   A    
C45   O33   A    
C112  N20   T    
Cr2   O46   S    
C57   N9    S    
C107  N3    T    
C84   O52   A    
C27   C111  S    
C15   C19   A    
C41   C86   S    
Cr12  O40   S    
C1    O25   A    
C111  N19   T    
N9    H41   S    
C57   C61   A    
C79   O39   A    
C90   O14   A    
Cr7   O27   S    
C43   C88   S    
Cr2   O18   S    
C71   H7    S    
C32   H24   S    
C83   O47   A    
N7    H38   S    
C55   N7    S    
Cr5   O25   S    
Cr10  O14   S    
C94   C98   A    
C19   H19   S    
Cr8   O20   S    
C53   N5    S    
C15   N15   S    
Cr3   O47   S    
N14   H51   S    
C80   O4    A    
C104  C108  S    
C89   O13   A    
C37   C42   A    
N10   H44   S    
C110  N18   T    
C46   O30   A    
Cr10  O10   S    
C47   O31   A    
C103  C104  A    
Cr7   O51   S    
C54   C74   A    
C8    H12   S    
C40   C43   A    
Cr9   O33   S    
C20   C24   A    
C29   C33   A    
C87   O11   A    
C70   C74   A    
N16   H56   S    
C47   C96   S    
N13   H50   S    
C69   C73   A    
C78   O38   A    
C23   C27   A    
Cr4   O48   S    
C44   C87   S    
Cr5   O5    S    
C9    C10   A    
C34   C78   S    
C67   C71   A    
C30   H22   S    
C2    O26   A    
C75   C91   S    
Cr8   O32   S    
C55   C75   A    
C44   C52   A    
C54   N6    S    
Cr4   O20   S    
Cr7   O7    S    
C43   C51   A    
C52   H32   S    
Cr4   O4    S    
C109  N17   T    
C72   H8    S    
Cr11  O15   S    
Cr2   O22   S    
C91   O15   A    
Cr5   O17   S    
C85   O9    A    
C81   O45   A    
C45   C94   S    
C6    C12   A    
C15   C35   A    
Cr10  O18   S    
C76   C92   S    
Cr3   O19   S    
Cr1   O1    S    
Cr6   O26   S    
C25   C29   A    
N5    H33   S    
C63   C67   A    
C30   C34   A    
C63   C82   S    
C27   C31   A    
C108  N4    T    
C24   C28   A    
C28   C32   A    
C62   C66   A    
C94   C101  A    
C38   C41   A    
C47   O35   A    
C36   C80   S    
C77   O1    A    
C39   C40   A    
C48   O36   A    
C82   O50   A    
C58   N10   S    
C19   C23   A    
Cr3   O23   S    
C65   C69   A    
Cr10  O34   S    
C91   O43   A    
Cr1   O17   S    
C17   C21   A    
C56   C60   A    
Cr11  O11   S    
C68   C72   A    
C62   C83   S    
C7    C99   A    
Cr1   O45   S    
C102  C106  S    
C10   H14   S    
C13   C33   A    
C37   C38   A    
Cr6   O6    S    
Cr1   O41   S    
Cr11  O39   S    
C70   H6    S    
C93   C97   A    
N8    H40   S    
N11   H45   S    
C69   H5    S    
C16   C20   A    
Cr9   O37   S    
C54   C58   A    
N16   H55   S    
C80   O40   A    
C49   H29   S    
N15   H54   S    
C42   C85   S    
C85   O5    A    
C20   H20   S    
N12   H48   S    
C86   O10   A    
C6    H10   S    
C51   H31   S    
C22   C26   A    
C37   H25   S    
C2    O22   A    
C3    O27   A    
Cr8   O8    S    
Cr8   O28   S    
C39   H27   S    
C26   C30   A    
C9    H13   S    
C56   C76   A    
C40   H28   S    
C5    C11   A    
C17   H17   S    
Cr1   O21   S    
C60   N12   S    
C35   C79   S    
Cr7   O19   S    
Cr2   O42   S    
C83   O51   A    
C88   O8    A    
C64   C68   A    
C6    C98   A    
C48   O32   A    
C59   N11   S    
C26   C110  S    
C78   O2    A    
C13   N13   S    
C90   O42   A    
C79   O3    A    
C7    C9    A    
C21   C25   A    
C56   N8    S    
C65   H1    S    
C12   H16   S    
N11   H46   S    
C18   C22   A    
C11   H15   S    
Cr12  O16   S    
C53   C73   A    
C103  C107  S    
Cr9   O17   S    
C5    C97   A    
C61   C84   S    
C53   C57   A    
C93   C102  A    
C14   C34   A    
Cr11  O35   S    
C11   C12   A    
C32   C36   A    
Cr12  O12   S    
C39   C44   A    
C87   O7    A    
C45   O29   A    
C73   C89   S    
C41   C49   A    
C29   H21   S    
C50   H30   S    
Cr12  O36   S    
C59   C63   A    
C31   H23   S    
Cr10  O38   S    
C99   C100  A    
C13   C17   A    
C60   C64   A    
C7    H11   S    
C46   O34   A    
Cr4   O24   S    
C92   O16   A    
C86   O6    A    
C28   C112  S    
Cr3   O3    S    
C51   C52   A    
N9    H42   S    
C101  C105  S    
C89   O41   A    
C16   C36   A    
C95   C104  A    
C71   C75   A    
C4    C21   S    
Cr6   O18   S    
C33   C77   S    
N8    H39   S    
C66   C70   A    
C46   C93   S    
C67   H3    S    
C84   O48   A    
C4    O24   A    
C74   C90   S    
C96   C100  A    
C31   C35   A    
C1    O21   A    
N5    H34   S    
N14   H52   S    
C5    H9    S    
C38   H26   S    
C18   H18   S    
C95   C99   A    
C88   O12   A    
N7    H37   S    
C8    C100  A    
N12   H47   S    
C64   C81   S    
C82   O46   A    
C4    O28   A    
N6    H36   S    
Cr9   O13   S    
C61   C65   A    
N6    H35   S    
C1    C24   S    
C8    C10   A    
C49   C50   A    
C66   H2    S    
C96   C103  A    
Cr3   O43   S    
C2    C23   S    
Cr5   O29   S    
Cr6   O30   S    
Cr12  O20   S    
C3    C22   S    
Cr9   O9    S    
Cr11  O19   S    
Cr8   O52   S    
C68   H4    S    
C92   O44   A    
N13   H49   S    
C25   C109  S    
Cr4   O44   S    
C16   N16   S    
