data_mof_unit_14214.cif
_audit_creation_date              2012-10-26T17:12:44-0400
_audit_creation_method            fapswitch 2.2
_symmetry_space_group_name_H-M    P1
_symmetry_Int_Tables_number       1
_space_group_crystal_system       triclinic
_cell_length_a                    27.884814
_cell_length_b                    18.594434
_cell_length_c                    16.910457
_cell_angle_alpha                 90.091984
_cell_angle_beta                  63.969092
_cell_angle_gamma                 89.899947
_cell_volume                      7878.61226935

loop_
_atom_site_label
_atom_site_type_symbol
_atom_type_description
_atom_site_fract_x
_atom_site_fract_y
_atom_site_fract_z
_atom_type_partial_charge
C1    C     C_R   0.296484 0.731998 0.328512 0.558407
C2    C     C_R   0.588744 0.000150 0.539238 0.027017
C3    C     C_R   0.692288 0.717721 0.903275 0.005324
C4    C     C_R   0.112647 0.808497 0.044562 0.111103
C5    C     C_R   0.887353 0.191503 0.955438 0.111103
C6    C     C_R   0.885452 0.805964 0.964619 0.117035
C7    C     C_R   0.114548 0.194036 0.035381 0.117035
C8    C     C_R   0.612646 0.308496 0.044562 0.111102
C9    C     C_R   0.387354 0.691504 0.955438 0.111102
C10   C     C_R   0.385452 0.305963 0.964619 0.117035
C11   C     C_R   0.614548 0.694037 0.035381 0.117035
C12   C     C_R   0.143855 0.796236 0.089164 -0.075550
C13   C     C_R   0.911256 0.499850 0.460761 0.027017
C14   C     C_R   0.856144 0.203764 0.910836 -0.075550
C15   C     C_R   0.857284 0.791942 0.915211 -0.071015
C16   C     C_R   0.142716 0.208058 0.084789 -0.071015
C17   C     C_R   0.643855 0.296235 0.089164 -0.075550
C18   C     C_R   0.356145 0.703765 0.910836 -0.075550
C19   C     C_R   0.357284 0.291942 0.915211 -0.071016
C20   C     C_R   0.642716 0.708058 0.084789 -0.071016
C21   C     C_R   0.247095 0.703030 0.789147 -0.077630
C22   C     C_R   0.752906 0.296970 0.210853 -0.077630
C23   C     C_R   0.748730 0.707560 0.213759 -0.079871
C24   C     C_R   0.088744 0.500150 0.539238 0.027017
C25   C     C_R   0.251270 0.292440 0.786241 -0.079872
C26   C     C_R   0.747094 0.203029 0.789147 -0.077630
C27   C     C_R   0.252906 0.796971 0.210853 -0.077630
C28   C     C_R   0.248730 0.207560 0.213759 -0.079871
C29   C     C_R   0.751270 0.792440 0.786241 -0.079871
C30   C     C_R   0.278922 0.689678 0.831954 0.066570
C31   C     C_R   0.721078 0.310322 0.168046 0.066570
C32   C     C_R   0.717051 0.694473 0.170632 0.067621
C33   C     C_R   0.282949 0.305527 0.829368 0.067621
C34   C     C_R   0.778922 0.189677 0.831954 0.066571
C35   C     C_R   0.582297 0.870480 0.552656 -0.100533
C36   C     C_R   0.221078 0.810323 0.168046 0.066571
C37   C     C_R   0.217051 0.194473 0.170632 0.067621
C38   C     C_R   0.782949 0.805527 0.829368 0.067621
C39   C     C_R   0.925114 0.903987 0.067293 0.572137
C40   C     C_R   0.074886 0.096013 0.932707 0.572137
C41   C     C_R   0.070881 0.898519 0.935878 0.570188
C42   C     C_R   0.929119 0.101481 0.064122 0.570187
C43   C     C_R   0.425114 0.403987 0.067293 0.572137
C44   C     C_R   0.574886 0.596013 0.932707 0.572137
C45   C     C_R   0.570881 0.398519 0.935878 0.570188
C46   C     C_R   0.417703 0.129520 0.447344 -0.100533
C47   C     C_R   0.429119 0.601481 0.064122 0.570187
C48   C     C_R   0.040823 0.630546 0.526921 0.011272
C49   C     C_R   0.959177 0.369454 0.473079 0.011272
C50   C     C_R   0.959157 0.630333 0.472315 0.011357
C51   C     C_R   0.040843 0.369667 0.527685 0.011357
C52   C     C_R   0.540823 0.130546 0.526921 0.011272
C53   C     C_R   0.459177 0.869454 0.473079 0.011272
C54   C     C_R   0.459157 0.130333 0.472315 0.011357
C55   C     C_R   0.540843 0.869667 0.527685 0.011357
C56   C     C_R   0.019654 0.695720 0.514414 -0.106760
C57   C     C_R   0.417666 0.870063 0.448205 -0.098830
C58   C     C_R   0.980346 0.304280 0.485586 -0.106760
C59   C     C_R   0.980259 0.695603 0.484512 -0.107979
C60   C     C_R   0.019741 0.304397 0.515488 -0.107979
C61   C     C_R   0.519654 0.195720 0.514414 -0.106760
C62   C     C_R   0.480346 0.804280 0.485586 -0.106760
C63   C     C_R   0.480259 0.195603 0.484512 -0.107980
C64   C     C_R   0.519741 0.804397 0.515488 -0.107980
C65   C     C_R   0.978829 0.565126 0.487712 0.027342
C66   C     C_R   0.021170 0.434874 0.512289 0.027342
C67   C     C_R   0.021155 0.565222 0.511928 0.027207
C68   C     C_R   0.582334 0.129937 0.551795 -0.098830
C69   C     C_R   0.978845 0.434778 0.488072 0.027208
C70   C     C_R   0.478829 0.065126 0.487711 0.027342
C71   C     C_R   0.521170 0.934874 0.512288 0.027342
C72   C     C_R   0.521155 0.065222 0.511928 0.027208
C73   C     C_R   0.478845 0.934778 0.488072 0.027207
C74   C     C_R   0.456947 0.999907 0.477096 0.000417
C75   C     C_R   0.543053 0.000093 0.522904 0.000417
C76   C     C_R   0.956947 0.499907 0.477096 0.000417
C77   C     C_R   0.043053 0.500093 0.522904 0.000417
C78   C     C_R   0.388273 0.933843 0.453810 0.002192
C79   C     C_R   0.082297 0.370480 0.552656 -0.100532
C80   C     C_R   0.611727 0.066157 0.546190 0.002192
C81   C     C_R   0.611696 0.934173 0.546572 0.001751
C82   C     C_R   0.388304 0.065827 0.453427 0.001751
C83   C     C_R   0.888273 0.433843 0.453810 0.002192
C84   C     C_R   0.111727 0.566157 0.546190 0.002192
C85   C     C_R   0.111696 0.434173 0.546572 0.001751
C86   C     C_R   0.888304 0.565827 0.453427 0.001751
C87   C     C_R   0.336443 0.934221 0.455681 -0.019830
C88   C     C_R   0.663557 0.065779 0.544319 -0.019830
C89   C     C_R   0.663537 0.934410 0.544511 -0.019279
C90   C     C_R   0.917703 0.629520 0.447344 -0.100533
C91   C     C_R   0.336462 0.065589 0.455489 -0.019279
C92   C     C_R   0.836443 0.434221 0.455681 -0.019830
C93   C     C_R   0.163557 0.565779 0.544319 -0.019830
C94   C     C_R   0.163537 0.434410 0.544511 -0.019279
C95   C     C_R   0.836463 0.565589 0.455489 -0.019279
C96   C     C_R   0.312162 0.999947 0.455191 -0.149964
C97   C     C_R   0.687838 0.000053 0.544809 -0.149964
C98   C     C_R   0.812162 0.499947 0.455191 -0.149964
C99   C     C_R   0.187838 0.500053 0.544809 -0.149964
C100  C     C_R   0.917666 0.370063 0.448205 -0.098829
C101  C     C_R   0.703516 0.268002 0.671488 0.558408
C102  C     C_R   0.082334 0.629937 0.551795 -0.098829
C103  C     C_R   0.218514 0.761950 0.954376 0.018353
C104  C     C_R   0.781486 0.238050 0.045624 0.018353
C105  C     C_R   0.779137 0.764108 0.047901 0.017991
C106  C     C_R   0.220863 0.235892 0.952099 0.017991
C107  C     C_R   0.718513 0.261948 0.954376 0.018353
C108  C     C_R   0.281487 0.738052 0.045623 0.018353
C109  C     C_R   0.279137 0.264108 0.047901 0.017991
C110  C     C_R   0.720863 0.735892 0.952099 0.017991
C111  C     C_R   0.268044 0.725097 0.912206 0.022684
C112  C     C_R   0.706760 0.725994 0.669478 0.565943
C113  C     C_R   0.731956 0.274903 0.087794 0.022684
C114  C     C_R   0.729433 0.728188 0.089171 0.022923
C115  C     C_R   0.270567 0.271812 0.910829 0.022923
C116  C     C_R   0.768044 0.225095 0.912206 0.022683
C117  C     C_R   0.231956 0.774905 0.087794 0.022684
C118  C     C_R   0.229433 0.228188 0.089171 0.022923
C119  C     C_R   0.770567 0.771812 0.910829 0.022923
C120  C     C_R   0.301217 0.718485 0.956167 0.003953
C121  C     C_R   0.698783 0.281515 0.043832 0.003953
C122  C     C_R   0.698270 0.719852 0.042628 0.004198
C123  C     C_R   0.293240 0.274006 0.330522 0.565943
C124  C     C_R   0.301729 0.280149 0.957372 0.004198
C125  C     C_R   0.801216 0.218484 0.956168 0.003953
C126  C     C_R   0.198784 0.781516 0.043832 0.003953
C127  C     C_R   0.198270 0.219851 0.042629 0.004198
C128  C     C_R   0.801730 0.780149 0.957371 0.004198
C129  C     C_R   0.136851 0.810663 0.951432 -0.004064
C130  C     C_R   0.863149 0.189336 0.048568 -0.004064
C131  C     C_R   0.857585 0.816478 0.055362 -0.002542
C132  C     C_R   0.142415 0.183522 0.944638 -0.002542
C133  C     C_R   0.636851 0.310663 0.951432 -0.004064
C134  C     C_R   0.796484 0.231998 0.328512 0.558408
C135  C     C_R   0.363149 0.689337 0.048568 -0.004064
C136  C     C_R   0.357585 0.316478 0.055362 -0.002542
C137  C     C_R   0.642415 0.683523 0.944638 -0.002542
C138  C     C_R   0.110929 0.838155 0.901167 0.001907
C139  C     C_R   0.889071 0.161845 0.098833 0.001906
C140  C     C_R   0.878847 0.853142 0.106933 0.000912
C141  C     C_R   0.121153 0.146858 0.893067 0.000913
C142  C     C_R   0.610929 0.338155 0.901167 0.001906
C143  C     C_R   0.389071 0.661845 0.098833 0.001906
C144  C     C_R   0.378847 0.353142 0.106933 0.000912
C145  C     C_R   0.203516 0.768002 0.671488 0.558408
C146  C     C_R   0.621153 0.646858 0.893067 0.000913
C147  C     C_R   0.128993 0.814839 0.812342 0.076010
C148  C     C_R   0.871007 0.185160 0.187658 0.076010
C149  C     C_R   0.850527 0.847352 0.199453 0.056583
C150  C     C_R   0.149473 0.152648 0.800547 0.056583
C151  C     C_R   0.628993 0.314839 0.812342 0.076010
C152  C     C_R   0.371007 0.685161 0.187658 0.076010
C153  C     C_R   0.350527 0.347352 0.199453 0.056583
C154  C     C_R   0.649473 0.652648 0.800547 0.056583
C155  C     C_R   0.178112 0.776791 0.769727 -0.020230
C156  C     C_R   0.206760 0.225994 0.669478 0.565943
C157  C     C_R   0.821888 0.223209 0.230273 -0.020230
C158  C     C_R   0.812766 0.791456 0.236268 -0.008139
C159  C     C_R   0.187234 0.208543 0.763732 -0.008139
C160  C     C_R   0.678112 0.276791 0.769727 -0.020231
C161  C     C_R   0.321888 0.723209 0.230273 -0.020231
C162  C     C_R   0.312766 0.291456 0.236268 -0.008139
C163  C     C_R   0.687234 0.708544 0.763732 -0.008139
C164  C     C_R   0.205324 0.754051 0.820183 -0.032914
C165  C     C_R   0.794676 0.245949 0.179817 -0.032914
C166  C     C_R   0.789254 0.760429 0.184136 -0.029721
C167  C     C_R   0.793240 0.774006 0.330522 0.565943
C168  C     C_R   0.210746 0.239571 0.815864 -0.029721
C169  C     C_R   0.705324 0.254050 0.820184 -0.032914
C170  C     C_R   0.294676 0.745950 0.179816 -0.032914
C171  C     C_R   0.289254 0.260428 0.184136 -0.029721
C172  C     C_R   0.710746 0.739572 0.815864 -0.029721
C173  C     C_R   0.196470 0.631785 0.528170 0.548804
C174  C     C_R   0.803530 0.368215 0.471830 0.548805
C175  C     C_R   0.803550 0.631762 0.471734 0.551309
C176  C     C_R   0.196450 0.368238 0.528266 0.551308
C177  C     C_R   0.696470 0.131785 0.528170 0.548804
C178  C     C_R   0.411256 0.999850 0.460761 0.027017
C179  C     C_R   0.303530 0.868215 0.471830 0.548804
C180  C     C_R   0.303550 0.131762 0.471734 0.551309
C181  C     C_R   0.696450 0.868238 0.528266 0.551308
C182  C     C_R   0.187288 0.776818 0.907995 0.003859
C183  C     C_R   0.812712 0.223182 0.092005 0.003859
C184  C     C_R   0.807712 0.782279 0.096725 0.005324
C185  C     C_R   0.192288 0.217721 0.903275 0.005324
C186  C     C_R   0.687287 0.276817 0.907995 0.003859
C187  C     C_R   0.312713 0.723183 0.092005 0.003859
C188  C     C_R   0.307712 0.282279 0.096725 0.005324
Cu1   Cu    Cu3+1 0.209920 0.785290 0.495070 1.010302
Cu2   Cu    Cu3+1 0.504760 0.500000 0.075850 1.123494
Cu3   Cu    Cu3+1 0.995240 1.000000 0.924150 1.123493
Cu4   Cu    Cu3+1 0.004760 0.000000 0.075850 1.123494
Cu5   Cu    Cu3+1 0.790080 0.214710 0.504930 1.010303
Cu6   Cu    Cu3+1 0.790080 0.785290 0.504930 1.002494
Cu7   Cu    Cu3+1 0.209920 0.214710 0.495070 1.002494
Cu8   Cu    Cu3+1 0.709920 0.285290 0.495070 1.010302
Cu9   Cu    Cu3+1 0.290080 0.714710 0.504930 1.010303
Cu10  Cu    Cu3+1 0.290080 0.285290 0.504930 1.002494
Cu11  Cu    Cu3+1 0.709920 0.714710 0.495070 1.002494
Cu12  Cu    Cu3+1 0.495240 0.500000 0.924150 1.123494
H1    H     H_    0.534867 0.753513 0.526376 0.131857
H2    H     H_    0.727745 0.999977 0.540598 0.172499
H3    H     H_    0.772255 0.500023 0.459402 0.172499
H4    H     H_    0.227745 0.499977 0.540598 0.172499
H5    H     H_    0.590110 0.820632 0.577229 0.159100
H6    H     H_    0.409890 0.179368 0.422771 0.159100
H7    H     H_    0.409857 0.819985 0.424042 0.165827
H8    H     H_    0.590143 0.180015 0.575958 0.165827
H9    H     H_    0.090110 0.320632 0.577229 0.159100
H10   H     H_    0.909890 0.679368 0.422771 0.159100
H11   H     H_    0.909857 0.319985 0.424042 0.165827
H12   H     H_    0.465133 0.246487 0.473624 0.131857
H13   H     H_    0.090143 0.680015 0.575958 0.165827
H14   H     H_    0.123747 0.791073 0.159921 0.165317
H15   H     H_    0.876254 0.208927 0.840079 0.165317
H16   H     H_    0.879612 0.781018 0.845625 0.165887
H17   H     H_    0.120388 0.218981 0.154375 0.165887
H18   H     H_    0.623746 0.291072 0.159921 0.165317
H19   H     H_    0.376254 0.708928 0.840079 0.165317
H20   H     H_    0.379612 0.281019 0.845625 0.165887
H21   H     H_    0.620388 0.718982 0.154375 0.165887
H22   H     H_    0.252843 0.667142 0.735730 0.177140
H23   H     H_    0.465268 0.753313 0.474953 0.135043
H24   H     H_    0.747157 0.332858 0.264270 0.177140
H25   H     H_    0.742217 0.671788 0.267240 0.181736
H26   H     H_    0.257783 0.328212 0.732760 0.181736
H27   H     H_    0.752842 0.167141 0.735730 0.177139
H28   H     H_    0.247158 0.832859 0.264270 0.177139
H29   H     H_    0.242217 0.171788 0.267240 0.181736
H30   H     H_    0.757783 0.828212 0.732759 0.181736
H31   H     H_    0.534732 0.246686 0.525047 0.135042
H32   H     H_    0.034867 0.253513 0.526376 0.131857
H33   H     H_    0.965132 0.746487 0.473624 0.131857
H34   H     H_    0.965268 0.253314 0.474953 0.135042
H35   H     H_    0.034732 0.746686 0.525047 0.135043
H36   H     H_    0.272255 0.000023 0.459402 0.172499
I1    I     I_    0.077493 0.826366 0.745928 -0.228761
I2    I     I_    0.970778 0.209026 0.878745 -0.288275
I3    I     I_    0.961150 0.758210 0.920326 -0.288273
I4    I     I_    0.038850 0.241789 0.079676 -0.288273
I5    I     I_    0.529222 0.290974 0.121254 -0.288275
I6    I     I_    0.470778 0.709026 0.878745 -0.288275
I7    I     I_    0.461150 0.258211 0.920325 -0.288274
I8    I     I_    0.538849 0.741789 0.079675 -0.288274
I9    I     I_    0.331843 0.600433 0.779053 -0.324404
I10   I     I_    0.668158 0.399567 0.220946 -0.324404
I11   I     I_    0.660484 0.610014 0.226838 -0.322273
I12   I     I_    0.922505 0.173633 0.254073 -0.228760
I13   I     I_    0.339516 0.389986 0.773162 -0.322273
I14   I     I_    0.831842 0.100432 0.779053 -0.324404
I15   I     I_    0.168158 0.899568 0.220946 -0.324404
I16   I     I_    0.160484 0.110014 0.226838 -0.322273
I17   I     I_    0.839517 0.889985 0.773161 -0.322273
I18   I     I_    0.850077 0.936383 0.282331 -0.249795
I19   I     I_    0.149923 0.063617 0.717669 -0.249795
I20   I     I_    0.577494 0.326369 0.745926 -0.228759
I21   I     I_    0.422506 0.673631 0.254074 -0.228759
I22   I     I_    0.350077 0.436382 0.282331 -0.249795
I23   I     I_    0.649924 0.563618 0.717668 -0.249795
I24   I     I_    0.029222 0.790975 0.121255 -0.288275
O1    O     O_R   0.255040 0.869590 0.478480 -0.500072
O2    O     O_R   0.817950 0.203450 0.375560 -0.466471
O3    O     O_R   0.817950 0.796550 0.375560 -0.472139
O4    O     O_R   0.182050 0.203450 0.624440 -0.472139
O5    O     O_R   0.682050 0.296550 0.624440 -0.466470
O6    O     O_R   0.317950 0.703450 0.375560 -0.466471
O7    O     O_R   0.317950 0.296550 0.375560 -0.472139
O8    O     O_R   0.682050 0.703450 0.624440 -0.472139
O9    O     O_R   0.250530 0.763330 0.367210 -0.527091
O10   O     O_R   0.749470 0.236670 0.632790 -0.527091
O11   O     O_R   0.749470 0.763330 0.632790 -0.532047
O12   O     O_R   0.744960 0.130410 0.521520 -0.500072
O13   O     O_R   0.250530 0.236670 0.367210 -0.532047
O14   O     O_R   0.750530 0.263330 0.367210 -0.527092
O15   O     O_R   0.249470 0.736670 0.632790 -0.527091
O16   O     O_R   0.249470 0.263330 0.632790 -0.532047
O17   O     O_R   0.750530 0.736670 0.367210 -0.532048
O18   O     O_R   0.177260 0.690030 0.513710 -0.522748
O19   O     O_R   0.822740 0.309970 0.486290 -0.522748
O20   O     O_R   0.822740 0.690030 0.486290 -0.525266
O21   O     O_R   0.177260 0.309970 0.513710 -0.525266
O22   O     O_R   0.677260 0.190030 0.513710 -0.522748
O23   O     O_R   0.744960 0.869590 0.521520 -0.496096
O24   O     O_R   0.322740 0.809970 0.486290 -0.522748
O25   O     O_R   0.322740 0.190030 0.486290 -0.525266
O26   O     O_R   0.677260 0.809970 0.513710 -0.525266
O27   O     O_R   0.051640 0.926880 0.885090 -0.463685
O28   O     O_R   0.948360 0.073120 0.114910 -0.463684
O29   O     O_R   0.948360 0.926880 0.114910 -0.464748
O30   O     O_R   0.051640 0.073120 0.885090 -0.464748
O31   O     O_R   0.551640 0.426880 0.885090 -0.463684
O32   O     O_R   0.448360 0.573120 0.114910 -0.463684
O33   O     O_R   0.448360 0.426880 0.114910 -0.464748
O34   O     O_R   0.255040 0.130410 0.478480 -0.496097
O35   O     O_R   0.551640 0.573120 0.885090 -0.464748
O36   O     O_R   0.940620 0.926560 0.986760 -0.492446
O37   O     O_R   0.059380 0.073440 0.013240 -0.492446
O38   O     O_R   0.059380 0.926560 0.013240 -0.493623
O39   O     O_R   0.940620 0.073440 0.986760 -0.493623
O40   O     O_R   0.440620 0.426560 0.986760 -0.492446
O41   O     O_R   0.559380 0.573440 0.013240 -0.492446
O42   O     O_R   0.559380 0.426560 0.013240 -0.493623
O43   O     O_R   0.440620 0.573440 0.986760 -0.493623
O44   O     O_R   0.755040 0.369590 0.478480 -0.500072
O45   O     O_R   0.244960 0.630410 0.521520 -0.500071
O46   O     O_R   0.244960 0.369590 0.521520 -0.496096
O47   O     O_R   0.755040 0.630410 0.478480 -0.496097
O48   O     O_R   0.182050 0.796550 0.624440 -0.466470

loop_
_geom_bond_atom_site_label_1
_geom_bond_atom_site_label_2
_ccdc_geom_bond_type
C54   C70   A    
C11   I8    S    
C99   H4    S    
C108  C120  A    
C12   H14   S    
C97   H2    S    
C64   H1    S    
C88   C177  S    
C50   C59   A    
Cu12  O40   S    
Cu1   O9    S    
C145  O15   A    
C29   H30   S    
C181  O23   A    
Cu8   O22   S    
C52   C61   A    
C12   C126  A    
C54   C63   A    
C18   H19   S    
C58   C60   A    
C47   C143  S    
C44   O41   A    
Cu9   O6    S    
C61   C63   A    
C103  C126  A    
C95   C175  S    
C62   C64   A    
C131  C140  A    
C91   C96   A    
C50   C90   A    
C162  C171  A    
C170  C187  A    
C70   C74   A    
C56   H35   S    
C4    C12   A    
C147  C155  A    
C24   C85   A    
C63   H12   S    
C88   C97   A    
Cu7   Cu10  S    
C119  C128  A    
C4    I24   S    
C49   C69   A    
C43   C144  S    
C23   H25   S    
C158  C167  S    
C11   C20   A    
C5    I2    S    
Cu3   Cu4   S    
C165  C183  A    
C137  C146  A    
C166  C184  A    
C175  O20   A    
C86   C90   A    
C71   C73   A    
C15   H16   S    
C106  C127  A    
C82   C91   A    
C51   C66   A    
C89   C181  S    
C142  C151  A    
C52   C72   A    
C41   O38   A    
C105  C114  A    
C102  H13   S    
C74   C178  A    
C26   H27   S    
C82   C178  A    
C176  O46   A    
C34   I14   S    
C36   C117  A    
C7    C132  A    
C38   C119  A    
Cu7   O34   S    
C5    C130  A    
C83   C100  A    
C43   O33   A    
C45   C142  S    
C177  O12   A    
C79   C85   A    
C173  O18   A    
Cu1   Cu9   S    
C66   C77   A    
C39   C140  S    
Cu9   O45   S    
C57   C78   A    
C10   I7    S    
C8    C17   A    
C56   C59   A    
C106  C115  A    
Cu10  O7    S    
C80   C88   A    
C179  O1    A    
C93   C173  S    
Cu12  O31   S    
C84   C93   A    
C105  C184  A    
C156  O16   A    
C86   C95   A    
C24   C77   A    
C104  C183  A    
C42   O39   A    
C2    C81   A    
C41   O27   A    
C55   C71   A    
C2    C75   A    
C153  I22   S    
C78   C87   A    
Cu5   O19   S    
Cu6   O20   S    
C39   O29   A    
C84   C102  A    
C67   C77   A    
Cu3   O27   S    
Cu8   O44   S    
C133  C142  A    
C130  C183  A    
C1    O9    A    
C3    C110  A    
C69   C76   A    
C85   C94   A    
Cu12  O43   S    
C180  O25   A    
C46   C82   A    
C152  I21   S    
C101  C160  S    
Cu4   O29   S    
C29   C38   A    
C149  C158  A    
C167  O17   A    
C20   C122  A    
C152  C161  A    
C135  C143  A    
C174  O19   A    
C48   C67   A    
C40   C141  S    
C136  C188  A    
C59   H33   S    
C72   C75   A    
C112  O11   A    
C135  C187  A    
C141  C150  A    
C25   C168  A    
Cu4   O38   S    
C139  C148  A    
C1    O6    A    
C98   H3    S    
Cu1   O48   S    
C157  C165  A    
C92   C174  S    
C45   O42   A    
Cu2   O41   S    
C22   H24   S    
Cu7   O13   S    
C96   H36   S    
C160  C169  A    
Cu5   Cu8   S    
C91   C180  S    
C45   O31   A    
C167  O3    A    
C9    C135  A    
C116  C125  A    
C118  C127  A    
Cu8   O14   S    
C117  C126  A    
C132  C141  A    
C46   H6    S    
C112  O8    A    
C180  O34   A    
C108  C117  A    
C110  C119  A    
Cu11  O8    S    
C109  C118  A    
Cu1   O18   S    
C100  H11   S    
Cu5   O2    S    
C173  O45   A    
Cu7   O4    S    
C150  I19   S    
C8    I5    S    
C148  C157  A    
C50   C65   A    
C51   C79   A    
C107  C116  A    
C104  C113  A    
C177  O22   A    
C113  C121  A    
C7    I4    S    
Cu10  O46   S    
C19   H20   S    
C140  C149  A    
C31   C113  A    
C17   H18   S    
C123  O13   A    
C25   C33   A    
C151  I20   S    
C43   O40   A    
C73   C74   A    
Cu4   O28   S    
Cu2   Cu12  S    
C107  C186  A    
C65   C76   A    
C171  C188  A    
C40   O37   A    
C169  C186  A    
C3    C172  A    
C130  C139  A    
C103  C111  A    
Cu2   O32   S    
C104  C125  A    
C65   C67   A    
C68   H8    S    
C20   H21   S    
C31   I10   S    
C40   O30   A    
C3    C137  A    
C93   C99   A    
C81   C89   A    
C8    C133  A    
C1    C161  S    
C21   C164  A    
C47   O32   A    
C147  I1    S    
C179  O24   A    
C47   O43   A    
C33   C115  A    
C21   H22   S    
C32   I11   S    
Cu6   O3    S    
C150  C159  A    
C112  C163  S    
C53   C57   A    
C132  C185  A    
Cu3   O39   S    
C10   C19   A    
C48   C102  A    
C46   C54   A    
Cu1   O1    S    
C33   I13   S    
C27   C170  A    
C5    C14   A    
C17   C121  A    
C143  C152  A    
C15   C128  A    
C107  C121  A    
C158  C166  A    
C6    I3    S    
C79   H9    S    
Cu11  O26   S    
C101  O5    A    
C175  O47   A    
C115  C124  A    
C78   C178  A    
C106  C185  A    
C6    C131  A    
C58   H34   S    
C4    C129  A    
C27   C36   A    
C37   I16   S    
C21   C30   A    
C13   C83   A    
C153  C162  A    
C23   C32   A    
C11   C137  A    
C136  C144  A    
C110  C122  A    
Cu11  O17   S    
C61   H31   S    
C164  C182  A    
C123  O7    A    
C38   I17   S    
C41   C138  S    
C28   H29   S    
C154  I23   S    
C94   C176  S    
C68   C80   A    
Cu3   O30   S    
C30   I9    S    
C103  C182  A    
C108  C187  A    
C35   C81   A    
C95   C98   A    
C92   C98   A    
C83   C92   A    
C14   C125  A    
C28   C37   A    
C10   C136  A    
Cu9   O15   S    
C27   H28   S    
C66   C69   A    
Cu10  O16   S    
C34   C116  A    
Cu2   O42   S    
C25   H26   S    
C148  I12   S    
C36   I15   S    
C159  C168  A    
C131  C184  A    
Cu11  O47   S    
C144  C153  A    
C6    C15   A    
C22   C165  A    
C35   H5    S    
C129  C138  A    
C26   C169  A    
C44   O35   A    
C146  C154  A    
C13   C86   A    
C44   C146  S    
C52   C68   A    
Cu10  O25   S    
C134  O2    A    
C156  O4    A    
Cu5   O10   S    
Cu8   O5    S    
C9    I6    S    
C16   C127  A    
C26   C34   A    
C109  C188  A    
C19   C124  A    
C22   C31   A    
C37   C118  A    
C35   C55   A    
C154  C163  A    
C90   H10   S    
C123  C162  S    
C149  I18   S    
C49   C58   A    
C89   C97   A    
C111  C120  A    
C114  C122  A    
C176  O21   A    
C163  C172  A    
C23   C166  A    
C53   C62   A    
C9    C18   A    
C28   C171  A    
Cu6   Cu11  S    
C13   C76   A    
C138  C147  A    
C87   C96   A    
Cu2   O33   S    
C129  C182  A    
C181  O26   A    
C16   H17   S    
C62   H23   S    
C133  C186  A    
C161  C170  A    
Cu3   O36   S    
Cu6   O23   S    
C134  O14   A    
Cu12  O35   S    
C174  O44   A    
C18   C120  A    
C145  O48   A    
Cu4   O37   S    
C48   C56   A    
C7    C16   A    
C168  C185  A    
C105  C128  A    
C42   C139  S    
C156  C159  S    
C53   C73   A    
C109  C124  A    
C51   C60   A    
C55   C64   A    
C155  C164  A    
C101  O10   A    
C57   H7    S    
C30   C111  A    
Cu7   O21   S    
C151  C160  A    
C24   C84   A    
C49   C100  A    
C71   C75   A    
C60   H32   S    
C94   C99   A    
C14   H15   S    
C29   C172  A    
Cu9   O24   S    
C2    C80   A    
C87   C179  S    
C145  C155  S    
C134  C157  S    
C39   O36   A    
Cu5   O12   S    
C70   C72   A    
Cu6   O11   S    
C32   C114  A    
C42   O28   A    
