data_mof_unit_50023.cif
_audit_creation_date              2012-12-11T17:22:40-0500
_audit_creation_method            fapswitch 2.2
_symmetry_space_group_name_H-M    P1
_symmetry_Int_Tables_number       1
_space_group_crystal_system       triclinic
_cell_length_a                    8.238397
_cell_length_b                    16.463419
_cell_length_c                    27.004361
_cell_angle_alpha                 95.905319
_cell_angle_beta                  92.810679
_cell_angle_gamma                 86.741358
_cell_volume                      3633.89179688

loop_
_atom_site_label
_atom_site_type_symbol
_atom_type_description
_atom_site_fract_x
_atom_site_fract_y
_atom_site_fract_z
_atom_type_partial_charge
Ba1   Ba    Ba6+2 0.851940 0.461560 0.523510 1.643943
Ba2   Ba    Ba6+2 0.337880 0.538370 0.476480 1.642223
C1    C     C_3   0.786200 0.214893 0.706554 -0.315572
C2    C     C_R   0.916622 0.580893 0.177074 0.569548
C3    C     C_2   0.764383 0.553845 0.271891 -0.082461
C4    C     C_3   0.209393 0.276568 0.652884 0.274168
C5    C     C_3   0.747980 0.581546 0.326501 -0.048429
C6    C     C_1   0.983102 0.489044 0.343187 0.039115
C7    C     C_2   0.024044 0.485159 0.295554 -0.107230
C8    C     C_2   0.906770 0.516917 0.256154 0.187662
C9    C     C_R   0.028347 0.507783 0.101774 -0.114976
C10   C     C_R   0.061988 0.438531 0.128332 -0.027961
C11   C     C_R   0.137344 0.367835 0.102967 0.165271
C12   C     C_3   0.732884 0.259465 0.661221 0.476811
C13   C     C_R   0.954527 0.578789 0.126522 -0.018727
C14   C     C_2   0.853428 0.531872 0.360374 -0.292390
C15   C     C_2   0.352236 0.484863 0.641373 -0.270772
C16   C     C_3   0.256039 0.242176 0.702000 -0.355193
C17   C     C_R   0.192728 0.435995 0.975212 0.026980
C18   C     C_R   0.062229 0.573952 0.972499 0.019385
C19   C     C_R   0.147287 0.504528 0.948525 0.050520
C20   C     C_R   0.283161 0.369895 0.949992 -0.100805
C21   C     C_R   0.323476 0.370302 0.900433 -0.064184
C22   C     C_R   0.275922 0.436517 0.873357 -0.031325
C23   C     C_3   0.522161 0.670193 0.627709 0.303938
C24   C     C_R   0.187490 0.503755 0.897319 -0.079205
C25   C     C_R   0.139645 0.570380 0.870108 -0.033908
C26   C     C_R   0.180598 0.569053 0.819641 0.588342
C27   C     C_R   0.315427 0.436755 0.822818 0.585805
C28   C     C_3   0.177564 0.288050 0.414981 0.311034
C29   C     C_2   0.462454 0.489980 0.729331 -0.072920
C30   C     C_3   0.502762 0.494177 0.675094 -0.044906
C31   C     C_1   0.213048 0.517531 0.657320 0.035939
C32   C     C_2   0.175072 0.517137 0.704564 -0.102135
C33   C     C_2   0.306291 0.501952 0.743850 0.205703
C34   C     C_3   0.507740 0.703423 0.682105 -0.373390
C35   C     C_R   0.147646 0.435969 0.025918 0.002288
C36   C     C_R   0.068180 0.506521 0.050429 0.047259
C37   C     C_R   0.028197 0.576155 0.024101 0.027145
C38   C     C_R   0.178605 0.367360 0.053108 -0.127809
C39   C     C_R   0.920840 0.647583 0.100496 -0.056219
C40   C     C_3   0.178744 0.196167 0.400770 -0.376115
C41   C     C_R   0.013205 0.638978 0.943638 -0.101707
C42   C     C_R   0.051368 0.637170 0.893849 -0.061771
C43   C     C_R   0.956499 0.646443 0.050699 -0.102878
C44   C     C_R   0.382466 0.265334 0.517323 -0.301462
C45   C     C_3   0.074182 0.714215 0.339304 0.341863
C46   C     C_R   0.523066 0.239839 0.492761 0.034316
C47   C     C_R   0.573514 0.156748 0.486905 -0.110802
C48   C     C_R   0.481075 0.098278 0.506119 0.261568
C49   C     C_R   0.334721 0.125171 0.529135 -0.162282
C50   C     C_R   0.284518 0.208545 0.533584 -0.011874
C51   C     C_R   0.615581 0.851486 0.503091 -0.117387
C52   C     C_3   0.016177 0.708805 0.579606 0.304491
C53   C     C_R   0.665697 0.768736 0.500593 0.012297
C54   C     C_R   0.706418 0.907125 0.480634 0.252138
C55   C     C_R   0.802348 0.739746 0.474911 -0.291012
C56   C     C_3   0.089623 0.737998 0.286874 -0.321477
C57   C     C_R   0.900476 0.793716 0.455678 -0.007145
C58   C     C_R   0.851783 0.877419 0.457672 -0.165870
C59   C     C_3   0.999466 0.801070 0.592063 -0.374779
C60   C     C_3   0.665383 0.363767 0.375757 0.299533
C61   C     C_3   0.667247 0.343737 0.319534 -0.358778
C62   C     C_3   0.535177 0.756649 0.360914 0.362530
C63   C     C_3   0.500488 0.838580 0.340121 -0.363891
C64   C     C_R   0.018008 0.442013 0.179225 0.614774
H1    H     H_    0.843458 0.282990 0.647342 0.114453
H2    H     H_    0.787854 0.380804 0.390056 0.011405
H3    H     H_    0.576494 0.415964 0.384041 0.081864
H4    H     H_    0.877899 0.164756 0.696078 0.106783
H5    H     H_    0.761370 0.294338 0.310020 0.135524
H6    H     H_    0.694915 0.398524 0.301546 0.068809
H7    H     H_    0.546263 0.323469 0.304849 0.134993
H8    H     H_    0.680035 0.188659 0.721760 0.116620
H9    H     H_    0.399005 0.654402 0.612508 0.028341
H10   H     H_    0.605665 0.614715 0.625346 0.030834
H11   H     H_    0.432760 0.761825 0.684771 0.138566
H12   H     H_    0.251823 0.179442 0.367399 0.131957
H13   H     H_    0.448143 0.659388 0.702765 0.075194
H14   H     H_    0.630475 0.714368 0.699562 0.125879
H15   H     H_    0.841254 0.258350 0.735981 0.101784
H16   H     H_    0.310111 0.178923 0.694990 0.116772
H17   H     H_    0.144065 0.655068 0.342547 0.085992
H18   H     H_    0.943585 0.707056 0.345035 -0.054088
H19   H     H_    0.210782 0.761737 0.282494 0.147496
H20   H     H_    0.076281 0.683350 0.259828 0.123055
H21   H     H_    0.994266 0.785750 0.278635 0.116267
H22   H     H_    0.669450 0.744694 0.362210 -0.067369
H23   H     H_    0.232681 0.162900 0.431661 0.056292
H24   H     H_    0.491020 0.761417 0.399386 0.076926
H25   H     H_    0.568271 0.886394 0.363166 0.077964
H26   H     H_    0.368698 0.856356 0.340785 0.151004
H27   H     H_    0.147434 0.337952 0.660813 0.053571
H28   H     H_    0.540118 0.834850 0.301195 0.120901
H29   H     H_    0.143951 0.460617 0.285148 0.135503
H30   H     H_    0.561228 0.482263 0.756843 0.100022
H31   H     H_    0.392914 0.317876 0.883288 0.119317
H32   H     H_    0.327729 0.316838 0.967674 0.068128
H33   H     H_    0.233173 0.310735 0.036500 0.065801
H34   H     H_    0.052344 0.177056 0.392396 0.126459
H35   H     H_    0.671630 0.574737 0.245499 0.121240
H36   H     H_    0.865940 0.703497 0.118681 0.121769
H37   H     H_    0.942174 0.692275 0.958066 0.069084
H38   H     H_    0.323592 0.282838 0.633547 0.005142
H39   H     H_    0.010697 0.688930 0.873859 0.121740
H40   H     H_    0.049921 0.528702 0.715086 0.127741
H41   H     H_    0.928651 0.702892 0.034482 0.067662
H42   H     H_    0.840340 0.546350 0.400144 0.082856
H43   H     H_    0.358083 0.451250 0.604636 0.073095
H44   H     H_    0.509260 0.872181 0.523829 0.110851
H45   H     H_    0.896745 0.685704 0.566795 0.006684
H46   H     H_    0.260312 0.081414 0.543361 0.095089
H47   H     H_    0.682815 0.138323 0.467095 0.106062
H48   H     H_    0.927982 0.919389 0.442498 0.091481
H49   H     H_    0.344539 0.329610 0.521429 0.074420
H50   H     H_    0.347171 0.280646 0.723100 0.170129
H51   H     H_    0.840368 0.675606 0.473902 0.066424
H52   H     H_    0.147300 0.241583 0.724607 0.112119
H53   H     H_    0.303868 0.306100 0.422951 0.008424
H54   H     H_    0.104205 0.303310 0.448430 0.051762
H55   H     H_    0.554997 0.182114 0.633926 0.163678
H56   H     H_    0.103105 0.694941 0.549485 0.075705
H57   H     H_    0.635210 0.233082 0.591056 0.177816
H58   H     H_    0.299401 0.281469 0.126388 0.174375
H59   H     H_    0.114491 0.247165 0.107435 0.174285
H60   H     H_    0.906881 0.816752 0.620526 0.137924
H61   H     H_    0.961611 0.831468 0.558343 0.062191
H62   H     H_    0.118122 0.824374 0.606788 0.124758
N1    N     N_R   0.947534 0.512927 0.203351 -0.428100
N2    N     N_R   0.267105 0.502478 0.796239 -0.423605
N3    N     N_2   0.528345 0.012917 0.502747 -0.231060
N4    N     N_2   0.660793 0.992771 0.482800 -0.229886
N5    N     N_3   0.664130 0.201667 0.622215 -0.482806
N6    N     N_3   0.174096 0.295340 0.127498 -0.431078
O1    O     O_2   0.915540 0.542930 0.617950 -0.467375
O2    O     O_2   0.237821 0.790616 0.467023 -0.481869
O3    O     O_3   0.136879 0.775284 0.373846 -0.598524
O4    O     O_3   0.147530 0.542870 0.557780 -0.491619
O5    O     O_3   0.552080 0.402920 0.475380 -0.487467
O6    O     O_2   0.387280 0.697260 0.523450 -0.459969
O7    O     O_3   0.585294 0.730257 0.602125 -0.639682
O8    O     O_2   0.418142 0.536678 0.322360 -0.498077
O9    O     O_3   0.454702 0.695078 0.330662 -0.592274
O10   O     O_2   0.040157 0.381484 0.201761 -0.563390
O11   O     O_2   0.391888 0.377976 0.802438 -0.609787
O12   O     O_3   0.621845 0.294561 0.396999 -0.634196
O13   O     O_2   0.856778 0.644249 0.197796 -0.620083
O14   O     O_2   0.140993 0.627897 0.796766 -0.598411
O15   O     O_3   0.664390 0.396160 0.588360 -0.477739
O16   O     O_2   0.832648 0.432195 0.674424 -0.519695
O17   O     O_3   0.071725 0.673511 0.622608 -0.626517
O18   O     O_3   0.614952 0.321803 0.675586 -0.629069
O19   O     O_2   0.802410 0.302720 0.476520 -0.463705
O20   O     O_3   0.070880 0.354870 0.564040 -0.486875
O21   O     O_2   0.942516 0.209060 0.538333 -0.470207
O22   O     O_3   0.103484 0.223910 0.624648 -0.605788
O23   O     O_2   0.274150 0.457040 0.382020 -0.462995
O24   O     O_3   0.042160 0.457070 0.442220 -0.495999
O25   O     O_3   0.525310 0.603770 0.411640 -0.477315
O26   O     O_3   0.110724 0.326995 0.374663 -0.623452
O27   O     O_3   0.637620 0.597020 0.524620 -0.474071
O28   O     O_3   0.118810 0.645070 0.435950 -0.491693
P1    P     P_3+3 0.086060 0.566890 0.610430 0.997083
P2    P     P_3+3 0.625290 0.314770 0.461990 0.988854
P3    P     P_3+3 0.096728 0.248183 0.563107 0.959060
P4    P     P_3+3 0.103630 0.433040 0.389570 0.993952
P5    P     P_3+3 0.099057 0.751728 0.433695 0.951232
P6    P     P_3+3 0.658494 0.414309 0.653326 0.950042
P7    P     P_3+3 0.572657 0.699704 0.538161 0.953958
P8    P     P_3+3 0.535355 0.600598 0.347094 0.945829

loop_
_geom_bond_atom_site_label_1
_geom_bond_atom_site_label_2
_ccdc_geom_bond_type
H59   N6    S    
C51   H44   S    
C63   H26   S    
C47   H47   S    
C19   C24   A    
O6    P7    D    
C20   H32   S    
O25   P8    S    
C11   N6    S    
C58   H48   S    
C62   H24   S    
C56   H21   S    
Ba2   O28   S    
C38   H33   S    
C42   H39   S    
C28   O26   S    
C24   C25   A    
C49   H46   S    
C28   H54   S    
C44   H49   S    
H57   N5    S    
Ba2   O5    S    
O5    P2    S    
C17   C19   A    
C22   C24   A    
C32   C33   S    
C35   C38   A    
C34   H11   S    
C27   O11   D    
C36   C37   A    
C55   C57   A    
C64   O10   D    
C28   H53   S    
C29   H30   S    
C44   C50   A    
C39   H36   S    
Ba1   Ba2   S    
C1    H8    S    
C22   C27   A    
C11   C38   A    
C17   C35   A    
C16   H16   S    
C9    C13   A    
C25   C42   A    
C29   C30   S    
Ba1   P2    S    
C6    C7    D    
C1    H15   S    
C12   H1    S    
O20   P3    S    
Ba1   O15   S    
C59   H60   S    
O26   P4    S    
C7    C8    S    
C7    H29   S    
Ba1   O5    S    
Ba2   O24   S    
C37   C43   A    
C64   N1    Am   
O27   P7    S    
C52   H56   S    
Ba1   O27   S    
C57   C58   A    
C6    C14   D    
C45   O3    S    
O15   P6    S    
C15   C31   D    
C56   H20   S    
Ba2   O27   S    
O18   P6    S    
C48   C49   A    
C44   C46   A    
C51   C53   A    
C4    C16   S    
C3    H35   S    
C26   O14   D    
C52   C59   S    
O19   P2    D    
C49   C50   A    
Ba2   O4    S    
C1    H4    S    
C13   C39   A    
C34   H14   S    
C52   O17   S    
C16   H50   S    
C3    C5    S    
C18   C37   A    
O28   P5    S    
Ba2   O25   S    
C61   H7    S    
C2    O13   D    
O12   P2    S    
C54   C58   A    
C60   H3    S    
C23   H9    S    
C32   H40   S    
C9    C36   A    
C41   C42   A    
C35   C36   A    
C40   H34   S    
C50   P3    S    
C27   N2    Am   
C21   C22   A    
C4    H27   S    
O16   P6    D    
C17   C20   A    
C60   C61   S    
O7    P7    S    
C31   C32   D    
C59   H61   S    
C54   N4    S    
C45   H18   S    
C61   H6    S    
Ba1   O19   S    
C33   N2    S    
O4    P1    S    
C1    C12   S    
C6    P4    S    
C63   H28   S    
C12   N5    S    
C61   H5    S    
C40   H12   S    
C4    H38   S    
C53   C55   A    
C29   C33   D    
N3    N4    D    
C56   H19   S    
O3    P5    S    
C18   C41   A    
C57   P5    S    
O24   P4    S    
C55   H51   S    
C51   C54   A    
C63   H25   S    
Ba2   P4    S    
C5    C14   S    
C21   H31   S    
C18   C19   A    
O1    P1    D    
C23   O7    S    
O9    P8    S    
C34   H13   S    
C15   H43   S    
O23   P4    D    
C9    C10   A    
C2    N1    Am   
C46   P2    S    
C62   O9    S    
H58   N6    S    
O17   P1    S    
O8    P8    D    
C40   H23   S    
Ba2   O6    S    
C62   C63   S    
C23   H10   S    
C2    C13   A    
C30   P6    S    
C8    N1    S    
C3    C8    D    
C45   C56   S    
C16   H52   S    
Ba1   O24   S    
C10   C64   A    
O22   P3    S    
O21   P3    D    
Ba2   O23   S    
C46   C47   A    
C31   P1    S    
C62   H22   S    
C52   H45   S    
C59   H62   S    
C26   N2    Am   
C60   H2    S    
Ba1   O20   S    
C41   H37   S    
O2    P5    D    
C48   N3    S    
C14   H42   S    
C23   C34   S    
C45   H17   S    
C10   C11   A    
Ba1   P1    S    
C47   C48   A    
C60   O12   S    
C5    P8    S    
C12   O18   S    
C25   C26   A    
C15   C30   S    
C39   C43   A    
C20   C21   A    
C28   C40   S    
H55   N5    S    
Ba1   O1    S    
C53   P7    S    
C4    O22   S    
Ba1   O4    S    
C43   H41   S    
