data_mof_unit_12677.cif
_audit_creation_date              2012-12-10T17:17:27-0500
_audit_creation_method            fapswitch 2.2
_symmetry_space_group_name_H-M    P1
_symmetry_Int_Tables_number       1
_space_group_crystal_system       triclinic
_cell_length_a                    10.214492
_cell_length_b                    10.61438
_cell_length_c                    12.325571
_cell_angle_alpha                 90.786673
_cell_angle_beta                  109.597805
_cell_angle_gamma                 94.356947
_cell_volume                      1254.19824194

loop_
_atom_site_label
_atom_site_type_symbol
_atom_type_description
_atom_site_fract_x
_atom_site_fract_y
_atom_site_fract_z
_atom_type_partial_charge
C1    C     C_R   0.051852 0.733860 0.496029 0.850486
C2    C     C_R   0.409773 0.468310 0.000125 -0.004967
C3    C     C_R   0.323754 0.440100 0.885445 0.044356
C4    C     C_R   0.550373 0.439002 0.031233 0.014585
C5    C     C_R   0.591755 0.355160 0.960351 -0.027300
C6    C     C_R   0.493199 0.305299 0.857643 -0.191974
C7    C     C_R   0.361954 0.349317 0.819826 -0.192217
C8    C     C_R   0.652545 0.499757 0.125769 -0.331930
C9    C     C_R   0.831652 0.384858 0.090459 0.324622
C10   C     C_R   0.202932 0.504651 0.839157 -0.110232
C11   C     C_2   0.085939 0.870344 0.508072 0.226380
C12   C     C_R   0.133472 0.507199 0.714462 0.881335
C13   C     C_2   0.049016 0.935894 0.586693 0.304857
C14   C     C_2   0.944715 0.134165 0.541566 -0.421451
C15   C     C_2   0.061891 0.073716 0.583083 0.416898
C16   C     C_2   0.433583 0.507595 0.512701 0.097613
C17   C     C_2   0.568818 0.488310 0.490434 -0.075081
C18   C     C_R   0.954177 0.266689 0.513919 0.955009
C19   C     C_R   0.865716 0.488738 0.285273 0.887996
C20   C     C_R   0.731875 0.326661 0.991228 0.505591
C21   C     C_R   0.787823 0.464152 0.162682 -0.269297
C22   C     C_R   0.154871 0.576112 0.912357 -0.272172
C23   C     C_R   0.226539 0.584192 0.030247 -0.130691
C24   C     C_R   0.352189 0.529086 0.075954 0.438764
H1    H     H_    0.842550 0.084280 0.525056 0.132001
H2    H     H_    0.568928 0.415755 0.427670 0.199512
H3    H     H_    0.438075 0.572319 0.583004 0.082280
H4    H     H_    0.683524 0.620989 0.604993 0.172030
H5    H     H_    0.519252 0.238104 0.802758 0.190500
H6    H     H_    0.627834 0.574439 0.174295 0.223848
H7    H     H_    0.061185 0.625086 0.878491 0.181208
H8    H     H_    0.183902 0.633228 0.086738 0.154520
H9    H     H_    0.290769 0.311893 0.738538 0.226151
N1    N     N_2   0.313640 0.446500 0.454900 0.088388
N2    N     N_2   0.686360 0.553430 0.545150 -0.202085
O1    O     O_R   0.936910 0.692950 0.509080 -0.564642
O2    O     O_R   0.138320 0.658600 0.480130 -0.610310
O3    O     O_R   0.002900 0.525670 0.675280 -0.585402
O4    O     O_R   0.204310 0.491320 0.646330 -0.634970
O5    O     O_R   0.861680 0.341400 0.519870 -0.615254
O6    O     O_R   0.063090 0.307050 0.490920 -0.575783
O7    O     O_R   0.795690 0.508680 0.353670 -0.602386
O8    O     O_R   0.997100 0.474330 0.324720 -0.611618
Zn1   Zn    Zn3+2 0.865520 0.522940 0.519330 0.980772
Zn2   Zn    Zn3+2 0.134480 0.477060 0.480670 0.991233
O9    O     O_3   0.969005 0.361637 0.113359 -0.750771
H10   H     H_    0.027387 0.440840 0.146474 0.360604
O10   O     O_3   0.983013 0.874283 0.656216 -0.611604
C25   C     C_3   0.017462 0.938429 0.764491 -0.328365
H11   H     H_    0.961322 0.025307 0.757002 0.185423
H12   H     H_    0.132124 0.961408 0.804771 0.159706
H13   H     H_    0.983386 0.875580 0.822912 0.182817
O11   O     O_3   0.159842 0.932472 0.444900 -0.615742
C26   C     C_3   0.100864 0.895615 0.326898 -0.340043
H14   H     H_    0.985284 0.897810 0.294701 0.136836
H15   H     H_    0.130508 0.800654 0.310009 0.192884
H16   H     H_    0.143168 0.963690 0.276986 0.187145
O12   O     O_3   0.313045 0.384161 0.358508 -0.553355
C27   C     C_3   0.233601 0.268093 0.347807 -0.050808
H17   H     H_    0.120801 0.280722 0.314696 0.209660
H18   H     H_    0.263168 0.218059 0.430163 0.196144
H19   H     H_    0.255242 0.206709 0.283346 0.126389
O13   O     O_3   0.773975 0.250356 0.919335 -0.581272
C28   C     C_3   0.777359 0.126425 0.959398 -0.303650
H20   H     H_    0.807845 0.064442 0.900298 0.183146
H21   H     H_    0.672789 0.088024 0.959306 0.137781
H22   H     H_    0.856160 0.122235 0.046960 0.188687
O14   O     O_3   0.407941 0.527287 0.194282 -0.749830
H23   H     H_    0.457342 0.449466 0.213960 0.350352
O15   O     O_3   0.192801 0.136782 0.609232 -0.783199
H24   H     H_    0.263899 0.076393 0.642466 0.329889

loop_
_geom_bond_atom_site_label_1
_geom_bond_atom_site_label_2
_ccdc_geom_bond_type
C13   O10   S    
C2    C4    A    
C23   C24   A    
C27   H17   S    
O3    Zn1   S    
O15   H24   S    
O8    Zn2   S    
C14   C18   S    
C9    C20   A    
C3    C7    A    
C11   O11   S    
C19   O7    A    
C1    O2    A    
O4    Zn2   S    
C25   H13   S    
C8    H6    S    
C23   H8    S    
C20   O13   S    
C2    C3    A    
C9    O9    S    
N1    Zn2   S    
O11   C26   S    
C10   C22   A    
C2    C24   A    
N2    Zn1   S    
C7    H9    S    
C9    C21   A    
C6    C7    A    
O7    Zn1   S    
C12   O4    A    
C3    C10   A    
C17   H2    S    
C10   C12   S    
C28   H20   S    
C16   H3    S    
O10   C25   S    
C19   C21   S    
C19   O8    A    
C8    C21   A    
O5    Zn1   S    
C13   C15   S    
C14   H1    S    
C12   O3    A    
C5    C6    A    
C26   H15   S    
O1    Zn1   S    
C27   H18   S    
C22   H7    S    
C24   O14   S    
O2    Zn2   S    
O13   C28   S    
C28   H22   S    
C11   C13   D    
C6    H5    S    
H4    N2    S    
N1    O12   S    
C25   H11   S    
O9    H10   S    
C18   O6    A    
C4    C8    A    
C5    C20   A    
C15   O15   S    
C18   O5    A    
C26   H14   S    
C16   C17   S    
C27   H19   S    
O6    Zn2   S    
C17   N2    D    
C16   N1    D    
O12   C27   S    
C14   C15   D    
O14   H23   S    
C22   C23   A    
C1    O1    A    
C28   H21   S    
C4    C5    A    
C25   H12   S    
C26   H16   S    
C1    C11   S    
