data_mof_unit_32375.cif
_audit_creation_date              2012-12-10T20:39:56-0500
_audit_creation_method            fapswitch 2.2
_symmetry_space_group_name_H-M    P1
_symmetry_Int_Tables_number       1
_space_group_crystal_system       triclinic
_cell_length_a                    23.06402
_cell_length_b                    10.67103
_cell_length_c                    9.87037
_cell_angle_alpha                 90.580599
_cell_angle_beta                  90.870142
_cell_angle_gamma                 90.762119
_cell_volume                      2428.63958015

loop_
_atom_site_label
_atom_site_type_symbol
_atom_type_description
_atom_site_fract_x
_atom_site_fract_y
_atom_site_fract_z
_atom_type_partial_charge
C1    C     C_R   0.497120 0.259998 0.499291 0.872457
C2    C     C_R   0.965709 0.287066 0.299802 -0.068986
C3    C     C_R   0.025917 0.287468 0.296249 -0.093113
C4    C     C_R   0.058572 0.331378 0.408221 -0.027311
C5    C     C_R   0.030282 0.369130 0.527473 -0.009374
C6    C     C_R   0.062990 0.410005 0.640959 -0.097345
C7    C     C_R   0.035061 0.443200 0.760571 -0.202801
C8    C     C_R   0.974536 0.443622 0.767814 0.459385
C9    C     C_R   0.118975 0.342863 0.402749 0.544816
C10   C     C_R   0.123316 0.419242 0.631052 0.559416
C11   C     C_R   0.228400 0.528463 0.445032 -0.156583
C12   C     C_R   0.389206 0.499389 0.499196 0.967068
C13   C     C_R   0.287345 0.560255 0.444055 0.332093
C14   C     C_R   0.327390 0.474865 0.497899 -0.168461
C15   C     C_R   0.308502 0.360657 0.551791 -0.241211
C16   C     C_R   0.249892 0.330569 0.552933 -0.042144
C17   C     C_R   0.209935 0.414511 0.499996 0.231742
C18   C     C_R   0.771328 0.531023 0.439256 0.201270
C19   C     C_R   0.711778 0.558094 0.434521 0.093679
C20   C     C_R   0.672917 0.479970 0.504275 -0.110496
C21   C     C_R   0.692893 0.377161 0.577408 -0.213269
C22   C     C_R   0.751273 0.349741 0.580343 -0.097556
C23   C     C_R   0.498069 0.740259 0.500205 0.938383
C24   C     C_R   0.790439 0.425652 0.511698 0.197571
C25   C     C_R   0.476668 0.065318 0.617940 0.130748
C26   C     C_R   0.485536 0.128832 0.497213 -0.115982
C27   C     C_R   0.482554 0.063201 0.373541 -0.175899
C28   C     C_R   0.483324 0.933805 0.374236 -0.119470
C29   C     C_R   0.487483 0.871460 0.498609 -0.078131
C30   C     C_R   0.478141 0.937253 0.618734 0.162039
C31   C     C_3   0.510328 0.935701 0.751131 -0.463998
C32   C     C_3   0.507633 0.077337 0.751563 -0.468636
C33   C     C_R   0.463587 0.421262 0.068886 0.151176
C34   C     C_R   0.610878 0.499947 0.500989 0.922102
C35   C     C_R   0.539864 0.567274 0.075573 -0.128653
C36   C     C_R   0.540440 0.567064 0.932408 0.193336
C37   C     C_R   0.463522 0.421489 0.926389 0.119034
C38   C     C_3   0.398966 0.419121 0.917849 -0.493697
C39   C     C_3   0.398950 0.419243 0.071883 -0.021529
C40   C     C_R   0.880282 0.431352 0.638343 0.589582
C41   C     C_R   0.877123 0.344171 0.414045 0.559366
C42   C     C_R   0.937152 0.331864 0.414812 -0.014963
C43   C     C_R   0.969309 0.370449 0.531178 -0.062539
C44   C     C_R   0.940792 0.414188 0.648804 -0.165214
H1    H     H_    0.941674 0.255736 0.210328 0.223135
H2    H     H_    0.662952 0.316763 0.630751 0.165743
H3    H     H_    0.766387 0.269751 0.636875 0.172771
H4    H     H_    0.484764 0.110677 0.277242 0.189577
H5    H     H_    0.485520 0.884284 0.278129 0.182816
H6    H     H_    0.484706 0.891587 0.832831 0.226203
H7    H     H_    0.555271 0.902015 0.740097 0.233596
H8    H     H_    0.479305 0.115723 0.831701 0.219534
H9    H     H_    0.550995 0.123496 0.744379 0.216950
H10   H     H_    0.571123 0.623454 0.132953 0.190540
H11   H     H_    0.046689 0.256408 0.204352 0.207766
H12   H     H_    0.381037 0.506320 0.874103 0.220076
H13   H     H_    0.381986 0.330958 0.870245 0.220658
H14   H     H_    0.381044 0.506256 0.116181 0.208254
H15   H     H_    0.060746 0.470400 0.848997 0.239477
H16   H     H_    0.196390 0.593127 0.407056 0.188313
H17   H     H_    0.339331 0.294828 0.593126 0.164727
H18   H     H_    0.235359 0.243173 0.596659 0.164352
N1    N     N_R   0.850708 0.398289 0.522000 -0.360755
N2    N     N_R   0.149534 0.389119 0.512131 -0.354973
N3    N     N_R   0.499610 0.499140 0.142800 -0.133024
N4    N     N_R   0.499610 0.499180 0.857150 -0.124356
O1    O     O_R   0.500010 0.316790 0.614690 -0.625094
O2    O     O_2   0.845319 0.306518 0.304734 -0.500544
O3    O     O_2   0.146938 0.310563 0.288723 -0.504286
O4    O     O_2   0.155557 0.460886 0.738022 -0.521267
O5    O     O_R   0.500000 0.316760 0.385350 -0.612641
O6    O     O_R   0.416160 0.499980 0.614700 -0.630021
O7    O     O_R   0.416150 0.499940 0.385360 -0.578649
O8    O     O_R   0.500000 0.683240 0.614650 -0.605041
O9    O     O_R   0.499990 0.683210 0.385310 -0.611876
O10   O     O_R   0.583850 0.500060 0.614640 -0.589681
O11   O     O_R   0.583840 0.500020 0.385300 -0.603255
O12   O     O_2   0.850957 0.485421 0.739760 -0.435890
Zn1   Zn    Zn3+2 0.500000 0.500020 0.653130 0.981613
Zn2   Zn    Zn3+2 0.500000 0.499980 0.346870 1.006418
I1    I     I_    0.680555 0.719632 0.331370 -0.264097
I2    I     I_    0.607372 0.676804 0.847989 -0.287348
I3    I     I_    0.365847 0.249095 0.156056 -0.262433
S1    S     S_3+6 0.944855 0.477379 0.929389 0.075496
O13   O     O_2   0.899392 0.380531 0.962261 -0.243166
O14   O     O_2   0.991337 0.476391 0.037828 -0.318901
O15   O     O_3   0.914951 0.620264 0.927007 -0.466938
H19   H     H_    0.896372 0.629501 0.016320 0.405163
S2    S     S_3+6 0.309352 0.709804 0.386195 0.048261
O16   O     O_2   0.342248 0.695036 0.257020 -0.267653
O17   O     O_2   0.257755 0.791245 0.360208 -0.251341
O18   O     O_3   0.353077 0.779570 0.502918 -0.562608
H20   H     H_    0.330514 0.779413 0.587497 0.351827
I4    I     I_    0.833537 0.649372 0.343669 -0.175334

loop_
_geom_bond_atom_site_label_1
_geom_bond_atom_site_label_2
_ccdc_geom_bond_type
C27   H4    S    
O15   H19   S    
C9    N2    A    
C41   C42   A    
C19   C20   A    
O10   Zn1   S    
C33   N3    A    
C7    C8    A    
N4    Zn1   S    
C26   C27   A    
C1    O5    A    
C40   N1    A    
C18   C24   A    
C5    C6    A    
C23   C29   S    
C28   C29   A    
C9    O3    S    
O6    Zn1   S    
C17   N2    S    
C30   C31   S    
C36   N4    A    
C35   N3    A    
C15   C16   A    
C18   C19   A    
C32   H8    S    
C3    H11   S    
C35   C36   A    
C36   I2    S    
C16   C17   A    
S1    O15   S    
C13   C14   A    
S2    O17   D    
C29   C30   A    
O9    Zn2   S    
C20   C34   S    
C25   C32   S    
C22   H3    S    
C5    C43   A    
N3    Zn2   S    
C12   O7    A    
C35   H10   S    
C16   H18   S    
C7    H15   S    
O5    Zn2   S    
C41   O2    S    
C2    H1    S    
O1    Zn1   S    
S1    O13   D    
C31   H7    S    
C25   C26   A    
C39   H14   S    
C33   C37   A    
C43   C44   A    
C37   C38   S    
C38   H13   S    
C28   H5    S    
C31   C32   S    
C37   N4    A    
C15   H17   S    
C33   C39   S    
S2    O18   S    
C10   O4    S    
C12   C14   S    
C24   N1    S    
O8    Zn1   S    
C1    C26   S    
C18   I4    S    
C22   C24   A    
C42   C43   A    
C41   N1    A    
C31   H6    S    
C11   H16   S    
C32   H9    S    
C21   H2    S    
O11   Zn2   S    
C25   C30   A    
C11   C17   A    
C13   S2    S    
C8    S1    S    
C10   N2    A    
C8    C44   A    
C23   O9    A    
C4    C5    A    
C6    C10   A    
C6    C7    A    
C2    C3    A    
C4    C9    A    
C39   I3    S    
C34   O11   A    
C19   I1    S    
C11   C13   A    
C38   C39   S    
C2    C42   A    
O18   H20   S    
C1    O1    A    
O7    Zn2   S    
C40   O12   S    
C12   O6    A    
C40   C44   A    
C38   H12   S    
C20   C21   A    
C27   C28   A    
C14   C15   A    
S1    O14   D    
C23   O8    A    
S2    O16   D    
C21   C22   A    
C3    C4    A    
C34   O10   A    
