data_mof_unit_33879.cif
_audit_creation_date              2012-12-11T18:11:26-0500
_audit_creation_method            fapswitch 2.2
_symmetry_space_group_name_H-M    P1
_symmetry_Int_Tables_number       1
_space_group_crystal_system       triclinic
_cell_length_a                    8.339746
_cell_length_b                    12.835971
_cell_length_c                    18.626617
_cell_angle_alpha                 99.941749
_cell_angle_beta                  90.785936
_cell_angle_gamma                 99.011078
_cell_volume                      1938.0712889

loop_
_atom_site_label
_atom_site_type_symbol
_atom_type_description
_atom_site_fract_x
_atom_site_fract_y
_atom_site_fract_z
_atom_type_partial_charge
Ba1   Ba    Ba6+2 0.852780 0.548340 0.465070 1.658825
Ba2   Ba    Ba6+2 0.337060 0.451750 0.534940 1.656489
C1    C     C_3   0.562762 0.867261 0.203124 -0.328900
C2    C     C_R   0.895619 0.391097 0.096414 -0.081331
C3    C     C_R   0.761032 0.425997 0.957220 -0.065426
C4    C     C_3   0.092673 0.749570 0.268065 0.287908
C5    C     C_R   0.927025 0.458411 0.978892 0.039499
C6    C     C_R   0.703069 0.431046 0.887706 -0.069361
C7    C     C_R   0.807582 0.468564 0.836235 -0.026551
C8    C     C_R   0.971538 0.511328 0.858330 -0.007710
C9    C     C_R   0.031538 0.506602 0.929965 0.031226
C10   C     C_R   0.754542 0.461093 0.762655 0.066341
C11   C     C_R   0.864768 0.496594 0.712743 -0.255958
C12   C     C_3   0.542646 0.779017 0.249193 0.310569
C13   C     C_R   0.022520 0.548341 0.734478 0.022726
C14   C     C_R   0.076215 0.557308 0.808511 -0.051597
C15   C     C_R   0.155209 0.487952 0.069552 0.026513
C16   C     C_3   0.107679 0.763630 0.188241 -0.190335
C17   C     C_R   0.215636 0.482892 0.141034 0.002654
C18   C     C_R   0.110957 0.438772 0.191379 -0.042057
C19   C     C_R   0.955404 0.386266 0.165755 -0.022638
C20   C     C_R   0.231290 0.609994 0.834483 -0.018883
C21   C     C_R   0.290852 0.604618 0.903698 -0.090909
C22   C     C_R   0.196346 0.548296 0.951450 0.008718
C23   C     C_3   0.458359 0.267034 0.314914 0.302342
C24   C     C_R   0.259786 0.535753 0.020527 0.016657
C25   C     C_R   0.426252 0.566649 0.041693 -0.105156
C26   C     C_R   0.380187 0.523478 0.162587 -0.039959
C27   C     C_R   0.484794 0.560191 0.110826 -0.092456
C28   C     C_3   0.196328 0.796413 0.626308 0.411560
C29   C     C_R   0.433700 0.530181 0.236135 -0.014236
C30   C     C_R   0.325188 0.495723 0.286372 -0.300543
C31   C     C_R   0.165995 0.448592 0.265374 0.054531
C32   C     C_R   0.766150 0.182449 0.530442 -0.192999
C33   C     C_R   0.430181 0.809728 0.475021 -0.276541
C34   C     C_3   0.437040 0.227105 0.233063 -0.392487
C35   C     C_R   0.401624 0.985318 0.452761 -0.098854
C36   C     C_R   0.339647 0.877011 0.447670 -0.011762
C37   C     C_R   0.577469 0.850644 0.513715 0.061439
C38   C     C_R   0.639687 0.963111 0.522891 -0.046605
C39   C     C_R   0.551511 0.030365 0.489697 -0.063607
C40   C     C_3   0.131612 0.899326 0.654251 0.306416
C41   C     C_R   0.616931 0.140218 0.493082 0.017495
C42   C     C_R   0.854633 0.118434 0.563602 0.087363
C43   C     C_R   0.789696 0.009565 0.560642 -0.074323
C44   C     C_3   0.959061 0.210982 0.377123 0.247281
C45   C     C_3   0.087548 0.252910 0.745492 0.296160
C46   C     C_3   0.003485 0.099434 0.363453 0.233967
C47   C     C_3   0.703778 0.696297 0.682197 0.374234
C48   C     C_3   0.676330 0.719131 0.763760 -0.348921
C49   C     C_3   0.960890 0.963536 0.742973 0.234045
C50   C     C_3   0.787271 0.962416 0.357845 0.219799
C51   C     C_2   0.911355 0.243728 0.757078 0.735118
C52   C     C_2   0.484026 0.040527 0.773909 0.899216
C53   C     C_2   0.992073 0.830367 0.164372 0.919770
C54   C     C_3   0.172840 0.254613 0.819433 -0.289643
C55   C     C_3   0.499766 0.176662 0.685611 0.339064
C56   C     C_3   0.542317 0.070852 0.702975 -0.181589
C57   C     C_R   0.990216 0.446640 0.048255 0.015445
H1    H     H_    0.523058 0.812660 0.306705 -0.039699
H2    H     H_    0.684795 0.916444 0.211918 0.116297
H3    H     H_    0.784607 0.769450 0.793865 0.115438
H4    H     H_    0.652112 0.643913 0.785803 0.028078
H5    H     H_    0.568202 0.758835 0.773817 0.170131
H6    H     H_    0.431209 0.724232 0.227418 -0.016788
H7    H     H_    0.471459 0.920924 0.217585 0.088246
H8    H     H_    0.339866 0.285523 0.335602 0.018149
H9    H     H_    0.550771 0.341003 0.324689 0.055193
H10   H     H_    0.344335 0.153440 0.221559 0.149465
H11   H     H_    0.396490 0.289307 0.205734 0.061926
H12   H     H_    0.228380 0.954422 0.689071 0.011279
H13   H     H_    0.554240 0.208856 0.210618 0.118090
H14   H     H_    0.545537 0.831110 0.144342 0.137453
H15   H     H_    0.232108 0.801055 0.178690 0.039918
H16   H     H_    0.132238 0.330443 0.728227 0.060574
H17   H     H_    0.304391 0.276854 0.818899 0.185386
H18   H     H_    0.134025 0.316651 0.861792 0.073418
H19   H     H_    0.142859 0.176245 0.837479 0.162815
H20   H     H_    0.575869 0.197611 0.640782 0.041891
H21   H     H_    0.375687 0.162387 0.663716 0.095774
H22   H     H_    0.675158 0.074722 0.703775 0.063322
H23   H     H_    0.104202 0.936910 0.607347 -0.002019
H24   H     H_    0.493320 0.004823 0.657797 -0.032807
H25   H     H_    0.970560 0.706469 0.275087 0.118517
H26   H     H_    0.825369 0.485718 0.655968 0.062627
H27   H     H_    0.575195 0.403179 0.874619 0.094469
H28   H     H_    0.876188 0.341536 0.198989 0.101085
H29   H     H_    0.310229 0.655241 0.801572 0.102362
H30   H     H_    0.613317 0.586004 0.123368 0.137999
H31   H     H_    0.366552 0.504372 0.342751 0.068680
H32   H     H_    0.671367 0.396690 0.993121 0.067272
H33   H     H_    0.774255 0.348989 0.081882 0.063610
H34   H     H_    0.826507 0.206097 0.382082 0.020628
H35   H     H_    0.411876 0.647143 0.918589 0.064162
H36   H     H_    0.183349 0.698692 0.279011 -0.047147
H37   H     H_    0.515895 0.595148 0.005485 0.085645
H38   H     H_    0.330533 0.033173 0.427661 0.110353
H39   H     H_    0.857589 0.961366 0.586563 0.093247
H40   H     H_    0.816504 0.265750 0.531636 0.047340
H41   H     H_    0.381136 0.725352 0.469341 0.065268
H42   H     H_    0.085292 0.682876 0.153471 0.031399
H43   H     H_    0.320151 0.816622 0.607081 -0.145718
H44   H     H_    0.117040 0.749741 0.580010 0.035911
H45   H     H_    0.022590 0.255456 0.428783 0.047697
H46   H     H_    0.918434 0.021624 0.713201 0.051856
H47   H     H_    0.067801 0.999625 0.780163 0.067798
H48   H     H_    0.860436 0.938869 0.777614 0.101106
H49   H     H_    0.843409 0.914702 0.312504 0.104894
H50   H     H_    0.696420 0.006358 0.337525 0.004279
H51   H     H_    0.724619 0.903351 0.388796 0.075372
H52   H     H_    0.725090 0.215504 0.824045 0.340955
H53   H     H_    0.481870 0.935416 0.842793 0.303974
H54   H     H_    0.941689 0.978834 0.163824 0.293369
H55   H     H_    0.998705 0.067800 0.303716 0.093704
H56   H     H_    0.131601 0.104471 0.381269 0.077890
H57   H     H_    0.828238 0.678789 0.673126 -0.002131
H58   H     H_    0.614442 0.624805 0.658946 0.056980
O1    O     O_2   0.873090 0.425890 0.325140 -0.463767
O2    O     O_2   0.187489 0.123539 0.554824 -0.501006
O3    O     O_3   0.115666 0.164650 0.692786 -0.661788
O4    O     O_3   0.122420 0.434370 0.414380 -0.494665
O5    O     O_3   0.578370 0.633800 0.536380 -0.499221
O6    O     O_2   0.341510 0.231850 0.465510 -0.478211
O7    O     O_3   0.509549 0.186964 0.348101 -0.646432
O8    O     O_2   0.411783 0.443001 0.758128 -0.527331
O9    O     O_3   0.519415 0.258365 0.747988 -0.598163
O10   O     O_3   0.659500 0.627100 0.368810 -0.474730
O11   O     O_2   0.770197 0.542469 0.242582 -0.501345
O12   O     O_3   0.684993 0.786651 0.651714 -0.588454
O13   O     O_3   0.002021 0.255736 0.315736 -0.676018
O14   O     O_3   0.681030 0.727949 0.244727 -0.597080
O15   O     O_2   0.848200 0.768190 0.534530 -0.475907
O16   O     O_3   0.081160 0.685950 0.404810 -0.497928
O17   O     O_2   0.008625 0.877469 0.449829 -0.438981
O18   O     O_3   0.991252 0.873686 0.693436 -0.649762
O19   O     O_3   0.905468 0.033684 0.404101 -0.652377
O20   O     O_2   0.825561 0.259857 0.708616 -0.698358
O21   O     O_R   0.845709 0.215665 0.821336 -0.779268
O22   O     O_2   0.400217 0.093991 0.813259 -0.626606
O23   O     O_3   0.118095 0.848410 0.316493 -0.609213
O24   O     O_R   0.527485 0.949034 0.794477 -0.768337
O25   O     O_2   0.877061 0.788165 0.122415 -0.617326
O26   O     O_R   0.022667 0.941461 0.186447 -0.768007
O27   O     O_2   0.316610 0.574140 0.674900 -0.472498
O28   O     O_3   0.067290 0.565720 0.585630 -0.507750
O29   O     O_3   0.530210 0.372990 0.631200 -0.477399
O30   O     O_3   0.206587 0.744320 0.685791 -0.614899
O31   O     O_3   0.611340 0.366290 0.463630 -0.479358
O32   O     O_3   0.108550 0.314140 0.595200 -0.469565
P1    P     P_3+3 0.041040 0.394770 0.336330 0.965303
P2    P     P_3+3 0.672880 0.754030 0.556100 1.007413
P3    P     P_3+3 0.137053 0.822667 0.405773 0.957097
P4    P     P_3+3 0.148670 0.605320 0.663680 0.988090
P5    P     P_3+3 0.063529 0.178628 0.602431 0.963826
P6    P     P_3+3 0.634014 0.603882 0.273450 0.931013
P7    P     P_3+3 0.522591 0.229849 0.442770 0.928842
P8    P     P_3+3 0.552454 0.387445 0.725231 0.971154

loop_
_geom_bond_atom_site_label_1
_geom_bond_atom_site_label_2
_ccdc_geom_bond_type
C19   H28   S    
C54   H17   S    
C25   C27   A    
Ba2   O27   S    
C55   H20   S    
Ba1   O28   S    
C17   C18   A    
C23   H8    S    
Ba1   O15   S    
C35   H38   S    
C28   O30   S    
O29   P8    S    
Ba2   O6    S    
C42   C43   A    
Ba2   O28   S    
C5    C9    A    
C23   H9    S    
C24   C25   A    
C51   O20   D    
C48   H5    S    
C26   C27   A    
C22   C24   A    
O12   P2    S    
C43   H39   S    
O8    P8    D    
Ba2   O4    S    
Ba2   O31   S    
C13   C14   A    
C37   P2    S    
C9    C22   A    
C54   H19   S    
O4    P1    S    
Ba1   Ba2   S    
C5    C57   A    
O27   P4    D    
O1    P1    D    
Ba1   O5    S    
O11   P6    D    
C49   O18   S    
C47   H58   S    
C29   C30   A    
C6    C7    A    
C40   H23   S    
C28   H44   S    
O13   P1    S    
C21   C22   A    
C20   H29   S    
C10   P8    S    
C7    C8    A    
O23   P3    S    
O6    P7    D    
O28   P4    S    
Ba2   O32   S    
C1    H2    S    
O30   P4    S    
C16   H15   S    
C53   O25   D    
C4    O23   S    
C48   H4    S    
C39   C41   A    
C55   H21   S    
C25   H37   S    
O16   P3    S    
Ba1   O16   S    
C36   P3    S    
C7    C10   A    
C34   H11   S    
C47   H57   S    
C12   O14   S    
Ba2   O5    S    
C38   C43   A    
C4    C16   S    
C44   C46   S    
C4    H25   S    
C51   O21   S    
C33   C36   A    
C53   O26   S    
C56   H22   S    
O10   P6    S    
C37   C38   A    
C3    C5    A    
C27   H30   S    
O2    P5    D    
C47   O12   S    
C54   H18   S    
H54   O26   S    
C40   O18   S    
C16   H42   S    
H53   O24   S    
C33   C37   A    
O32   P5    S    
C35   C36   A    
C52   O22   D    
C50   H51   S    
C49   H46   S    
O17   P3    D    
C28   H43   S    
O3    P5    S    
C32   H40   S    
C32   C42   A    
Ba1   P1    S    
C10   C11   A    
C17   C26   A    
C3    H32   S    
C1    C12   S    
C16   C53   S    
C15   C57   A    
C46   H56   S    
C18   C31   A    
C45   O3    S    
C30   H31   S    
C4    H36   S    
Ba2   P4    S    
O7    P7    S    
C48   H3    S    
C1    H7    S    
C15   C24   A    
C33   H41   S    
C55   O9    S    
C34   H10   S    
C46   H55   S    
C52   C56   S    
O9    P8    S    
C38   C39   A    
C14   C20   A    
C46   O19   S    
C26   C29   A    
C32   C41   A    
Ba1   O10   S    
C44   O13   S    
C3    C6    A    
C29   P6    S    
Ba2   O29   S    
C12   H1    S    
C21   H35   S    
C45   C51   S    
C31   P1    S    
C42   P5    S    
C30   C31   A    
C11   C13   A    
C45   H16   S    
C8    C14   A    
C56   H24   S    
O5    P2    S    
C2    C19   A    
C55   C56   S    
C44   H34   S    
C44   H45   S    
C50   H50   S    
C49   H47   S    
C50   O19   S    
C2    C57   A    
O14   P6    S    
C40   H12   S    
C15   C17   A    
C12   H6    S    
Ba1   P2    S    
C6    H27   S    
Ba1   O1    S    
C35   C39   A    
C1    H14   S    
C23   O7    S    
Ba1   O4    S    
C13   P4    S    
C8    C9    A    
C23   C34   S    
C34   H13   S    
C52   O24   S    
C18   C19   A    
C50   H49   S    
C49   H48   S    
C47   C48   S    
C11   H26   S    
O15   P2    D    
C20   C21   A    
C28   C40   S    
Ba1   O31   S    
O31   P7    S    
C41   P7    S    
H52   O21   S    
C45   C54   S    
C2    H33   S    
