data_mof_unit_65145.cif
_audit_creation_date              2013-03-05T16:25:06-0500
_audit_creation_method            fapswitch 2.2
_symmetry_space_group_name_H-M    P1
_symmetry_Int_Tables_number       1
_space_group_crystal_system       triclinic
_cell_length_a                    30.485803
_cell_length_b                    30.485803
_cell_length_c                    39.768198
_cell_angle_alpha                 90.000122
_cell_angle_beta                  90.000125
_cell_angle_gamma                 90.000066
_cell_volume                      36959.9342692

loop_
_atom_site_label
_atom_site_type_symbol
_atom_site_description
_atom_site_fract_x
_atom_site_fract_y
_atom_site_fract_z
_atom_type_partial_charge
Zn1   Zn    Zn3+2 0.448060 0.000000 0.278050 1.008933
Zn2   Zn    Zn3+2 0.551940 0.000000 0.721950 1.008904
Zn3   Zn    Zn3+2 1.000000 0.551940 0.278050 1.008942
Zn4   Zn    Zn3+2 1.000000 0.448060 0.721950 1.008906
Zn5   Zn    Zn3+2 0.551940 0.000000 0.278050 1.008943
Zn6   Zn    Zn3+2 0.448060 0.000000 0.721950 1.008945
Zn7   Zn    Zn3+2 1.000000 0.448060 0.278050 1.008933
Zn8   Zn    Zn3+2 1.000000 0.551940 0.721950 1.008961
Zn9   Zn    Zn3+2 0.948060 0.500000 0.778050 1.008961
Zn10  Zn    Zn3+2 0.051940 0.500000 0.221950 1.008933
Zn11  Zn    Zn3+2 0.500000 0.051940 0.778050 1.008945
Zn12  Zn    Zn3+2 0.500000 0.948060 0.221950 1.008943
Zn13  Zn    Zn3+2 0.051940 0.500000 0.778050 1.008905
Zn14  Zn    Zn3+2 0.948060 0.500000 0.221950 1.008942
Zn15  Zn    Zn3+2 0.500000 0.948060 0.778050 1.008905
Zn16  Zn    Zn3+2 0.500000 0.051940 0.221950 1.008933
O1    O     O_3   0.500000 0.000000 0.250000 -0.492172
O2    O     O_3   0.500000 0.000000 0.750000 -0.492144
O3    O     O_3   1.000000 0.500000 0.250000 -0.492172
O4    O     O_3   1.000000 0.500000 0.750000 -0.492192
O5    O     O_R   0.500000 0.036360 0.175210 -0.638975
O6    O     O_R   0.500000 0.963640 0.824790 -0.638926
O7    O     O_R   0.036360 0.500000 0.175210 -0.638975
O8    O     O_R   0.963640 0.500000 0.824790 -0.638900
O9    O     O_R   0.500000 0.963640 0.175210 -0.638973
O10   O     O_R   0.500000 0.036360 0.824790 -0.638984
O11   O     O_R   0.963640 0.500000 0.175210 -0.638973
O12   O     O_R   0.036360 0.500000 0.824790 -0.638991
O13   O     O_R   1.000000 0.536360 0.675210 -0.638900
O14   O     O_R   1.000000 0.463640 0.324790 -0.638975
O15   O     O_R   0.536360 0.000000 0.675210 -0.638927
O16   O     O_R   0.463640 0.000000 0.324790 -0.638975
O17   O     O_R   1.000000 0.463640 0.675210 -0.638991
O18   O     O_R   1.000000 0.536360 0.324790 -0.638973
O19   O     O_R   0.463640 0.000000 0.675210 -0.638984
O20   O     O_R   0.536360 0.000000 0.324790 -0.638973
O21   O     O_R   0.448850 0.912530 0.230420 -0.639287
O22   O     O_R   0.551150 0.087470 0.769580 -0.637552
O23   O     O_R   0.912530 0.551150 0.230420 -0.639284
O24   O     O_R   0.087470 0.448850 0.769580 -0.637564
O25   O     O_R   0.551150 0.087470 0.230420 -0.639286
O26   O     O_R   0.448850 0.912530 0.769580 -0.637635
O27   O     O_R   0.087470 0.448850 0.230420 -0.639287
O28   O     O_R   0.912530 0.551150 0.769580 -0.637438
O29   O     O_R   0.448850 0.087470 0.769580 -0.639292
O30   O     O_R   0.551150 0.912530 0.230420 -0.637560
O31   O     O_R   0.912530 0.448850 0.769580 -0.639339
O32   O     O_R   0.087470 0.551150 0.230420 -0.637563
O33   O     O_R   0.551150 0.912530 0.769580 -0.639402
O34   O     O_R   0.448850 0.087470 0.230420 -0.637565
O35   O     O_R   0.087470 0.551150 0.769580 -0.639279
O36   O     O_R   0.912530 0.448850 0.230420 -0.637563
O37   O     O_R   0.948850 0.412530 0.730420 -0.639278
O38   O     O_R   0.051150 0.587470 0.269580 -0.637563
O39   O     O_R   0.412530 0.051150 0.730420 -0.639292
O40   O     O_R   0.587470 0.948850 0.269580 -0.637560
O41   O     O_R   0.051150 0.587470 0.730420 -0.639341
O42   O     O_R   0.948850 0.412530 0.269580 -0.637563
O43   O     O_R   0.587470 0.948850 0.730420 -0.639402
O44   O     O_R   0.412530 0.051150 0.269580 -0.637564
O45   O     O_R   0.948850 0.587470 0.269580 -0.639284
O46   O     O_R   0.051150 0.412530 0.730420 -0.637563
O47   O     O_R   0.412530 0.948850 0.269580 -0.639286
O48   O     O_R   0.587470 0.051150 0.730420 -0.637637
O49   O     O_R   0.051150 0.412530 0.269580 -0.639288
O50   O     O_R   0.948850 0.587470 0.730420 -0.637440
O51   O     O_R   0.587470 0.051150 0.269580 -0.639286
O52   O     O_R   0.412530 0.948850 0.730420 -0.637551
C1    C     C_R   0.500000 1.000000 0.159038 0.859899
C2    C     C_R   0.500000 0.000000 0.840962 0.859959
C3    C     C_R   1.000000 0.500000 0.159038 0.859899
C4    C     C_R   0.000000 0.500000 0.840962 0.859912
C5    C     C_R   1.000000 0.500000 0.659038 0.859912
C6    C     C_R   0.000000 0.500000 0.340962 0.859899
C7    C     C_R   0.500000 0.000000 0.659038 0.859959
C8    C     C_R   0.500000 0.000000 0.340962 0.859899
C9    C     C_R   0.415785 0.915784 0.250000 0.817500
C10   C     C_R   0.584216 0.084216 0.750000 0.819632
C11   C     C_R   0.915784 0.584215 0.250000 0.817508
C12   C     C_R   0.084216 0.415784 0.750000 0.819661
C13   C     C_R   0.584215 0.084215 0.250000 0.817500
C14   C     C_R   0.415784 0.915784 0.750000 0.819630
C15   C     C_R   0.084215 0.415785 0.250000 0.817496
C16   C     C_R   0.915786 0.584214 0.750000 0.819443
C17   C     C_R   0.415785 0.084215 0.750000 0.817482
C18   C     C_R   0.584216 0.915784 0.250000 0.819666
C19   C     C_R   0.915785 0.415785 0.750000 0.817433
C20   C     C_R   0.084216 0.584216 0.250000 0.819658
C21   C     C_R   0.584218 0.915782 0.750000 0.817702
C22   C     C_R   0.415784 0.084216 0.250000 0.819653
C23   C     C_R   0.084215 0.584215 0.750000 0.817435
C24   C     C_R   0.915784 0.415784 0.250000 0.819657
C25   C     C_R   0.120214 0.350661 0.276111 -0.158229
C26   C     C_R   0.840890 0.610428 0.765320 -0.155497
C27   C     C_R   0.379786 0.850661 0.223889 -0.158226
C28   C     C_R   0.658934 0.110621 0.734341 -0.155596
C29   C     C_R   0.879786 0.649339 0.276111 -0.158213
C30   C     C_R   0.158932 0.389376 0.765663 -0.155495
C31   C     C_R   0.620214 0.149339 0.223889 -0.158223
C32   C     C_R   0.341064 0.889381 0.734345 -0.155491
C33   C     C_R   0.149342 0.620211 0.776109 -0.158253
C34   C     C_R   0.889379 0.341065 0.265658 -0.155482
C35   C     C_R   0.350665 0.120218 0.723886 -0.158242
C36   C     C_R   0.610621 0.841065 0.234342 -0.155468
C37   C     C_R   0.850661 0.379786 0.776111 -0.158323
C38   C     C_R   0.110621 0.658934 0.265658 -0.155479
C39   C     C_R   0.649664 0.880092 0.724099 -0.158206
C40   C     C_R   0.389379 0.158935 0.234342 -0.155486
C41   C     C_R   0.619907 0.850336 0.775901 -0.158206
C42   C     C_R   0.341065 0.110621 0.265658 -0.155485
C43   C     C_R   0.879786 0.350661 0.723889 -0.158253
C44   C     C_R   0.158934 0.610621 0.234342 -0.155482
C45   C     C_R   0.379782 0.149335 0.776114 -0.158241
C46   C     C_R   0.658935 0.889379 0.265658 -0.155468
C47   C     C_R   0.120211 0.649342 0.723891 -0.158323
C48   C     C_R   0.841065 0.389379 0.234342 -0.155480
C49   C     C_R   0.649339 0.120214 0.276111 -0.158227
C50   C     C_R   0.389381 0.841064 0.765655 -0.155597
C51   C     C_R   0.850661 0.620214 0.223889 -0.158212
C52   C     C_R   0.110624 0.341068 0.734337 -0.155494
C53   C     C_R   0.350661 0.879786 0.276111 -0.158224
C54   C     C_R   0.610621 0.158934 0.765658 -0.155490
C55   C     C_R   0.149339 0.379786 0.223889 -0.158229
C56   C     C_R   0.889572 0.659110 0.734680 -0.155498
H1    H     H_    0.096798 0.351489 0.296581 0.175753
H2    H     H_    0.833935 0.579222 0.777192 0.176060
H3    H     H_    0.403202 0.851489 0.203419 0.175756
H4    H     H_    0.665749 0.079563 0.722198 0.176167
H5    H     H_    0.903202 0.648511 0.296581 0.175763
H6    H     H_    0.165745 0.420432 0.777810 0.176270
H7    H     H_    0.596798 0.148511 0.203420 0.175756
H8    H     H_    0.334248 0.920440 0.722204 0.176263
H9    H     H_    0.148516 0.596793 0.796577 0.175751
H10   H     H_    0.920437 0.334250 0.277801 0.176274
H11   H     H_    0.351497 0.096806 0.703414 0.175747
H12   H     H_    0.579563 0.834250 0.222199 0.176279
H13   H     H_    0.851489 0.403201 0.796581 0.175756
H14   H     H_    0.079563 0.665749 0.277801 0.176277
H15   H     H_    0.649093 0.903757 0.703793 0.175937
H16   H     H_    0.420437 0.165749 0.222199 0.176274
H17   H     H_    0.596243 0.850907 0.796207 0.175937
H18   H     H_    0.334251 0.079563 0.277801 0.176274
H19   H     H_    0.903201 0.351489 0.703419 0.175749
H20   H     H_    0.165749 0.579563 0.222199 0.176274
H21   H     H_    0.403194 0.148503 0.796586 0.175747
H22   H     H_    0.665749 0.920437 0.277801 0.176279
H23   H     H_    0.096793 0.648516 0.703423 0.175758
H24   H     H_    0.834250 0.420437 0.222199 0.176277
H25   H     H_    0.648512 0.096798 0.296580 0.175756
H26   H     H_    0.420440 0.834248 0.777796 0.176165
H27   H     H_    0.851489 0.596798 0.203419 0.175763
H28   H     H_    0.079568 0.334255 0.722190 0.176271
H29   H     H_    0.351489 0.903202 0.296581 0.175756
H30   H     H_    0.579563 0.165749 0.777802 0.176265
H31   H     H_    0.148511 0.403202 0.203419 0.175754
H32   H     H_    0.920778 0.666065 0.722808 0.176059
C57   C     C_R   0.152735 0.318498 0.276201 -0.049684
C58   C     C_R   0.808462 0.642684 0.765114 -0.048919
C59   C     C_R   0.347265 0.818498 0.223798 -0.049682
C60   C     C_R   0.691358 0.142880 0.734536 -0.049150
C61   C     C_R   0.847265 0.681502 0.276201 -0.049669
C62   C     C_R   0.191356 0.357117 0.765469 -0.049108
C63   C     C_R   0.652735 0.181502 0.223799 -0.049682
C64   C     C_R   0.308640 0.857121 0.734539 -0.049106
C65   C     C_R   0.181505 0.652732 0.776200 -0.049700
C66   C     C_R   0.857120 0.308641 0.265463 -0.049095
C67   C     C_R   0.318503 0.152739 0.723796 -0.049690
C68   C     C_R   0.642880 0.808641 0.234536 -0.049083
C69   C     C_R   0.818499 0.347265 0.776201 -0.049725
C70   C     C_R   0.142880 0.691358 0.265464 -0.049092
C71   C     C_R   0.681836 0.847583 0.724013 -0.049874
C72   C     C_R   0.357120 0.191358 0.234536 -0.049097
C73   C     C_R   0.652417 0.818164 0.775987 -0.049874
C74   C     C_R   0.308641 0.142880 0.265464 -0.049097
C75   C     C_R   0.847265 0.318498 0.723798 -0.049698
C76   C     C_R   0.191359 0.642880 0.234536 -0.049096
C77   C     C_R   0.347261 0.181497 0.776204 -0.049690
C78   C     C_R   0.691359 0.857120 0.265464 -0.049083
C79   C     C_R   0.152732 0.681505 0.723800 -0.049726
C80   C     C_R   0.808641 0.357120 0.234537 -0.049092
C81   C     C_R   0.681502 0.152735 0.276201 -0.049682
C82   C     C_R   0.357121 0.808640 0.765461 -0.049148
C83   C     C_R   0.818498 0.652735 0.223799 -0.049669
C84   C     C_R   0.142883 0.308644 0.734531 -0.049108
C85   C     C_R   0.318498 0.847265 0.276201 -0.049681
C86   C     C_R   0.642881 0.191358 0.765464 -0.049108
C87   C     C_R   0.181502 0.347265 0.223799 -0.049684
C88   C     C_R   0.857316 0.691538 0.734886 -0.048919
H33   H     H_    0.153973 0.294900 0.296545 0.161958
H34   H     H_    0.777076 0.636137 0.776860 0.161973
H35   H     H_    0.346027 0.794900 0.203455 0.161961
H36   H     H_    0.722596 0.136479 0.722515 0.161953
H37   H     H_    0.846027 0.705100 0.296545 0.161975
H38   H     H_    0.222592 0.363517 0.777493 0.162003
H39   H     H_    0.653973 0.205100 0.203455 0.161961
H40   H     H_    0.277400 0.863524 0.722522 0.161996
H41   H     H_    0.205105 0.653968 0.796542 0.161945
H42   H     H_    0.863522 0.277403 0.277483 0.162014
H43   H     H_    0.294908 0.153981 0.703450 0.161951
H44   H     H_    0.636479 0.777403 0.222516 0.162024
H45   H     H_    0.794900 0.346027 0.796545 0.161944
H46   H     H_    0.136479 0.722597 0.277484 0.162017
H47   H     H_    0.705689 0.846602 0.703836 0.161998
H48   H     H_    0.363521 0.222596 0.222516 0.162013
H49   H     H_    0.653398 0.794311 0.796164 0.161998
H50   H     H_    0.277403 0.136479 0.277484 0.162014
H51   H     H_    0.846027 0.294900 0.703455 0.161945
H52   H     H_    0.222597 0.636479 0.222516 0.162015
H53   H     H_    0.346019 0.205092 0.796550 0.161951
H54   H     H_    0.722597 0.863521 0.277484 0.162024
H55   H     H_    0.153968 0.705105 0.703458 0.161945
H56   H     H_    0.777403 0.363521 0.222517 0.162017
H57   H     H_    0.705100 0.153973 0.296545 0.161961
H58   H     H_    0.363524 0.777400 0.777478 0.161953
H59   H     H_    0.794900 0.653973 0.203455 0.161975
H60   H     H_    0.136483 0.277408 0.722507 0.162003
H61   H     H_    0.294900 0.846027 0.296545 0.161961
H62   H     H_    0.636479 0.222596 0.777484 0.161996
H63   H     H_    0.205100 0.346027 0.203455 0.161958
H64   H     H_    0.863863 0.722924 0.723140 0.161973
C89   C     C_R   0.183346 0.316654 0.250000 0.218998
C90   C     C_R   0.816663 0.683336 0.750000 0.217880
C91   C     C_R   0.316654 0.816654 0.250000 0.218992
C92   C     C_R   0.683347 0.183347 0.750000 0.218057
C93   C     C_R   0.816654 0.683346 0.250000 0.218973
C94   C     C_R   0.183347 0.316653 0.750000 0.218016
C95   C     C_R   0.683346 0.183346 0.250000 0.218992
C96   C     C_R   0.316653 0.816653 0.750000 0.218056
C97   C     C_R   0.183346 0.683346 0.750000 0.219045
C98   C     C_R   0.816653 0.316653 0.250000 0.217993
C99   C     C_R   0.316654 0.183346 0.750000 0.219011
C100  C     C_R   0.683347 0.816653 0.250000 0.217974
C101  C     C_R   0.816654 0.316654 0.750000 0.219044
C102  C     C_R   0.183347 0.683347 0.250000 0.217993
C103  C     C_R   0.683357 0.816643 0.750000 0.219037
C104  C     C_R   0.316653 0.183347 0.250000 0.217999
C105  C     C_R   0.118336 0.381664 0.250000 -0.027125
C106  C     C_R   0.881669 0.618331 0.750000 -0.027859
C107  C     C_R   0.381664 0.881664 0.250000 -0.027127
C108  C     C_R   0.618337 0.118337 0.750000 -0.028043
C109  C     C_R   0.881664 0.618336 0.250000 -0.027138
C110  C     C_R   0.118337 0.381663 0.750000 -0.028099
C111  C     C_R   0.618336 0.118336 0.250000 -0.027127
C112  C     C_R   0.381663 0.881663 0.750000 -0.028041
C113  C     C_R   0.118336 0.618336 0.750000 -0.027121
C114  C     C_R   0.881663 0.381663 0.250000 -0.028102
C115  C     C_R   0.381664 0.118336 0.750000 -0.027116
C116  C     C_R   0.618337 0.881663 0.250000 -0.028108
C117  C     C_R   0.881664 0.381664 0.750000 -0.027119
C118  C     C_R   0.118337 0.618337 0.250000 -0.028102
C119  C     C_R   0.618342 0.881658 0.750000 -0.027342
C120  C     C_R   0.381663 0.118337 0.250000 -0.028100
C121  C     C_R   0.213714 0.246361 0.228068 0.203902
C122  C     C_R   0.785970 0.753292 0.772284 0.203897
C123  C     C_R   0.286286 0.746361 0.271932 0.203901
C124  C     C_R   0.713548 0.253808 0.728249 0.203761
C125  C     C_R   0.786286 0.753639 0.228068 0.203902
C126  C     C_R   0.213541 0.246185 0.771744 0.203765
C127  C     C_R   0.713714 0.253639 0.271932 0.203902
C128  C     C_R   0.286448 0.746197 0.728244 0.203772
C129  C     C_R   0.253635 0.713718 0.728063 0.203896
C130  C     C_R   0.746192 0.286452 0.271752 0.203767
C131  C     C_R   0.246354 0.213707 0.771924 0.203903
C132  C     C_R   0.753808 0.786452 0.228248 0.203768
C133  C     C_R   0.746360 0.286286 0.728068 0.203914
C134  C     C_R   0.253808 0.713548 0.271751 0.203768
C135  C     C_R   0.753152 0.785766 0.772460 0.203767
C136  C     C_R   0.246192 0.213548 0.228248 0.203767
C137  C     C_R   0.714234 0.746847 0.727540 0.203768
C138  C     C_R   0.286452 0.253808 0.271751 0.203767
C139  C     C_R   0.786287 0.246360 0.771931 0.203898
C140  C     C_R   0.213548 0.753808 0.228248 0.203766
C141  C     C_R   0.286293 0.253646 0.728076 0.203903
C142  C     C_R   0.713548 0.746192 0.271752 0.203768
C143  C     C_R   0.213719 0.753635 0.771937 0.203912
C144  C     C_R   0.786451 0.246193 0.228248 0.203768
C145  C     C_R   0.753639 0.213714 0.228068 0.203901
C146  C     C_R   0.246197 0.786448 0.771756 0.203763
C147  C     C_R   0.746361 0.713714 0.271932 0.203902
C148  C     C_R   0.253815 0.286459 0.728256 0.203765
C149  C     C_R   0.246361 0.786286 0.228068 0.203903
C150  C     C_R   0.753808 0.213547 0.771751 0.203770
C151  C     C_R   0.253639 0.286286 0.271932 0.203902
C152  C     C_R   0.746708 0.714030 0.727716 0.203897
C153  C     C_R   0.282548 0.217451 0.250000 -0.263518
C154  C     C_R   0.717465 0.782535 0.750000 -0.263549
C155  C     C_R   0.217451 0.717451 0.250000 -0.263517
C156  C     C_R   0.782550 0.282550 0.750000 -0.263858
C157  C     C_R   0.717451 0.782548 0.250000 -0.263509
C158  C     C_R   0.282550 0.217450 0.750000 -0.263850
C159  C     C_R   0.782548 0.282549 0.250000 -0.263517
C160  C     C_R   0.217450 0.717450 0.750000 -0.263855
C161  C     C_R   0.282549 0.782549 0.750000 -0.263546
C162  C     C_R   0.717450 0.217450 0.250000 -0.263838
C163  C     C_R   0.217452 0.282548 0.750000 -0.263522
C164  C     C_R   0.782550 0.717450 0.250000 -0.263828
C165  C     C_R   0.717452 0.217451 0.750000 -0.263542
C166  C     C_R   0.282550 0.782550 0.250000 -0.263838
C167  C     C_R   0.782563 0.717437 0.750000 -0.263815
C168  C     C_R   0.217450 0.282550 0.250000 -0.263839
C169  C     C_R   0.960096 0.500095 0.068968 0.388308
C170  C     C_R   0.039904 0.500095 0.931032 0.388314
C171  C     C_R   0.500094 0.039904 0.068968 0.388307
C172  C     C_R   0.500092 0.960096 0.931032 0.388325
C173  C     C_R   0.039904 0.499905 0.068968 0.388306
C174  C     C_R   0.960096 0.499904 0.931032 0.388317
C175  C     C_R   0.499905 0.960096 0.068968 0.388311
C176  C     C_R   0.499906 0.039904 0.931032 0.388315
C177  C     C_R   0.460096 0.000094 0.568968 0.388315
C178  C     C_R   0.539904 0.000095 0.431032 0.388311
C179  C     C_R   0.000096 0.539904 0.568968 0.388317
C180  C     C_R   0.000095 0.460096 0.431032 0.388306
C181  C     C_R   0.539904 0.999908 0.568968 0.388325
C182  C     C_R   0.460096 0.999906 0.431032 0.388307
C183  C     C_R   0.999905 0.460096 0.568968 0.388313
C184  C     C_R   0.999905 0.539904 0.431032 0.388308
C185  C     C_R   0.960257 0.500093 0.104087 -0.211076
C186  C     C_R   0.039743 0.500094 0.895913 -0.211098
C187  C     C_R   0.500093 0.039743 0.104087 -0.211082
C188  C     C_R   0.500091 0.960257 0.895913 -0.210972
C189  C     C_R   0.039743 0.499906 0.104087 -0.211083
C190  C     C_R   0.960257 0.499906 0.895913 -0.210970
C191  C     C_R   0.499906 0.960257 0.104087 -0.211076
C192  C     C_R   0.499908 0.039743 0.895913 -0.211088
C193  C     C_R   0.460257 0.000092 0.604087 -0.211087
C194  C     C_R   0.539743 0.000094 0.395913 -0.211076
C195  C     C_R   0.000094 0.539743 0.604087 -0.210969
C196  C     C_R   0.000094 0.460257 0.395913 -0.211083
C197  C     C_R   0.539743 0.999909 0.604087 -0.210974
C198  C     C_R   0.460257 0.999907 0.395913 -0.211082
C199  C     C_R   0.999906 0.460257 0.604087 -0.211099
C200  C     C_R   0.999906 0.539743 0.395913 -0.211076
H65   H     H_    0.929231 0.500169 0.117362 0.208725
H66   H     H_    0.070769 0.500170 0.882638 0.208720
H67   H     H_    0.500169 0.070769 0.117362 0.208721
H68   H     H_    0.500166 0.929231 0.882638 0.208737
H69   H     H_    0.070769 0.499830 0.117362 0.208721
H70   H     H_    0.929231 0.499829 0.882638 0.208778
H71   H     H_    0.499831 0.929231 0.117362 0.208725
H72   H     H_    0.499834 0.070769 0.882638 0.208720
H73   H     H_    0.429231 0.000166 0.617362 0.208720
H74   H     H_    0.570769 0.000169 0.382638 0.208725
H75   H     H_    0.000170 0.570769 0.617362 0.208778
H76   H     H_    0.000170 0.429231 0.382638 0.208721
H77   H     H_    0.570769 0.999834 0.617362 0.208736
H78   H     H_    0.429231 0.999831 0.382638 0.208721
H79   H     H_    0.999830 0.429231 0.617362 0.208720
H80   H     H_    0.999831 0.570769 0.382638 0.208725
C201  C     C_R   0.000000 0.500000 0.121941 -0.145279
C202  C     C_R   1.000000 0.500000 0.878059 -0.145308
C203  C     C_R   0.500000 0.000000 0.121941 -0.145279
C204  C     C_R   0.500000 0.000000 0.878059 -0.145295
C205  C     C_R   0.500000 0.000000 0.621941 -0.145294
C206  C     C_R   0.500000 0.000000 0.378059 -0.145279
C207  C     C_R   0.000000 0.500000 0.621941 -0.145308
C208  C     C_R   1.000000 0.500000 0.378059 -0.145279
C209  C     C_R   0.000000 0.500000 0.051259 -0.102091
C210  C     C_R   0.000000 0.500000 0.948741 -0.102113
C211  C     C_R   0.499999 0.000000 0.051259 -0.102091
C212  C     C_R   0.499999 0.000000 0.948741 -0.102103
C213  C     C_R   0.500000 0.000001 0.551259 -0.102103
C214  C     C_R   0.500000 0.000001 0.448741 -0.102091
C215  C     C_R   0.000000 0.500000 0.551259 -0.102113
C216  C     C_R   1.000000 0.500000 0.448741 -0.102091
C217  C     C_1   1.000000 0.500000 0.015114 0.187138
C218  C     C_1   1.000000 0.500000 0.984886 0.187141
C219  C     C_1   0.499999 0.000000 0.015114 0.187141
C220  C     C_1   0.499999 0.000000 0.984886 0.187147
C221  C     C_1   0.500000 0.000001 0.515114 0.187147
C222  C     C_1   0.500000 0.000001 0.484886 0.187141
C223  C     C_1   0.000000 0.500000 0.515114 0.187141
C224  C     C_1   0.000000 0.500000 0.484886 0.187138
N1    N     N_R   0.177420 0.243321 0.205086 0.246369
O53   O     O_R   0.184380 0.236220 0.173267 -0.275163
O54   O     O_R   0.137314 0.247238 0.215870 -0.329834
N2    N     N_R   0.823218 0.757283 0.794264 0.246541
O55   O     O_R   0.845489 0.793670 0.795303 -0.274250
O56   O     O_R   0.834780 0.724794 0.813544 -0.328693
N3    N     N_R   0.322580 0.743321 0.294914 0.246369
O57   O     O_R   0.315620 0.736220 0.326733 -0.275149
O58   O     O_R   0.362686 0.747238 0.284131 -0.329823
N4    N     N_R   0.675820 0.258281 0.706813 0.246397
O59   O     O_R   0.653502 0.294662 0.706578 -0.274721
O60   O     O_R   0.663845 0.226233 0.687251 -0.328474
N5    N     N_R   0.822580 0.756678 0.205086 0.246370
O61   O     O_R   0.815619 0.763780 0.173267 -0.275096
O62   O     O_R   0.862686 0.752761 0.215869 -0.329818
N6    N     N_R   0.175807 0.241705 0.793172 0.246394
O63   O     O_R   0.153489 0.205325 0.793397 -0.274683
O64   O     O_R   0.163827 0.273748 0.812738 -0.328463
N7    N     N_R   0.677421 0.256678 0.294915 0.246368
O65   O     O_R   0.684382 0.263779 0.326734 -0.275159
O66   O     O_R   0.637315 0.252761 0.284131 -0.329833
N8    N     N_R   0.324171 0.741728 0.706803 0.246386
O67   O     O_R   0.346489 0.705347 0.706560 -0.274774
O68   O     O_R   0.336142 0.773781 0.687244 -0.328479
N9    N     N_R   0.256670 0.677429 0.705077 0.246367
O69   O     O_R   0.263765 0.684396 0.673258 -0.275172
O70   O     O_R   0.252755 0.637321 0.715856 -0.329865
N10   N     N_R   0.741720 0.324179 0.293188 0.246398
O71   O     O_R   0.705339 0.346497 0.293425 -0.274629
O72   O     O_R   0.773770 0.336153 0.312750 -0.328449
N11   N     N_R   0.243307 0.177406 0.794899 0.246369
O73   O     O_R   0.236195 0.184356 0.826718 -0.275172
O74   O     O_R   0.247228 0.137303 0.784109 -0.329869
N12   N     N_R   0.758281 0.824179 0.206813 0.246401
O75   O     O_R   0.794661 0.846497 0.206576 -0.274614
O76   O     O_R   0.726231 0.836154 0.187251 -0.328411
N13   N     N_R   0.743321 0.322581 0.705087 0.246359
O77   O     O_R   0.736218 0.315621 0.673268 -0.275202
O78   O     O_R   0.747238 0.362687 0.715871 -0.330020
N14   N     N_R   0.258281 0.675821 0.293187 0.246398
O79   O     O_R   0.294661 0.653503 0.293424 -0.274633
O80   O     O_R   0.226232 0.663846 0.312749 -0.328452
N15   N     N_R   0.755677 0.821543 0.795949 0.246197
O81   O     O_R   0.762011 0.813870 0.827768 -0.275511
O82   O     O_R   0.752034 0.861885 0.785638 -0.329524
N16   N     N_R   0.241719 0.175820 0.206813 0.246398
O83   O     O_R   0.205338 0.153502 0.206576 -0.274637
O84   O     O_R   0.273768 0.163846 0.187251 -0.328459
N17   N     N_R   0.678457 0.744322 0.704051 0.246197
O85   O     O_R   0.686130 0.737989 0.672232 -0.275512
O86   O     O_R   0.638115 0.747966 0.714362 -0.329526
N18   N     N_R   0.324180 0.258281 0.293187 0.246398
O87   O     O_R   0.346498 0.294662 0.293424 -0.274638
O88   O     O_R   0.336154 0.226232 0.312749 -0.328459
N19   N     N_R   0.822581 0.243320 0.794913 0.246369
O89   O     O_R   0.815621 0.236218 0.826732 -0.275168
O90   O     O_R   0.862687 0.247238 0.784129 -0.329869
N20   N     N_R   0.175820 0.758281 0.206813 0.246399
O91   O     O_R   0.153502 0.794661 0.206576 -0.274629
O92   O     O_R   0.163846 0.726231 0.187251 -0.328449
N21   N     N_R   0.322594 0.256692 0.705101 0.246369
O93   O     O_R   0.315644 0.263805 0.673282 -0.275172
O94   O     O_R   0.362697 0.252772 0.715891 -0.329867
N22   N     N_R   0.675821 0.741719 0.293187 0.246401
O95   O     O_R   0.653503 0.705339 0.293424 -0.274614
O96   O     O_R   0.663846 0.773769 0.312749 -0.328411
N23   N     N_R   0.177429 0.756670 0.794924 0.246359
O97   O     O_R   0.184396 0.763764 0.826743 -0.275206
O98   O     O_R   0.137321 0.752755 0.784144 -0.330018
N24   N     N_R   0.824179 0.241720 0.206812 0.246398
O99   O     O_R   0.846497 0.205339 0.206575 -0.274632
O100  O     O_R   0.836153 0.273769 0.187250 -0.328453
N25   N     N_R   0.756678 0.177421 0.205085 0.246369
O101  O     O_R   0.763779 0.184382 0.173266 -0.275150
O102  O     O_R   0.752761 0.137315 0.215868 -0.329824
N26   N     N_R   0.241728 0.824171 0.793197 0.246399
O103  O     O_R   0.205347 0.846488 0.793441 -0.274718
O104  O     O_R   0.273781 0.836142 0.812757 -0.328477
N27   N     N_R   0.743321 0.677420 0.294914 0.246370
O105  O     O_R   0.736220 0.684381 0.326733 -0.275096
O106  O     O_R   0.747239 0.637314 0.284131 -0.329818
N28   N     N_R   0.258295 0.324193 0.706828 0.246394
O107  O     O_R   0.294675 0.346511 0.706603 -0.274684
O108  O     O_R   0.226252 0.336173 0.687262 -0.328463
N29   N     N_R   0.243321 0.822580 0.205086 0.246368
O109  O     O_R   0.236220 0.815619 0.173267 -0.275158
O110  O     O_R   0.247238 0.862686 0.215870 -0.329833
N30   N     N_R   0.758282 0.175819 0.793186 0.246385
O111  O     O_R   0.794663 0.153501 0.793422 -0.274778
O112  O     O_R   0.726233 0.163844 0.812748 -0.328477
N31   N     N_R   0.256679 0.322580 0.294914 0.246369
O113  O     O_R   0.263780 0.315620 0.326733 -0.275163
O114  O     O_R   0.252762 0.362686 0.284130 -0.329834
N32   N     N_R   0.742717 0.676782 0.705736 0.246541
O115  O     O_R   0.706330 0.654511 0.704697 -0.274250
O116  O     O_R   0.775205 0.665220 0.686456 -0.328694
Cl1   Cl    Cl    0.909262 0.500219 0.047903 -0.457391
Cl2   Cl    Cl    0.090738 0.500220 0.952097 -0.457481
Cl3   Cl    Cl    0.500218 0.090738 0.047903 -0.457468
Cl4   Cl    Cl    0.500213 0.909262 0.952097 -0.457325
Cl5   Cl    Cl    0.090738 0.499781 0.047903 -0.457473
Cl6   Cl    Cl    0.909262 0.499780 0.952097 -0.457269
Cl7   Cl    Cl    0.499781 0.909262 0.047903 -0.457399
Cl8   Cl    Cl    0.499785 0.090738 0.952097 -0.457469
Cl9   Cl    Cl    0.409261 0.000215 0.547903 -0.457467
Cl10  Cl    Cl    0.590738 0.000219 0.452097 -0.457400
Cl11  Cl    Cl    0.000220 0.590738 0.547903 -0.457267
Cl12  Cl    Cl    0.000219 0.409262 0.452097 -0.457473
Cl13  Cl    Cl    0.590738 0.999787 0.547903 -0.457327
Cl14  Cl    Cl    0.409262 0.999782 0.452097 -0.457467
Cl15  Cl    Cl    0.999780 0.409262 0.547903 -0.457482
Cl16  Cl    Cl    0.999781 0.590738 0.452097 -0.457390

loop_
_geom_bond_atom_site_label_1
_geom_bond_atom_site_label_2
_geom_bond_distance
_ccdc_geom_bond_type
C181  C213  1.405673 A    
N19   O89   1.301185 A    
C15   C105  1.471057 S    
C188  H68   1.083200 S    
N29   O109  1.301188 A    
C45   C77   1.394384 A    
C34   C114  1.405302 A    
C75   H51   1.083280 S    
Zn5   O51   1.928277 S    
C172  Cl4   1.761668 S    
C39   C71   1.394371 A    
C197  C205  1.404307 A    
C170  C210  1.405674 A    
C192  C204  1.404306 A    
C173  C189  1.396624 A    
C214  C222  1.437418 S    
N11   O74   1.301185 A    
N9    O70   1.301186 A    
C31   C111  1.405296 A    
C136  C153  1.410981 A    
Zn3   O38   1.928277 S    
C185  C201  1.404306 A    
C178  Cl10  1.761667 S    
C209  C217  1.437418 S    
C172  C212  1.405673 A    
Zn5   O20   1.918491 S    
C148  C163  1.410984 A    
Zn6   O19   1.918491 S    
C211  C219  1.437418 S    
C121  C168  1.410980 A    
C122  C167  1.410992 A    
C133  C156  1.410981 A    
Zn13  O35   1.928277 S    
C134  C155  1.410982 A    
O34   C22   1.277614 A    
Zn14  O36   1.928279 S    
C135  C154  1.411091 A    
N2    O56   1.301192 A    
C170  Cl2   1.761667 S    
C126  N6    1.438104 S    
Zn3   O3    1.936897 S    
C84   C94   1.399918 A    
C183  Cl15  1.761667 S    
C184  C216  1.405671 A    
C190  C202  1.404307 A    
C82   H58   1.083279 S    
Zn3   O45   1.928280 S    
C177  C193  1.396624 A    
C65   C97   1.399917 A    
C63   C95   1.399920 A    
C30   C62   1.394384 A    
C75   C101  1.399918 A    
C72   C104  1.399915 A    
C83   H59   1.083281 S    
C91   C166  1.470348 S    
C122  N2    1.438152 S    
N31   O113  1.301188 A    
C192  H72   1.083200 S    
O44   C22   1.277617 A    
Zn1   O44   1.928278 S    
C180  Cl12  1.761668 S    
C24   C114  1.471077 S    
Zn2   O43   1.928281 S    
C139  C150  1.407491 A    
C187  H67   1.083205 S    
O22   C10   1.277614 A    
Zn3   O18   1.918491 S    
C53   C107  1.405298 A    
C35   C115  1.405298 A    
C179  C215  1.405673 A    
C150  N30   1.438104 S    
C66   H42   1.083280 S    
C78   C100  1.399916 A    
Zn8   O41   1.928275 S    
C68   C100  1.399914 A    
C129  N9    1.438103 S    
C27   C107  1.405295 A    
C51   C109  1.405298 A    
C215  C223  1.437418 S    
C169  C209  1.405674 A    
C49   C111  1.405296 A    
O17   C5    1.281533 A    
C60   C92   1.399917 A    
N30   O112  1.301183 A    
C174  C210  1.405673 A    
Zn7   O3    1.936903 S    
C48   C80   1.394385 A    
N12   O76   1.301186 A    
C210  C218  1.437418 S    
O9    C1    1.281533 A    
C146  N26   1.438103 S    
O11   C3    1.281533 A    
N22   O95   1.301189 A    
C176  C212  1.405671 A    
C196  C208  1.404307 A    
C41   C119  1.405347 A    
Zn13  O4    1.936897 S    
Zn14  O3    1.936901 S    
C68   H44   1.083279 S    
Zn15  O26   1.928277 S    
C149  C166  1.410980 A    
C32   H8    1.082983 S    
C123  C134  1.407491 A    
C33   H9    1.082988 S    
C152  C167  1.410995 A    
C175  Cl7   1.761667 S    
N26   O103  1.301186 A    
C76   H52   1.083278 S    
C217  C218  1.202093 T    
O38   C20   1.277614 A    
C38   C118  1.405300 A    
C22   C120  1.471079 S    
C169  C185  1.396624 A    
C127  N7    1.438106 S    
Zn15  O33   1.928278 S    
N25   O101  1.301185 A    
N20   O92   1.301183 A    
C70   H46   1.083278 S    
N8    O67   1.301189 A    
Zn4   O4    1.936901 S    
N32   O115  1.301256 A    
C85   C91   1.399917 A    
C173  Cl5   1.761668 S    
C74   H50   1.083278 S    
C49   H25   1.082986 S    
C104  C153  1.470354 S    
N13   O77   1.301187 A    
C175  C211  1.405674 A    
N5    O62   1.301187 A    
Zn15  O2    1.936903 S    
Zn11  O2    1.936897 S    
C35   C67   1.394382 A    
Zn16  O5    1.918489 S    
C47   H23   1.082985 S    
C90   C167  1.470191 S    
O27   C15   1.277610 A    
C83   C93   1.399919 A    
C139  C156  1.410981 A    
C71   C103  1.399948 A    
C81   C95   1.399916 A    
N19   O90   1.301186 A    
C69   C101  1.399916 A    
C170  C186  1.396624 A    
C27   C59   1.394383 A    
Zn8   O13   1.918489 S    
O46   C12   1.277616 A    
N14   O79   1.301188 A    
C143  C160  1.410977 A    
C58   H34   1.083295 S    
O14   C6    1.281533 A    
C54   C86   1.394385 A    
C101  C156  1.470351 S    
C45   H21   1.082991 S    
C102  C155  1.470351 S    
C129  C160  1.410983 A    
C130  C159  1.410981 A    
C78   H54   1.083279 S    
C5    C207  1.475265 S    
O43   C21   1.277653 A    
C80   H56   1.083279 S    
C99   C158  1.470350 S    
C125  C164  1.410980 A    
C189  H69   1.083203 S    
C126  C163  1.410982 A    
C54   C108  1.405297 A    
C127  C162  1.410979 A    
C25   C105  1.405301 A    
N6    O63   1.301191 A    
C46   C78   1.394386 A    
N15   O82   1.301160 A    
N28   O107  1.301191 A    
C79   C97   1.399918 A    
C176  C192  1.396624 A    
C43   H19   1.082989 S    
C11   C109  1.471061 S    
C34   C66   1.394385 A    
C57   C89   1.399918 A    
C38   C70   1.394385 A    
C62   C94   1.399917 A    
C50   C112  1.405303 A    
N16   O84   1.301181 A    
C42   C74   1.394386 A    
C176  Cl8   1.761668 S    
C141  C148  1.407491 A    
C30   C110  1.405303 A    
C14   C112  1.471075 S    
C142  C147  1.407493 A    
C137  C154  1.411088 A    
C143  C146  1.407491 A    
Zn12  O30   1.928278 S    
C134  N14   1.438104 S    
C56   C88   1.394394 A    
C42   C120  1.405303 A    
C45   C115  1.405293 A    
C195  C207  1.404307 A    
C174  Cl6   1.761666 S    
O5    C1    1.281533 A    
C182  C214  1.405673 A    
O31   C19   1.277608 A    
C190  H70   1.083200 S    
C56   C106  1.405259 A    
C178  C194  1.396624 A    
C61   H37   1.083279 S    
O37   C19   1.277608 A    
C51   C83   1.394382 A    
C174  C190  1.396624 A    
C200  H80   1.083202 S    
C31   C63   1.394383 A    
N18   O87   1.301188 A    
C44   C76   1.394387 A    
C48   C114  1.405301 A    
O51   C13   1.277608 A    
C29   C61   1.394382 A    
C92   C165  1.470351 S    
C40   C72   1.394386 A    
C196  H76   1.083203 S    
C138  N18   1.438106 S    
C194  H74   1.083202 S    
C183  C199  1.396624 A    
O8    C4    1.281533 A    
C9    C107  1.471058 S    
N7    O66   1.301188 A    
C86   C92   1.399914 A    
Zn4   O17   1.918491 S    
C36   H12   1.082983 S    
O48   C10   1.277614 A    
N10   O71   1.301191 A    
O16   C8    1.281533 A    
N28   O108  1.301183 A    
C64   H40   1.083279 S    
C93   C164  1.470354 S    
C1    C203  1.475265 S    
Zn1   O1    1.936903 S    
O52   C14   1.277614 A    
C198  H78   1.083205 S    
C56   H32   1.083013 S    
N9    O69   1.301186 A    
C82   C96   1.399914 A    
C72   H48   1.083278 S    
O45   C11   1.277605 A    
C151  N31   1.438105 S    
C132  C157  1.410982 A    
C39   H15   1.082991 S    
C144  N24   1.438105 S    
N27   O105  1.301188 A    
C144  C145  1.407491 A    
C26   C58   1.394394 A    
C17   C115  1.471057 S    
C67   H43   1.083277 S    
C81   H57   1.083278 S    
C29   C109  1.405295 A    
C47   C113  1.405299 A    
N24   O99   1.301188 A    
C8    C206  1.475265 S    
Zn16  O25   1.928275 S    
O6    C2    1.281533 A    
C179  C195  1.396624 A    
C194  C206  1.404304 A    
C150  C165  1.410980 A    
C55   C105  1.405298 A    
C124  C133  1.407489 A    
C89   C168  1.470354 S    
N4    O59   1.301191 A    
Zn4   O37   1.928279 S    
C28   C108  1.405301 A    
Zn5   O40   1.928280 S    
Zn6   O39   1.928278 S    
C33   C113  1.405295 A    
C135  N15   1.438085 S    
N3    O57   1.301189 A    
C198  C206  1.404307 A    
C55   H31   1.082990 S    
C140  C155  1.410982 A    
Zn8   O50   1.928281 S    
N17   O85   1.301234 A    
C53   H29   1.082985 S    
C213  C221  1.437418 S    
Zn16  O34   1.928281 S    
C221  C222  1.202093 T    
C125  N5    1.438104 S    
N1    O54   1.301182 A    
C84   H60   1.083278 S    
Zn5   O1    1.936897 S    
C177  Cl9   1.761668 S    
C223  C224  1.202093 T    
Zn4   O46   1.928278 S    
C103  C154  1.470497 S    
C28   H4    1.082984 S    
C19   C117  1.471055 S    
C181  C197  1.396624 A    
Zn12  O21   1.928279 S    
C50   H26   1.082984 S    
C180  C216  1.405673 A    
Zn13  O24   1.928280 S    
O35   C23   1.277608 A    
Zn14  O23   1.928278 S    
C144  C159  1.410983 A    
Zn15  O6    1.918489 S    
C46   C116  1.405301 A    
C145  C162  1.410982 A    
N11   O73   1.301185 A    
Zn16  O1    1.936903 S    
N21   O94   1.301185 A    
Zn12  O1    1.936901 S    
C169  Cl1   1.761667 S    
O32   C20   1.277614 A    
Zn13  O12   1.918491 S    
Zn14  O11   1.918491 S    
C123  N3    1.438103 S    
C182  Cl14  1.761666 S    
C181  Cl13  1.761668 S    
C29   H5    1.082990 S    
C189  C201  1.404305 A    
C148  N28   1.438104 S    
C66   C98   1.399915 A    
Zn7   O14   1.918489 S    
N29   O110  1.301184 A    
N23   O98   1.301187 A    
O12   C4    1.281533 A    
N22   O96   1.301186 A    
C131  N11   1.438107 S    
C88   H64   1.083295 S    
C121  C136  1.407491 A    
N4    O60   1.301184 A    
C122  C135  1.407493 A    
O7    C3    1.281533 A    
C188  C204  1.404307 A    
C100  C157  1.470354 S    
C212  C220  1.437418 S    
C128  C129  1.407489 A    
C87   C89   1.399915 A    
C69   H45   1.083280 S    
O21   C9    1.277608 A    
C184  C200  1.396624 A    
C74   C104  1.399913 A    
C96   C161  1.470348 S    
N26   O104  1.301183 A    
O39   C17   1.277607 A    
Zn11  O22   1.928277 S    
C132  N12   1.438104 S    
N23   O97   1.301184 A    
O40   C18   1.277611 A    
C59   H35   1.083279 S    
Zn7   O49   1.928278 S    
C86   H62   1.083279 S    
Zn9   O4    1.936903 S    
O15   C7    1.281533 A    
C63   H39   1.083279 S    
Zn10  O3    1.936903 S    
O25   C13   1.277608 A    
C30   H6    1.082983 S    
C32   C64   1.394385 A    
C52   C110  1.405305 A    
C123  C166  1.410983 A    
C33   C65   1.394385 A    
C60   H36   1.083281 S    
N8    O68   1.301183 A    
O18   C6    1.281533 A    
O41   C23   1.277608 A    
C40   C120  1.405301 A    
Zn9   O31   1.928278 S    
C152  N32   1.438152 S    
N32   O116  1.301190 A    
Zn10  O32   1.928275 S    
O10   C2    1.281533 A    
Zn11  O29   1.928280 S    
C141  C158  1.410980 A    
C138  C153  1.410979 A    
C130  N10   1.438103 S    
C124  N4    1.438101 S    
C48   H24   1.082983 S    
N5    O61   1.301188 A    
C141  N21   1.438107 S    
C140  C149  1.407489 A    
C18   C116  1.471083 S    
C21   C119  1.471230 S    
C186  H66   1.083200 S    
C16   C106  1.470915 S    
C98   C159  1.470348 S    
O28   C16   1.277571 A    
C44   C118  1.405301 A    
C200  C208  1.404304 A    
C149  N29   1.438106 S    
C94   C163  1.470354 S    
C39   C119  1.405344 A    
C95   C162  1.470348 S    
C4    C202  1.475265 S    
C13   C111  1.471058 S    
N14   O80   1.301182 A    
C37   C117  1.405300 A    
C173  C209  1.405671 A    
C44   H20   1.082986 S    
C12   C110  1.471079 S    
C71   H47   1.083293 S    
C25   H1    1.082990 S    
C172  C188  1.396624 A    
C136  N16   1.438107 S    
C27   H3    1.082990 S    
N30   O111  1.301188 A    
N6    O64   1.301183 A    
C147  N27   1.438104 S    
C52   C84   1.394384 A    
N12   O75   1.301189 A    
C73   H49   1.083293 S    
C41   C73   1.394371 A    
C73   C103  1.399951 A    
O23   C11   1.277607 A    
N27   O106  1.301187 A    
C88   C90   1.399895 A    
C2    C204  1.475265 S    
C23   C113  1.471060 S    
C191  H71   1.083202 S    
C187  C203  1.404304 A    
Zn2   O2    1.936903 S    
C125  C132  1.407493 A    
C121  N1    1.438105 S    
C126  C131  1.407491 A    
O26   C14   1.277614 A    
C127  C130  1.407491 A    
N7    O65   1.301187 A    
C87   H63   1.083281 S    
C70   C102  1.399916 A    
C80   C98   1.399916 A    
Zn8   O4    1.936903 S    
C85   H61   1.083281 S    
C43   C75   1.394383 A    
N3    O58   1.301184 A    
C37   C69   1.394383 A    
C65   H41   1.083279 S    
C171  C187  1.396624 A    
C49   C81   1.394385 A    
O49   C15   1.277608 A    
O13   C5    1.281533 A    
C147  C164  1.410978 A    
C79   H55   1.083280 S    
C42   H18   1.082983 S    
C77   H53   1.083280 S    
N25   O102  1.301186 A    
C35   H11   1.082988 S    
N20   O91   1.301188 A    
O20   C8    1.281533 A    
C145  N25   1.438103 S    
C151  C168  1.410977 A    
C26   C106  1.405260 A    
C76   C102  1.399916 A    
C185  H65   1.083202 S    
C171  Cl3   1.761666 S    
O24   C12   1.277614 A    
C137  C152  1.407493 A    
C3    C201  1.475265 S    
C138  C151  1.407491 A    
N13   O78   1.301187 A    
Zn7   O42   1.928277 S    
C199  H79   1.083200 S    
N18   O88   1.301181 A    
C142  N22   1.438104 S    
C58   C90   1.399893 A    
C191  C203  1.404306 A    
C54   H30   1.082985 S    
Zn1   O47   1.928278 S    
Zn2   O48   1.928275 S    
C61   C93   1.399916 A    
C26   H2    1.083013 S    
C51   H27   1.082990 S    
Zn6   O2    1.936901 S    
C52   H28   1.082983 S    
C171  C211  1.405673 A    
C178  C214  1.405674 A    
C46   H22   1.082983 S    
N10   O72   1.301182 A    
C20   C118  1.471077 S    
C40   H16   1.082983 S    
Zn11  O10   1.918491 S    
C180  C196  1.396624 A    
C146  C161  1.410982 A    
O50   C16   1.277569 A    
C133  N13   1.438104 S    
Zn1   O16   1.918489 S    
C183  C215  1.405674 A    
Zn2   O15   1.918489 S    
C184  Cl16  1.761667 S    
C53   C85   1.394385 A    
O29   C17   1.277605 A    
C34   H10   1.082984 S    
C36   C68   1.394386 A    
C219  C220  1.202093 T    
C137  N17   1.438085 S    
N15   O81   1.301238 A    
C62   H38   1.083278 S    
C199  C207  1.404307 A    
C139  N19   1.438103 S    
C64   C96   1.399916 A    
C175  C191  1.396624 A    
C25   C57   1.394382 A    
C195  H75   1.083201 S    
C28   C60   1.394385 A    
C38   H14   1.082985 S    
C6    C208  1.475265 S    
C186  C202  1.404306 A    
C131  C158  1.410978 A    
N24   O100  1.301180 A    
C7    C205  1.475265 S    
C193  H73   1.083200 S    
N2    O55   1.301254 A    
C182  C198  1.396624 A    
C179  Cl11  1.761666 S    
N16   O83   1.301188 A    
O47   C9    1.277608 A    
C50   C82   1.394385 A    
C140  N20   1.438104 S    
Zn9   O28   1.928278 S    
C10   C108  1.471079 S    
Zn10  O27   1.928281 S    
C97   C160  1.470353 S    
O19   C7    1.281533 A    
O33   C21   1.277656 A    
C32   C112  1.405299 A    
C77   C99   1.399917 A    
C41   H17   1.082991 S    
Zn9   O8    1.918489 S    
C67   C99   1.399920 A    
Zn10  O7    1.918489 S    
C43   C117  1.405297 A    
C36   C116  1.405300 A    
C31   H7    1.082989 S    
Zn12  O9    1.918491 S    
C143  N23   1.438106 S    
C216  C224  1.437418 S    
C37   H13   1.082987 S    
C197  H77   1.083200 S    
C124  C165  1.410985 A    
N1    O53   1.301188 A    
O42   C24   1.277614 A    
C59   C91   1.399918 A    
Zn6   O52   1.928279 S    
C55   C87   1.394382 A    
C142  C157  1.410984 A    
C57   H33   1.083281 S    
O36   C24   1.277614 A    
C128  N8    1.438103 S    
C177  C213  1.405671 A    
C128  C161  1.410982 A    
N17   O86   1.301160 A    
N21   O93   1.301185 A    
N31   O114  1.301182 A    
C47   C79   1.394383 A    
O30   C18   1.277614 A    
C193  C205  1.404306 A    
