data_mof_unit_55855.cif
_audit_creation_date              2012-12-11T16:26:18-0500
_audit_creation_method            fapswitch 2.2
_symmetry_space_group_name_H-M    P1
_symmetry_Int_Tables_number       1
_space_group_crystal_system       triclinic
_cell_length_a                    14.009408
_cell_length_b                    14.009985
_cell_length_c                    31.668852
_cell_angle_alpha                 89.975711
_cell_angle_beta                  90.071617
_cell_angle_gamma                 120.047875
_cell_volume                      5380.34767243

loop_
_atom_site_label
_atom_site_type_symbol
_atom_type_description
_atom_site_fract_x
_atom_site_fract_y
_atom_site_fract_z
_atom_type_partial_charge
C1    C     C_R   0.566227 0.444403 0.810396 0.538204
C2    C     C_R   0.877992 0.433453 0.689541 0.538459
C3    C     C_R   0.555582 0.121761 0.810381 0.538423
C4    C     C_R   0.566199 0.444794 0.689734 0.539906
C5    C     C_R   0.878330 0.433854 0.810366 0.538117
C6    C     C_R   0.555256 0.121778 0.689596 0.539443
C7    C     C_R   0.444466 0.566310 0.310430 0.538279
C8    C     C_R   0.433560 0.878296 0.189637 0.539678
C9    C     C_R   0.121778 0.555476 0.310352 0.538007
C10   C     C_R   0.444674 0.566370 0.189639 0.539989
C11   C     C_R   0.433920 0.878344 0.310367 0.538403
C12   C     C_R   0.121619 0.555236 0.189645 0.539812
C13   C     C_1   0.006854 0.539961 0.018326 0.032137
C14   C     C_1   0.544545 0.014937 0.479788 0.024451
C15   C     C_1   0.459570 0.466822 0.018311 0.032145
C16   C     C_1   0.997565 0.533237 0.480839 0.016691
C17   C     C_1   0.531981 0.991698 0.018200 0.032016
C18   C     C_1   0.468226 0.462029 0.480926 0.023996
C19   C     C_1   0.543291 0.012428 0.517709 0.032529
C20   C     C_1   0.009407 0.540964 0.980422 0.023965
C21   C     C_1   0.466612 0.463048 0.518830 0.032109
C22   C     C_1   0.530502 0.989261 0.980292 0.023858
C23   C     C_1   0.000785 0.534855 0.518737 0.016640
C24   C     C_1   0.458671 0.468243 0.980398 0.024035
C25   C     C_R   0.942028 0.479330 0.850328 -0.066308
C26   C     C_R   0.537013 0.060579 0.649023 -0.062801
C27   C     C_R   0.520862 0.462394 0.850380 -0.065778
C28   C     C_R   0.940418 0.477031 0.649251 -0.064256
C29   C     C_R   0.537386 0.058053 0.850314 -0.065970
C30   C     C_R   0.522018 0.463730 0.649652 -0.064403
C31   C     C_R   0.480101 0.942934 0.350118 -0.065735
C32   C     C_R   0.059292 0.536562 0.149322 -0.062788
C33   C     C_R   0.462648 0.521611 0.350595 -0.066319
C34   C     C_R   0.476951 0.940251 0.149260 -0.062720
C35   C     C_R   0.058860 0.537200 0.350417 -0.066790
C36   C     C_R   0.463115 0.522753 0.149311 -0.062680
C37   C     C_R   0.958469 0.580035 0.867984 -0.068895
C38   C     C_R   0.619682 0.041330 0.631977 -0.067189
C39   C     C_R   0.420184 0.377866 0.868022 -0.069292
C40   C     C_R   0.959657 0.578762 0.631778 -0.065421
C41   C     C_R   0.621899 0.042173 0.868135 -0.069492
C42   C     C_R   0.420367 0.380799 0.632370 -0.069031
C43   C     C_R   0.581043 0.959581 0.367703 -0.069854
C44   C     C_R   0.039981 0.619212 0.132220 -0.067781
C45   C     C_R   0.378345 0.421142 0.368410 -0.068853
C46   C     C_R   0.578804 0.959413 0.132144 -0.067722
C47   C     C_R   0.042878 0.621473 0.368246 -0.067717
C48   C     C_R   0.380263 0.420804 0.132187 -0.067789
C49   C     C_R   0.988424 0.604756 0.910672 0.229447
C50   C     C_R   0.619899 0.020292 0.588405 0.234872
C51   C     C_R   0.395245 0.383187 0.910650 0.229173
C52   C     C_R   0.987999 0.602441 0.588935 0.229642
C53   C     C_R   0.616110 0.011413 0.910733 0.229205
C54   C     C_R   0.398606 0.382293 0.588919 0.234813
C55   C     C_R   0.606942 0.991419 0.410178 0.228405
C56   C     C_R   0.017480 0.618536 0.088744 0.234176
C57   C     C_R   0.383646 0.397059 0.411166 0.229872
C58   C     C_R   0.600292 0.981473 0.088646 0.234189
C59   C     C_R   0.014311 0.616460 0.411049 0.231330
C60   C     C_R   0.380852 0.398998 0.088719 0.234108
C61   C     C_R   0.006184 0.531852 0.935161 -0.026834
C62   C     C_R   0.533910 0.011047 0.562977 -0.020400
C63   C     C_R   0.467994 0.474023 0.935138 -0.026589
C64   C     C_R   0.000155 0.526771 0.564009 -0.022442
C65   C     C_R   0.524953 0.992821 0.935025 -0.026566
C66   C     C_R   0.473890 0.470797 0.564112 -0.021751
C67   C     C_R   0.535152 0.010989 0.434503 -0.026218
C68   C     C_R   0.006087 0.531357 0.063590 -0.020334
C69   C     C_R   0.474101 0.470699 0.435650 -0.026461
C70   C     C_R   0.524270 0.992535 0.063464 -0.020391
C71   C     C_R   0.998426 0.526550 0.435563 -0.025012
C72   C     C_R   0.468113 0.474788 0.063583 -0.020347
C73   C     C_R   0.009863 0.443399 0.915988 -0.045852
C74   C     C_R   0.440838 0.006942 0.581366 -0.043246
C75   C     C_R   0.556583 0.566201 0.916004 -0.045810
C76   C     C_R   0.001705 0.436962 0.582844 -0.040653
C77   C     C_R   0.432848 0.989028 0.915696 -0.045967
C78   C     C_R   0.561703 0.563952 0.583103 -0.045028
C79   C     C_R   0.446788 0.014738 0.415252 -0.046043
C80   C     C_R   0.001727 0.438367 0.082204 -0.043687
C81   C     C_R   0.566201 0.559142 0.416433 -0.044714
C82   C     C_R   0.435707 0.996932 0.082057 -0.043643
C83   C     C_R   0.993663 0.434081 0.416270 -0.044502
C84   C     C_R   0.561209 0.563447 0.082220 -0.043847
C85   C     C_R   0.979078 0.417489 0.873534 0.212730
C86   C     C_R   0.441639 0.031338 0.624367 0.210403
C87   C     C_R   0.582730 0.561308 0.873608 0.212340
C88   C     C_R   0.972805 0.412043 0.625467 0.210272
C89   C     C_R   0.438078 0.020228 0.873288 0.212745
C90   C     C_R   0.586481 0.560931 0.625788 0.213903
C91   C     C_R   0.419235 0.981501 0.373073 0.212530
C92   C     C_R   0.028448 0.440383 0.124997 0.210791
C93   C     C_R   0.561496 0.584169 0.373854 0.213165
C94   C     C_R   0.411367 0.970707 0.124882 0.210753
C95   C     C_R   0.022629 0.438436 0.373649 0.212344
C96   C     C_R   0.559292 0.588131 0.125006 0.210651
Cr1   Cr    Cr6+3 0.504240 0.249200 0.750000 1.061327
Cr2   Cr    Cr6+3 0.744960 0.495760 0.750000 1.058995
Cr3   Cr    Cr6+3 0.750800 0.255040 0.750000 1.060140
Cr4   Cr    Cr6+3 0.249200 0.504240 0.250000 1.059969
Cr5   Cr    Cr6+3 0.495760 0.744960 0.250000 1.060066
Cr6   Cr    Cr6+3 0.255040 0.750800 0.250000 1.059816
O1    O     O_R   0.480350 0.140770 0.796330 -0.456877
O2    O     O_R   0.660420 0.519650 0.703670 -0.461280
O3    O     O_R   0.859230 0.339580 0.796330 -0.456801
O4    O     O_R   0.480350 0.140770 0.703670 -0.461128
O5    O     O_R   0.660420 0.519650 0.796330 -0.457619
O6    O     O_R   0.859230 0.339580 0.703670 -0.461093
O7    O     O_R   0.140770 0.480350 0.296330 -0.457481
O8    O     O_R   0.519650 0.660420 0.203670 -0.462534
O9    O     O_R   0.339580 0.859230 0.296330 -0.457375
O10   O     O_R   0.140770 0.480350 0.203670 -0.462506
O11   O     O_R   0.519650 0.660420 0.296330 -0.457242
O12   O     O_R   0.339580 0.859230 0.203670 -0.462448
O13   O     O_R   0.514930 0.348530 0.793250 -0.495279
O14   O     O_R   0.833600 0.485070 0.706750 -0.493436
O15   O     O_R   0.651470 0.166400 0.793250 -0.495160
O16   O     O_R   0.514930 0.348530 0.706750 -0.490430
O17   O     O_R   0.833600 0.485070 0.793250 -0.495413
O18   O     O_R   0.651470 0.166400 0.706750 -0.490651
O19   O     O_R   0.348530 0.514930 0.293250 -0.494819
O20   O     O_R   0.485070 0.833600 0.206750 -0.490658
O21   O     O_R   0.166400 0.651470 0.293250 -0.494957
O22   O     O_R   0.348530 0.514930 0.206750 -0.490617
O23   O     O_R   0.485070 0.833600 0.293250 -0.494957
O24   O     O_R   0.166400 0.651470 0.206750 -0.490448
O25   O     O_3   0.666667 0.333333 0.750000 -0.259130
O26   O     O_3   0.333333 0.666667 0.250000 -0.259173
C97   C     C_1   0.944589 0.659342 0.843381 0.271416
N1    N     N_1   0.933160 0.722748 0.823855 -0.300822
C98   C     C_1   0.704489 0.042838 0.658571 0.256095
N2    N     N_1   0.772586 0.044949 0.679918 -0.332262
C99   C     C_1   0.341265 0.284064 0.843521 0.270971
N3    N     N_1   0.278214 0.208697 0.824090 -0.297348
C100  C     C_1   0.949467 0.659756 0.656679 0.270634
N4    N     N_1   0.940834 0.724454 0.676441 -0.312285
C101  C     C_1   0.716156 0.057867 0.843860 0.271152
N5    N     N_1   0.791888 0.070836 0.824608 -0.296859
C102  C     C_1   0.337863 0.294273 0.658604 0.255490
N6    N     N_1   0.272503 0.224887 0.679675 -0.329427
C103  C     C_1   0.659323 0.943763 0.343298 0.271013
N7    N     N_1   0.721888 0.930754 0.323936 -0.297664
C104  C     C_1   0.042975 0.704951 0.158615 0.256408
N8    N     N_1   0.046188 0.773761 0.179791 -0.331337
C105  C     C_1   0.284925 0.341537 0.343919 0.271555
N9    N     N_1   0.209865 0.277931 0.324490 -0.298509
C106  C     C_1   0.661761 0.956660 0.158545 0.256278
N10   N     N_1   0.727514 0.953621 0.179728 -0.331322
C107  C     C_1   0.056625 0.714869 0.343811 0.272982
N11   N     N_1   0.068062 0.789920 0.324432 -0.301653
C108  C     C_1   0.294397 0.338031 0.158551 0.256437
N12   N     N_1   0.225483 0.272409 0.179700 -0.331132
O27   O     O_3   0.994326 0.695579 0.071359 -0.551788
C109  C     C_3   0.091421 0.799383 0.067497 0.017940
H1    H     H_    0.122447 0.809375 0.034600 0.174764
H2    H     H_    0.159718 0.811377 0.088972 0.166680
C110  C     C_3   0.063220 0.889013 0.076895 -0.357174
H3    H     H_    0.018300 0.872077 0.107304 0.169398
H4    H     H_    0.139381 0.970266 0.079409 0.153157
H5    H     H_    0.010619 0.892246 0.051373 0.129847
O28   O     O_3   0.708895 0.017025 0.426388 -0.542643
C111  C     C_3   0.703566 0.921702 0.443668 0.020495
H6    H     H_    0.670817 0.852459 0.420545 0.162812
H7    H     H_    0.650989 0.894694 0.472424 0.168812
C112  C     C_3   0.819601 0.949659 0.456127 -0.342120
H8    H     H_    0.857422 0.023466 0.476812 0.169507
H9    H     H_    0.817061 0.880037 0.473585 0.138853
H10   H     H_    0.871381 0.966825 0.427480 0.154289
O29   O     O_3   0.303646 0.298761 0.071335 -0.552151
C113  C     C_3   0.199951 0.292151 0.067385 0.017786
H11   H     H_    0.190056 0.313302 0.034474 0.175030
H12   H     H_    0.188071 0.348460 0.088837 0.166324
C114  C     C_3   0.110141 0.174235 0.076737 -0.357273
H13   H     H_    0.126963 0.146113 0.107168 0.169359
H14   H     H_    0.028971 0.169199 0.079187 0.153330
H15   H     H_    0.106802 0.118422 0.051225 0.129658
O30   O     O_3   0.988707 0.692410 0.427537 -0.547335
C115  C     C_3   0.084809 0.785113 0.443120 0.013088
H16   H     H_    0.158646 0.809829 0.422825 0.156172
H17   H     H_    0.102653 0.767543 0.475508 0.174333
C116  C     C_3   0.063899 0.881615 0.445186 -0.354227
H18   H     H_    0.130033 0.950132 0.463503 0.141251
H19   H     H_    0.061472 0.910834 0.412804 0.167174
H20   H     H_    0.983940 0.856002 0.460922 0.161490
O31   O     O_3   0.700396 0.004486 0.071250 -0.552103
C117  C     C_3   0.706995 0.907382 0.067500 0.017822
H21   H     H_    0.685840 0.876108 0.034616 0.175004
H22   H     H_    0.650658 0.839235 0.088989 0.166414
C118  C     C_3   0.824908 0.935684 0.076978 -0.356802
H23   H     H_    0.853154 0.981099 0.107309 0.169624
H24   H     H_    0.829862 0.859545 0.079689 0.153458
H25   H     H_    0.880690 0.987845 0.051398 0.129321
O32   O     O_3   0.308097 0.295012 0.427527 -0.541270
C119  C     C_3   0.216878 0.298812 0.444321 0.020423
H26   H     H_    0.179875 0.330264 0.420876 0.162743
H27   H     H_    0.241344 0.351748 0.472993 0.169270
C120  C     C_3   0.129810 0.182300 0.456805 -0.340940
H28   H     H_    0.166966 0.145434 0.477364 0.168797
H29   H     H_    0.062178 0.183399 0.474420 0.146910
H30   H     H_    0.095445 0.130349 0.428147 0.151897
O33   O     O_3   0.696277 0.996104 0.571155 -0.549069
C121  C     C_3   0.801042 0.092217 0.567914 0.016867
H31   H     H_    0.813550 0.160307 0.589563 0.166531
H32   H     H_    0.812573 0.124318 0.535127 0.173503
C122  C     C_3   0.888945 0.061711 0.577601 -0.352962
H33   H     H_    0.891397 0.008659 0.552151 0.132177
H34   H     H_    0.970859 0.136997 0.580278 0.149291
H35   H     H_    0.870770 0.016361 0.607969 0.174000
O34   O     O_3   0.014046 0.706580 0.926999 -0.541701
C123  C     C_3   0.918427 0.701683 0.943724 0.019765
H36   H     H_    0.890752 0.649381 0.972564 0.168838
H37   H     H_    0.849662 0.668812 0.920356 0.162934
C124  C     C_3   0.946359 0.817971 0.955807 -0.340792
H38   H     H_    0.963438 0.869204 0.926982 0.153996
H39   H     H_    0.876898 0.816022 0.973199 0.146334
H40   H     H_    0.020357 0.856192 0.976422 0.168875
O35   O     O_3   0.298886 0.304756 0.571222 -0.551259
C125  C     C_3   0.292444 0.201050 0.567700 0.019175
H41   H     H_    0.349680 0.190055 0.588985 0.166215
H42   H     H_    0.312741 0.190290 0.534791 0.175604
C126  C     C_3   0.174878 0.111165 0.577638 -0.355299
H43   H     H_    0.118572 0.105086 0.551799 0.127005
H44   H     H_    0.170657 0.030586 0.581393 0.153480
H45   H     H_    0.146573 0.130021 0.607563 0.171023
O36   O     O_3   0.692280 0.985783 0.927113 -0.542626
C127  C     C_3   0.782775 0.081180 0.944232 0.019779
H46   H     H_    0.757792 0.107812 0.973232 0.169921
H47   H     H_    0.818630 0.150623 0.921195 0.161722
C128  C     C_3   0.871430 0.053475 0.956089 -0.340929
H48   H     H_    0.905764 0.037253 0.927148 0.153848
H49   H     H_    0.938857 0.122697 0.973707 0.146607
H50   H     H_    0.835780 0.979013 0.976410 0.168814
O37   O     O_3   0.017311 0.705347 0.572807 -0.554802
C129  C     C_3   0.923011 0.706046 0.557597 0.013866
H51   H     H_    0.849833 0.660885 0.578593 0.163187
H52   H     H_    0.901908 0.668770 0.525538 0.175117
C130  C     C_3   0.949774 0.825239 0.554650 -0.362883
H53   H     H_    0.028227 0.875099 0.537303 0.162786
H54   H     H_    0.883564 0.830026 0.537477 0.135732
H55   H     H_    0.958108 0.860218 0.586813 0.158059
O38   O     O_3   0.293318 0.306895 0.926887 -0.542481
C131  C     C_3   0.298093 0.216241 0.943817 0.019654
H56   H     H_    0.350078 0.241012 0.972772 0.169125
H57   H     H_    0.331254 0.180385 0.920635 0.161983
C132  C     C_3   0.181684 0.127691 0.955709 -0.340832
H58   H     H_    0.130679 0.093679 0.926796 0.154220
H59   H     H_    0.183453 0.060033 0.973111 0.146543
H60   H     H_    0.143334 0.163328 0.976239 0.168630
O39   O     O_3   0.034267 0.352046 0.141569 -0.539000
C133  C     C_3   0.936283 0.284255 0.164140 0.007649
H61   H     H_    0.865930 0.239605 0.141903 0.149628
H62   H     H_    0.916330 0.332522 0.186891 0.111075
C134  C     C_3   0.951035 0.200178 0.189330 -0.335830
H63   H     H_    0.024041 0.242986 0.210313 0.184826
H64   H     H_    0.877246 0.150708 0.209232 0.107663
H65   H     H_    0.962762 0.144609 0.167632 0.163519
O40   O     O_3   0.327085 0.978572 0.355754 -0.523688
C135  C     C_3   0.361577 0.076693 0.332636 0.009133
H66   H     H_    0.423412 0.088220 0.308067 0.110094
H67   H     H_    0.397641 0.149543 0.354077 0.143044
C136  C     C_3   0.262372 0.070463 0.310460 -0.331101
H68   H     H_    0.200350 0.062653 0.334107 0.184348
H69   H     H_    0.288855 0.146255 0.291483 0.100134
H70   H     H_    0.224316 0.998030 0.289048 0.173662
O41   O     O_3   0.647738 0.682335 0.141586 -0.539329
C137  C     C_3   0.715501 0.652113 0.164190 0.007609
H71   H     H_    0.759959 0.626321 0.141980 0.149711
H72   H     H_    0.667233 0.583892 0.186972 0.111267
C138  C     C_3   0.799812 0.751043 0.189333 -0.336010
H73   H     H_    0.757204 0.781375 0.210269 0.184838
H74   H     H_    0.849245 0.726705 0.209278 0.107804
H75   H     H_    0.855398 0.818314 0.167602 0.163205
O42   O     O_3   0.024028 0.348732 0.356088 -0.523835
C139  C     C_3   0.924521 0.285120 0.333704 0.009806
H76   H     H_    0.911734 0.335412 0.309463 0.109346
H77   H     H_    0.852977 0.248545 0.355744 0.145244
C140  C     C_3   0.929081 0.191895 0.311065 -0.330033
H78   H     H_    0.937323 0.137226 0.334402 0.186439
H79   H     H_    0.852464 0.143061 0.292429 0.099273
H80   H     H_    0.000651 0.226080 0.289268 0.173181
O43   O     O_3   0.317300 0.964974 0.141447 -0.539222
C141  C     C_3   0.347732 0.063244 0.163861 0.007544
H81   H     H_    0.373530 0.133337 0.141524 0.149730
H82   H     H_    0.416017 0.083413 0.186674 0.111155
C142  C     C_3   0.248954 0.048867 0.188924 -0.336162
H83   H     H_    0.218650 0.976116 0.210008 0.184672
H84   H     H_    0.273473 0.122912 0.208708 0.107719
H85   H     H_    0.181613 0.036927 0.167147 0.163178
O44   O     O_3   0.651122 0.675468 0.356302 -0.523608
C143  C     C_3   0.714879 0.639754 0.334046 0.009780
H86   H     H_    0.664591 0.576223 0.309919 0.109256
H87   H     H_    0.751827 0.605339 0.356199 0.144674
C144  C     C_3   0.807741 0.737555 0.311227 -0.330403
H88   H     H_    0.862401 0.800989 0.334437 0.185065
H89   H     H_    0.856690 0.709859 0.292725 0.099926
H90   H     H_    0.773173 0.774299 0.289268 0.173651
O45   O     O_3   0.352679 0.035821 0.640982 -0.539086
C145  C     C_3   0.284136 0.935888 0.662327 0.006586
H91   H     H_    0.331261 0.916360 0.685831 0.111949
H92   H     H_    0.243337 0.866625 0.639378 0.152556
C146  C     C_3   0.195567 0.946250 0.686080 -0.336001
H93   H     H_    0.141658 0.958095 0.663485 0.168116
H94   H     H_    0.144926 0.870487 0.704876 0.105862
H95   H     H_    0.234380 0.017674 0.707959 0.181770
O46   O     O_3   0.977239 0.326071 0.856072 -0.523123
C147  C     C_3   0.076416 0.361720 0.833585 0.009681
H96   H     H_    0.148349 0.397418 0.855507 0.143960
H97   H     H_    0.088665 0.424206 0.809160 0.109221
C148  C     C_3   0.071711 0.263505 0.811244 -0.329892
H98   H     H_    0.999987 0.225592 0.789465 0.173242
H99   H     H_    0.148193 0.291063 0.792626 0.099070
H100  H     H_    0.063676 0.201051 0.834762 0.186891
O47   O     O_3   0.679615 0.649860 0.642768 -0.526514
C149  C     C_3   0.647145 0.714969 0.665947 0.011209
H101  H     H_    0.578704 0.664582 0.688358 0.106890
H102  H     H_    0.620655 0.759654 0.644102 0.148332
C150  C     C_3   0.744687 0.799007 0.691758 -0.331344
H103  H     H_    0.812452 0.855892 0.670478 0.172264
H104  H     H_    0.718824 0.847090 0.711726 0.104016
H105  H     H_    0.774989 0.756244 0.712677 0.181668
O48   O     O_3   0.348520 0.021993 0.855685 -0.523540
C151  C     C_3   0.285421 0.923242 0.832812 0.010306
H106  H     H_    0.246903 0.851256 0.854629 0.144992
H107  H     H_    0.336562 0.910186 0.809089 0.108164
C152  C     C_3   0.194250 0.929592 0.809211 -0.329460
H108  H     H_    0.230513 0.001345 0.787458 0.174046
H109  H     H_    0.145444 0.853307 0.790403 0.097330
H110  H     H_    0.139010 0.938684 0.831951 0.187004
O49   O     O_3   0.966050 0.317699 0.642284 -0.539229
C153  C     C_3   0.063860 0.347549 0.664980 0.007305
H111  H     H_    0.083497 0.415320 0.687945 0.111764
H112  H     H_    0.134453 0.373813 0.642886 0.148543
C154  C     C_3   0.048884 0.248154 0.689825 -0.336271
H113  H     H_    0.037134 0.181249 0.667890 0.163381
H114  H     H_    0.122611 0.272062 0.709771 0.107466
H115  H     H_    0.975777 0.217495 0.710711 0.184410
O50   O     O_3   0.674521 0.650841 0.856276 -0.524335
C155  C     C_3   0.639536 0.715000 0.833818 0.008973
H116  H     H_    0.602255 0.749779 0.855594 0.143156
H117  H     H_    0.578541 0.665550 0.808814 0.110742
C156  C     C_3   0.738658 0.810115 0.812514 -0.330694
H118  H     H_    0.778413 0.777892 0.790996 0.173563
H119  H     H_    0.711625 0.859335 0.793780 0.100049
H120  H     H_    0.799436 0.863869 0.836670 0.186381
C157  C     C_1   0.966786 0.339265 0.057629 0.221289
N13   N     N_1   0.937002 0.259926 0.037846 -0.313836
C158  C     C_1   0.386061 0.056363 0.438206 0.238398
N14   N     N_1   0.338967 0.091549 0.456401 -0.284340
C159  C     C_1   0.660330 0.627656 0.057680 0.221098
N15   N     N_1   0.739682 0.677261 0.037929 -0.312907
C160  C     C_1   0.955467 0.332679 0.439633 0.239006
N16   N     N_1   0.923128 0.251068 0.458131 -0.291800
C161  C     C_1   0.371212 0.031368 0.057418 0.220948
N17   N     N_1   0.321378 0.060727 0.037578 -0.314587
C162  C     C_1   0.667478 0.622983 0.439910 0.236655
N18   N     N_1   0.748877 0.672764 0.458553 -0.300032
C163  C     C_1   0.342918 0.974693 0.556291 0.223354
N19   N     N_1   0.264628 0.947215 0.536043 -0.323082
C164  C     C_1   0.048319 0.380333 0.939317 0.238688
N20   N     N_1   0.080739 0.331031 0.957750 -0.290079
C165  C     C_1   0.624664 0.664575 0.559258 0.231741
N21   N     N_1   0.673370 0.745439 0.540268 -0.302762
C166  C     C_1   0.331064 0.950208 0.938836 0.238697
N22   N     N_1   0.249158 0.917539 0.957132 -0.287929
C167  C     C_1   0.036039 0.371729 0.558703 0.223607
N23   N     N_1   0.065241 0.321204 0.539283 -0.311286
C168  C     C_1   0.619516 0.667838 0.939315 0.238333
N24   N     N_1   0.668677 0.749647 0.957734 -0.289988

loop_
_geom_bond_atom_site_label_1
_geom_bond_atom_site_label_2
_ccdc_geom_bond_type
C151  H107  S    
C110  H3    S    
C82   C94   A    
C143  C144  S    
C33   C45   A    
C119  H27   S    
C35   C47   A    
C29   C89   A    
C105  N9    T    
C5    O3    A    
C146  H93   S    
C45   C57   A    
C141  H81   S    
C163  N19   T    
C5    O17   A    
C10   O22   A    
C154  H115  S    
C119  C120  S    
C12   O24   A    
C28   C40   A    
C133  H62   S    
C104  N8    T    
C18   C21   T    
Cr5   O26   S    
Cr5   O11   S    
C139  H76   S    
C120  H29   S    
C53   O36   S    
C2    O14   A    
C131  H57   S    
Cr1   O13   S    
C75   C168  S    
C8    O12   A    
C133  C134  S    
C122  H34   S    
C101  N5    T    
Cr4   O7    S    
C132  H58   S    
C7    C33   S    
Cr6   O9    S    
C16   C71   S    
C129  H52   S    
O28   C111  S    
C111  H7    S    
C116  H19   S    
C40   C100  S    
C131  C132  S    
C65   C77   A    
C121  H31   S    
C67   C79   A    
C26   C38   A    
Cr5   O8    S    
C154  H113  S    
Cr4   O22   S    
C129  C130  S    
C80   C92   A    
C150  H105  S    
C128  H48   S    
Cr6   O12   S    
C90   O47   S    
C111  C112  S    
C162  N18   T    
C73   C164  S    
C77   C89   A    
C147  H96   S    
C6    O4    A    
C50   O33   S    
C109  H1    S    
Cr1   O1    S    
C114  H14   S    
C153  H112  S    
O30   C115  S    
C78   C165  S    
C5    C25   S    
C56   O27   S    
C123  H37   S    
C23   C64   S    
C24   C63   S    
C138  H74   S    
C145  H91   S    
Cr6   O21   S    
C136  H69   S    
C146  H95   S    
C3    O1    A    
C80   C157  S    
C122  H33   S    
C13   C20   T    
C14   C19   T    
C34   C94   A    
C31   C91   A    
C102  N6    T    
C144  H90   S    
C86   O45   S    
Cr5   O20   S    
C142  H84   S    
C167  N23   T    
C32   C92   A    
C4    O2    A    
C2    O6    A    
C9    O21   A    
C37   C97   S    
C70   C82   A    
C47   C59   A    
C151  C152  S    
O45   C145  S    
C77   C166  S    
O32   C119  S    
C48   C108  S    
C164  N20   T    
C60   C72   A    
O44   C143  S    
O50   C155  S    
C1    O13   A    
C117  H21   S    
C39   C51   A    
C159  N15   T    
C21   C66   S    
C118  H25   S    
C106  N10   T    
C115  H16   S    
O31   C117  S    
C15   C72   S    
O39   C133  S    
C144  H88   S    
C31   C43   A    
C45   C105  S    
C60   O29   S    
C143  H86   S    
C128  H50   S    
Cr6   O26   S    
C134  H63   S    
C82   C161  S    
C113  H11   S    
O38   C131  S    
C20   C61   S    
C152  H109  S    
Cr5   O23   S    
C14   C67   S    
C34   C46   A    
C53   C65   A    
O37   C129  S    
C79   C91   A    
C18   C69   S    
C112  H9    S    
C114  H13   S    
C140  H78   S    
C46   C58   A    
C152  H108  S    
C7    O19   A    
O36   C127  S    
C71   C83   A    
C156  H119  S    
C64   C76   A    
C55   O28   S    
O35   C125  S    
C56   C68   A    
C153  C154  S    
C22   C65   S    
C126  H43   S    
Cr3   O15   S    
C125  H42   S    
C166  N22   T    
C73   C85   A    
C25   C85   A    
O34   C123  S    
C8    C34   S    
C27   C87   A    
C87   O50   S    
C41   C53   A    
C137  H72   S    
C1    O5    A    
C75   C87   A    
C15   C24   T    
O48   C151  S    
C16   C23   T    
C155  H117  S    
C132  H60   S    
C12   O10   A    
C125  C126  S    
C97   N1    T    
C43   C55   A    
C116  H20   S    
C29   C41   A    
Cr4   O26   S    
C109  H2    S    
C30   C42   A    
Cr6   O24   S    
C137  C138  S    
C136  H70   S    
C54   C66   A    
C155  C156  S    
C141  H82   S    
C130  H54   S    
C135  H66   S    
C124  H39   S    
C8    O20   A    
C6    C26   S    
C63   C75   A    
C44   C104  S    
C119  H26   S    
C139  H77   S    
C120  H28   S    
C141  C142  S    
C127  H46   S    
C130  H55   S    
C13   C68   S    
C139  C140  S    
C30   C90   A    
C83   C160  S    
C161  N17   T    
C100  N4    T    
C116  H18   S    
C78   C90   A    
C121  H32   S    
C11   O23   A    
C126  H45   S    
C156  H120  S    
C149  H102  S    
Cr4   O19   S    
O33   C121  S    
C150  H104  S    
C3    O15   A    
C160  N16   T    
C121  C122  S    
C147  H97   S    
C108  N12   T    
C41   C101  S    
C149  C150  S    
C154  H114  S    
C151  H106  S    
C110  H4    S    
C138  H73   S    
C58   O31   S    
C51   O38   S    
C145  H92   S    
C52   O37   S    
C84   C159  S    
C146  H94   S    
C9    O7    A    
C66   C78   A    
C147  C148  S    
C49   C61   A    
C11   O9    A    
O29   C113  S    
C51   C63   A    
C109  C110  S    
C153  H111  S    
C158  N14   T    
Cr3   O25   S    
C61   C73   A    
C133  H61   S    
C92   O39   S    
Cr2   O5    S    
C145  C146  S    
C120  H30   S    
C142  H83   S    
C91   O40   S    
C88   O49   S    
C134  H65   S    
C37   C49   A    
C44   C56   A    
C46   C106  S    
C124  H38   S    
C131  H56   S    
C94   O43   S    
Cr1   O4    S    
Cr4   O10   S    
C132  H59   S    
C52   C64   A    
C99   N3    T    
C43   C103  S    
C129  H51   S    
C117  H22   S    
C98   N2    T    
C123  C124  S    
C54   O35   S    
C111  H6    S    
C39   C99   S    
C124  H40   S    
C96   O41   S    
C58   C70   A    
C76   C167  S    
C33   C93   A    
C115  H17   S    
C35   C95   A    
C17   C22   T    
C95   O42   S    
C93   O44   S    
C117  C118  S    
C149  H101  S    
C128  H49   S    
C107  N11   T    
C42   C54   A    
C3    C29   S    
O47   C149  S    
C136  H68   S    
C113  H12   S    
C10   O8    A    
C118  H23   S    
C115  C116  S    
C69   C81   A    
C126  H44   S    
O46   C147  S    
C138  H75   S    
C49   O34   S    
C9    C35   S    
C62   C74   A    
C10   C36   S    
C81   C162  S    
C113  C114  S    
C68   C80   A    
C112  H8    S    
O49   C153  S    
C168  N24   T    
Cr1   O25   S    
Cr2   O17   S    
C148  H98   S    
C74   C163  S    
C148  H100  S    
O40   C135  S    
C142  H85   S    
C19   C62   S    
C118  H24   S    
C84   C96   A    
Cr1   O16   S    
C25   C37   A    
Cr3   O18   S    
C47   C107  S    
C27   C39   A    
C28   C88   A    
C36   C48   A    
O41   C137  S    
C76   C88   A    
C11   C31   S    
C17   C70   S    
C12   C32   S    
C4    O16   A    
C6    O18   A    
C48   C60   A    
Cr3   O3    S    
C59   O30   S    
C134  H64   S    
O43   C141  S    
C40   C52   A    
C57   O32   S    
C152  H110  S    
C135  H67   S    
C81   C93   A    
C36   C96   A    
Cr2   O14   S    
C26   C86   A    
C83   C95   A    
O42   C139  S    
C32   C44   A    
C72   C84   A    
C74   C86   A    
Cr3   O6    S    
C155  H116  S    
C112  H10   S    
C127  H47   S    
C140  H79   S    
C50   C62   A    
C140  H80   S    
C135  C136  S    
C85   O46   S    
C122  H35   S    
Cr2   O25   S    
C42   C102  S    
C55   C67   A    
C38   C50   A    
C110  H5    S    
C127  C128  S    
C165  N21   T    
C79   C158  S    
C89   O48   S    
C38   C98   S    
C7    O11   A    
C157  N13   T    
C144  H89   S    
C103  N7    T    
C125  H41   S    
C148  H99   S    
Cr2   O2    S    
C114  H15   S    
C143  H87   S    
C150  H103  S    
C137  H71   S    
C123  H36   S    
C1    C27   S    
C156  H118  S    
C2    C28   S    
C57   C69   A    
O27   C109  S    
C130  H53   S    
C4    C30   S    
C59   C71   A    
