data_mof_unit_56881.cif
_audit_creation_date              2012-12-10T18:47:00-0500
_audit_creation_method            fapswitch 2.2
_symmetry_space_group_name_H-M    P1
_symmetry_Int_Tables_number       1
_space_group_crystal_system       triclinic
_cell_length_a                    10.719097
_cell_length_b                    9.82301
_cell_length_c                    15.020526
_cell_angle_alpha                 90.182421
_cell_angle_beta                  90.11567
_cell_angle_gamma                 90.007169
_cell_volume                      1581.55696311

loop_
_atom_site_label
_atom_site_type_symbol
_atom_type_description
_atom_site_fract_x
_atom_site_fract_y
_atom_site_fract_z
_atom_type_partial_charge
C1    C     C_R   0.259818 0.499992 0.499934 0.872811
C2    C     C_R   0.740182 0.500008 0.500066 0.872810
C3    C     C_R   0.532263 0.745237 0.048337 -0.200118
C4    C     C_R   0.467734 0.254762 0.951663 -0.200118
C5    C     C_R   0.063933 0.378455 0.516440 -0.191025
C6    C     C_R   0.936067 0.621545 0.483560 -0.191024
C7    C     C_R   0.936136 0.378481 0.516538 -0.188888
C8    C     C_R   0.063864 0.621519 0.483462 -0.188889
C9    C     C_R   0.872596 0.500020 0.500077 -0.014471
C10   C     C_R   0.127403 0.499980 0.499923 -0.014470
C11   C     C_R   0.574782 0.072300 0.557355 -0.074304
C12   C     C_R   0.425217 0.927700 0.442644 -0.074304
C13   C     C_R   0.425229 0.071729 0.442637 -0.075469
C14   C     C_R   0.574771 0.928271 0.557363 -0.075469
C15   C     C_R   0.500240 0.499753 0.326529 0.889233
C16   C     C_R   0.499760 0.500247 0.673471 0.889233
C17   C     C_R   0.479659 0.379103 0.814704 -0.217918
C18   C     C_R   0.520339 0.620897 0.185296 -0.217919
C19   C     C_R   0.497929 0.500978 0.769325 -0.065537
C20   C     C_R   0.502070 0.499022 0.230674 -0.065537
C21   C     C_R   0.514596 0.623592 0.815196 -0.243775
C22   C     C_R   0.485402 0.376408 0.184804 -0.243774
C23   C     C_R   0.511453 0.626411 0.907791 -0.000293
C24   C     C_R   0.488544 0.373588 0.092208 -0.000293
C25   C     C_R   0.498031 0.501202 0.953635 0.017503
C26   C     C_R   0.501966 0.498797 0.046365 0.017503
C27   C     C_R   0.480981 0.378031 0.906638 0.034596
C28   C     C_R   0.519016 0.621968 0.093362 0.034596
C29   C     C_R   0.525438 0.749731 0.956100 0.442571
C30   C     C_R   0.474559 0.250269 0.043900 0.442570
H1    H     H_    0.466171 0.284439 0.778533 0.159133
H2    H     H_    0.533828 0.715561 0.221467 0.159133
H3    H     H_    0.532897 0.715373 0.777893 0.166153
H4    H     H_    0.467102 0.284627 0.222106 0.166153
H5    H     H_    0.544390 0.839532 0.085095 0.195540
H6    H     H_    0.455606 0.160468 0.914905 0.195541
H7    H     H_    0.112624 0.284002 0.529786 0.158628
H8    H     H_    0.887376 0.715998 0.470214 0.158628
H9    H     H_    0.887500 0.284049 0.529965 0.155528
H10   H     H_    0.112500 0.715951 0.470035 0.155528
H11   H     H_    0.634535 0.127240 0.603148 0.129256
H12   H     H_    0.365465 0.872760 0.396852 0.129256
H13   H     H_    0.365513 0.126213 0.396823 0.130594
H14   H     H_    0.634486 0.873787 0.603177 0.130594
N1    N     N_R   0.500000 0.857200 0.500000 -0.082536
N2    N     N_R   0.500000 0.142800 0.500000 -0.082536
O1    O     O_R   0.316770 0.614620 0.499990 -0.626418
O2    O     O_R   0.683230 0.385380 0.500010 -0.626418
O3    O     O_R   0.683230 0.614620 0.500010 -0.628334
O4    O     O_R   0.316770 0.385380 0.499990 -0.628335
O5    O     O_R   0.499980 0.614680 0.367850 -0.627872
O6    O     O_R   0.500020 0.385320 0.632150 -0.627873
O7    O     O_R   0.500020 0.614680 0.632150 -0.626173
O8    O     O_R   0.499980 0.385320 0.367850 -0.626173
Zn1   Zn    Zn3+2 0.500000 0.653120 0.500000 0.949354
Zn2   Zn    Zn3+2 0.500000 0.346880 0.500000 0.949354
O9    O     O_3   0.532744 0.876019 0.916547 -0.757696
H15   H     H_    0.476708 0.876872 0.864140 0.319928
O10   O     O_3   0.467250 0.123981 0.083453 -0.757695
H16   H     H_    0.523288 0.123126 0.135860 0.319928

loop_
_geom_bond_atom_site_label_1
_geom_bond_atom_site_label_2
_ccdc_geom_bond_type
C12   H12   S    
C4    H6    S    
C2    O3    A    
C15   O5    A    
C25   C27   A    
O4    Zn2   S    
C1    O4    A    
C14   H14   S    
C26   C28   A    
C3    H5    S    
C13   H13   S    
C30   O10   S    
C6    C9    A    
O7    Zn1   S    
C18   C28   A    
O10   H16   S    
C24   C26   A    
O9    H15   S    
C15   C20   S    
C16   C19   S    
C17   H1    S    
C23   C29   A    
C22   C24   A    
O1    Zn1   S    
C3    C28   A    
C17   C19   A    
C29   O9    S    
C11   H11   S    
C14   N1    A    
C5    C7    A    
C23   C25   A    
C21   C23   A    
C13   N2    A    
C22   H4    S    
C11   C14   A    
O8    Zn2   S    
C24   C30   A    
C18   H2    S    
C5    H7    S    
C17   C27   A    
C15   O8    A    
C7    C9    A    
C5    C10   A    
C4    C27   A    
C21   H3    S    
C12   C13   A    
N1    Zn1   S    
C18   C20   A    
O2    Zn2   S    
N2    Zn2   S    
C16   O6    A    
C3    C29   A    
C7    H9    S    
C16   O7    A    
C1    O1    A    
C11   N2    A    
C6    C8    A    
C8    H10   S    
O5    Zn1   S    
C2    O2    A    
C25   C26   A    
O3    Zn1   S    
C2    C9    S    
C6    H8    S    
C8    C10   A    
C4    C30   A    
C1    C10   S    
O6    Zn2   S    
C20   C22   A    
C12   N1    A    
C19   C21   A    
