data_mof_unit_31517.cif
_audit_creation_date              2012-12-11T14:50:54-0500
_audit_creation_method            fapswitch 2.2
_symmetry_space_group_name_H-M    P1
_symmetry_Int_Tables_number       1
_space_group_crystal_system       triclinic
_cell_length_a                    10.935949
_cell_length_b                    10.879823
_cell_length_c                    18.842617
_cell_angle_alpha                 90.147908
_cell_angle_beta                  90.02068
_cell_angle_gamma                 60.341117
_cell_volume                      1948.18879164

loop_
_atom_site_label
_atom_site_type_symbol
_atom_type_description
_atom_site_fract_x
_atom_site_fract_y
_atom_site_fract_z
_atom_type_partial_charge
C1    C     C_R   0.235599 0.646165 0.609671 0.562786
C2    C     C_R   0.556928 0.245472 0.797936 -0.133986
C3    C     C_R   0.539097 0.264299 0.725590 -0.122875
C4    C     C_R   0.652641 0.621536 0.601546 0.544601
C5    C     C_R   0.654040 0.199078 0.679340 0.014261
C6    C     C_R   0.176152 0.555831 0.721482 0.008733
C7    C     C_R   0.171593 0.561554 0.795914 -0.165620
C8    C     C_R   0.172493 0.673227 0.832853 -0.003394
C9    C     C_R   0.189519 0.774318 0.795662 -0.159449
C10   C     C_R   0.195549 0.770240 0.722695 -0.176451
C11   C     C_R   0.191181 0.661301 0.684260 -0.000080
C12   C     C_3   0.656189 0.558844 0.801287 -0.245184
C13   C     C_R   0.706187 0.524081 0.271261 -0.134101
C14   C     C_R   0.707835 0.537802 0.198223 0.043806
C15   C     C_R   0.654256 0.673856 0.168971 0.034114
C16   C     C_R   0.626021 0.232494 0.604260 0.529501
C17   C     C_R   0.592449 0.793707 0.213601 -0.131178
C18   C     C_R   0.586404 0.778797 0.286607 -0.143875
C19   C     C_R   0.647648 0.643614 0.315686 -0.006697
C20   C     C_R   0.510548 0.220033 0.278218 0.091028
C21   C     C_R   0.524757 0.209116 0.205535 -0.119755
C22   C     C_R   0.656618 0.156798 0.175334 0.028681
C23   C     C_3   0.696810 0.674441 0.812519 0.039059
C24   C     C_R   0.775640 0.121527 0.217392 -0.117349
C25   C     C_R   0.761851 0.142216 0.289488 -0.176456
C26   C     C_R   0.630464 0.191168 0.320437 0.041215
C27   C     C_R   0.251745 0.719971 0.281705 -0.125451
C28   C     C_R   0.226815 0.647406 0.399539 0.553037
C29   C     C_R   0.238263 0.719612 0.209118 0.040662
C30   C     C_R   0.159852 0.660851 0.180288 0.006755
C31   C     C_R   0.110343 0.589696 0.223649 -0.165894
C32   C     C_R   0.127366 0.588221 0.296433 -0.135797
C33   C     C_R   0.193675 0.657721 0.325412 0.016833
C34   C     C_3   0.666446 0.647139 0.677153 0.037229
C35   C     C_R   0.702532 0.102553 0.896401 0.548825
C36   C     C_R   0.722723 0.687906 0.888323 0.552350
C37   C     C_R   0.117350 0.706697 0.905187 0.554905
C38   C     C_R   0.676112 0.106361 0.103832 0.576853
C39   C     C_R   0.695518 0.690339 0.097585 0.592073
C40   C     C_R   0.640478 0.620709 0.391113 0.546369
C41   C     C_R   0.096411 0.706750 0.111515 0.571341
C42   C     C_R   0.612777 0.233778 0.393738 0.557453
C43   C     C_3   0.578302 0.816443 0.781028 -0.222427
C44   C     C_3   0.563394 0.801314 0.700650 -0.235152
C45   C     C_3   0.817745 0.613421 0.692601 -0.232812
C46   C     C_3   0.834573 0.634472 0.771402 -0.231437
C47   C     C_2   0.161982 0.440477 0.685937 0.538515
C48   C     C_2   0.775511 0.408119 0.154247 0.583675
C49   C     C_2   0.297599 0.790551 0.165345 0.585346
C50   C     C_3   0.634319 0.545407 0.721517 -0.223503
C51   C     C_R   0.790458 0.122709 0.706866 -0.151827
C52   C     C_R   0.808978 0.102059 0.780148 -0.142508
C53   C     C_R   0.691139 0.159606 0.825526 0.016237
Cr1   Cr    Cr6+3 0.392930 0.397900 0.502230 1.066364
Cr2   Cr    Cr6+3 0.398240 0.708600 0.501260 1.018087
Cr3   Cr    Cr6+3 0.708800 0.393470 0.496460 1.021609
Cr4   Cr    Cr6+3 0.937620 0.938540 0.007640 1.054644
Cr5   Cr    Cr6+3 0.625150 0.937450 0.994520 1.035143
Cr6   Cr    Cr6+3 0.937990 0.625080 0.001190 1.045633
H1    H     H_    0.603063 0.902980 0.790109 0.154563
H2    H     H_    0.190368 0.861996 0.822605 0.143330
H3    H     H_    0.476350 0.847269 0.807811 0.134797
H4    H     H_    0.207764 0.852120 0.696625 0.145532
H5    H     H_    0.748860 0.418970 0.293468 0.164433
H6    H     H_    0.555339 0.898784 0.192502 0.143578
H7    H     H_    0.538771 0.871728 0.320327 0.128813
H8    H     H_    0.434359 0.231831 0.172861 0.136695
H9    H     H_    0.880619 0.072804 0.195189 0.175157
H10   H     H_    0.853675 0.118875 0.321068 0.146082
H11   H     H_    0.311271 0.766246 0.303989 0.169348
H12   H     H_    0.704552 0.433852 0.704873 0.148446
H13   H     H_    0.452741 0.829868 0.688957 0.146648
H14   H     H_    0.049483 0.544444 0.202016 0.158098
H15   H     H_    0.087044 0.535591 0.329989 0.145074
H16   H     H_    0.586366 0.876068 0.671100 0.131053
H17   H     H_    0.863042 0.718996 0.778025 0.122529
H18   H     H_    0.845959 0.680920 0.659963 0.145908
H19   H     H_    0.740540 0.455598 0.821866 0.144860
H20   H     H_    0.557785 0.586210 0.830833 0.128262
H21   H     H_    0.524056 0.569693 0.712109 0.125187
H22   H     H_    0.101108 0.372557 0.600147 0.332703
H23   H     H_    0.922890 0.534383 0.792423 0.159077
H24   H     H_    0.949628 0.220709 0.135619 0.341575
H25   H     H_    0.297800 0.290421 0.269475 0.225889
H26   H     H_    0.383374 0.166834 0.330903 0.236328
H27   H     H_    0.317087 0.963620 0.150863 0.334838
H28   H     H_    0.889928 0.500708 0.679298 0.187511
H29   H     H_    0.881028 0.076403 0.671930 0.127845
H30   H     H_    0.913652 0.034141 0.800762 0.138707
H31   H     H_    0.465009 0.291720 0.832044 0.144074
H32   H     H_    0.434958 0.331337 0.705395 0.167003
H33   H     H_    0.157295 0.483870 0.825069 0.159838
N1    N     N_3   0.375369 0.258445 0.308604 -0.573395
O1    O     O_R   0.507430 0.255570 0.581420 -0.511237
O2    O     O_R   0.837200 0.593290 0.915250 -0.517249
O3    O     O_R   0.065330 0.635370 0.931590 -0.511769
O4    O     O_R   0.280190 0.527390 0.578910 -0.454904
O5    O     O_R   0.068300 0.828790 0.091860 -0.495452
O6    O     O_R   0.798730 0.057480 0.079370 -0.501257
O7    O     O_R   0.584680 0.080480 0.076790 -0.534093
O8    O     O_R   0.626790 0.809640 0.067050 -0.499108
O9    O     O_R   0.816010 0.596460 0.076500 -0.493438
O10   O     O_R   0.045680 0.638310 0.081070 -0.513116
O11   O     O_3   0.833590 0.833690 0.001120 -0.272859
O12   O     O_R   0.524460 0.695920 0.424060 -0.504501
O13   O     O_R   0.260310 0.739740 0.584580 -0.536694
O14   O     O_R   0.532250 0.695150 0.573830 -0.509560
O15   O     O_R   0.744930 0.503430 0.576380 -0.517431
O16   O     O_R   0.699250 0.276390 0.571950 -0.507369
O17   O     O_R   0.499020 0.256400 0.419850 -0.487302
O18   O     O_R   0.272400 0.528160 0.429140 -0.476924
O19   O     O_R   0.251910 0.740570 0.423020 -0.527141
O20   O     O_2   0.196432 0.329960 0.717559 -0.559012
O21   O     O_R   0.103929 0.459146 0.617970 -0.692382
O22   O     O_2   0.717116 0.399229 0.100707 -0.496633
O23   O     O_R   0.736530 0.504260 0.414810 -0.514904
O24   O     O_R   0.909262 0.298866 0.172539 -0.710752
O25   O     O_2   0.356766 0.737554 0.109259 -0.498773
O26   O     O_R   0.280856 0.920866 0.187248 -0.712543
O27   O     O_R   0.691460 0.277160 0.422180 -0.515632
O28   O     O_3   0.499990 0.499990 0.499980 -0.267859
O29   O     O_R   0.089490 0.825610 0.930610 -0.512608
O30   O     O_R   0.818370 0.054540 0.929880 -0.499684
O31   O     O_R   0.605870 0.077310 0.915530 -0.518827
O32   O     O_R   0.646440 0.806700 0.917570 -0.503840

loop_
_geom_bond_atom_site_label_1
_geom_bond_atom_site_label_2
_ccdc_geom_bond_type
C47   O21   S    
C20   N1    S    
Cr2   O28   S    
Cr2   O19   S    
C35   C53   S    
C10   H4    S    
C1    C11   S    
C43   C44   S    
C46   H17   S    
C7    C8    A    
C29   C49   S    
C45   C46   S    
C27   C33   A    
C4    O15   A    
C12   C23   S    
Cr2   O12   S    
C9    H2    S    
Cr6   O11   S    
C35   O31   A    
C45   H28   S    
C32   H15   S    
C30   C31   A    
C31   H14   S    
C27   C29   A    
C7    H33   S    
Cr4   O6    S    
C12   H20   S    
C23   C43   S    
Cr1   O17   S    
C3    H32   S    
C18   C19   A    
C2    H31   S    
Cr3   O15   S    
C5    C16   S    
Cr4   O29   S    
C46   H23   S    
H26   N1    S    
C36   O32   A    
C8    C9    A    
C12   H19   S    
H22   O21   S    
C30   C41   S    
H27   O26   S    
C9    C10   A    
C1    O13   A    
C23   C46   S    
C21   C22   A    
C21   H8    S    
Cr3   O27   S    
C52   H30   S    
Cr6   O2    S    
C16   O16   A    
C39   O8    A    
C28   O18   A    
C4    O14   A    
C4    C34   S    
C34   C50   S    
C6    C47   S    
C13   C19   A    
Cr2   O13   S    
C51   C52   A    
Cr5   O7    S    
C24   C25   A    
Cr5   O31   S    
C38   O7    A    
C10   C11   A    
C1    O4    A    
C6    C11   A    
C34   C45   S    
C14   C48   S    
C25   C26   A    
C28   O19   A    
C41   O10   A    
C37   O3    A    
Cr2   O14   S    
C44   H16   S    
C50   H12   S    
C29   C30   A    
Cr4   O30   S    
C49   O25   D    
C17   C18   A    
Cr3   O23   S    
C34   C44   S    
Cr1   O4    S    
Cr5   O8    S    
C15   C39   S    
C48   O24   S    
C27   H11   S    
C43   H1    S    
C48   O22   D    
Cr1   O28   S    
C28   C33   S    
C22   C24   A    
Cr5   O11   S    
C8    C37   S    
Cr3   O16   S    
C52   C53   A    
C26   C42   S    
C39   O9    A    
C47   O20   D    
Cr4   O11   S    
C14   C15   A    
Cr6   O9    S    
C16   O1    A    
C31   C32   A    
C38   O6    A    
C3    C5    A    
C2    C53   A    
C50   H21   S    
C51   H29   S    
C40   O23   A    
C12   C50   S    
C15   C17   A    
C6    C7    A    
C18   H7    S    
C17   H6    S    
Cr6   O10   S    
C32   C33   A    
H24   O24   S    
C35   O30   A    
C2    C3    A    
C42   O17   A    
Cr3   O28   S    
C36   O2    A    
C42   O27   A    
C49   O26   S    
C13   H5    S    
C20   C26   A    
Cr4   O5    S    
Cr1   O18   S    
C44   H13   S    
H25   N1    S    
Cr1   O1    S    
C19   C40   S    
C24   H9    S    
C37   O29   A    
C25   H10   S    
C20   C21   A    
Cr5   O32   S    
C23   C36   S    
Cr6   O3    S    
C41   O5    A    
C5    C51   A    
C45   H18   S    
C13   C14   A    
C43   H3    S    
C40   O12   A    
C22   C38   S    
