data_mof_unit_57871.cif
_audit_creation_date              2012-12-11T15:49:02-0500
_audit_creation_method            fapswitch 2.2
_symmetry_space_group_name_H-M    P1
_symmetry_Int_Tables_number       1
_space_group_crystal_system       triclinic
_cell_length_a                    21.576898
_cell_length_b                    7.18076
_cell_length_c                    14.851792
_cell_angle_alpha                 89.593375
_cell_angle_beta                  106.130297
_cell_angle_gamma                 89.875856
_cell_volume                      2210.44917125

loop_
_atom_site_label
_atom_site_type_symbol
_atom_type_description
_atom_site_fract_x
_atom_site_fract_y
_atom_site_fract_z
_atom_type_partial_charge
O1    O     O_R   0.335860 0.638190 0.002110 -0.547786
O2    O     O_R   0.664140 0.361810 0.997890 -0.547786
O3    O     O_R   0.164140 0.138190 0.997890 -0.548216
O4    O     O_R   0.835860 0.861810 0.002110 -0.548216
O5    O     O_R   0.217530 0.305920 0.861960 -0.535234
O6    O     O_R   0.782470 0.694080 0.138040 -0.535234
O7    O     O_R   0.282470 0.805920 0.138040 -0.535618
O8    O     O_R   0.717530 0.194080 0.861960 -0.535618
C1    C     C_R   0.205836 0.477585 0.825889 0.681006
C2    C     C_R   0.794164 0.522415 0.174111 0.681005
C3    C     C_R   0.294232 0.975907 0.174197 0.680131
C4    C     C_R   0.705768 0.024093 0.825803 0.680131
O9    O     O_R   0.338690 0.308320 0.993240 -0.523891
O10   O     O_R   0.661310 0.691680 0.006760 -0.523891
O11   O     O_R   0.161310 0.808320 0.006760 -0.523302
O12   O     O_R   0.838690 0.191680 0.993240 -0.523302
O13   O     O_R   0.286170 0.140430 0.130100 -0.539253
O14   O     O_R   0.713830 0.859570 0.869900 -0.539253
O15   O     O_R   0.213830 0.640430 0.869900 -0.539175
O16   O     O_R   0.786170 0.359570 0.130100 -0.539175
C5    C     C_R   0.364780 0.476744 0.997145 0.725764
C6    C     C_R   0.635220 0.523256 0.002855 0.725763
C7    C     C_R   0.135240 0.976999 0.002958 0.726780
C8    C     C_R   0.864760 0.023001 0.997042 0.726781
O17   O     O_3   0.232630 0.472410 0.044750 -0.375830
O18   O     O_3   0.767370 0.527590 0.955250 -0.375830
O19   O     O_3   0.267370 0.972410 0.955250 -0.375893
O20   O     O_3   0.732630 0.027590 0.044750 -0.375894
V1    V     V_3+5 0.253220 0.196620 0.991700 1.421687
V2    V     V_3+5 0.746780 0.803380 0.008300 1.421687
V3    V     V_3+5 0.246780 0.696620 0.008300 1.422935
V4    V     V_3+5 0.753220 0.303380 0.991700 1.422935
C9    C     C_R   0.040197 0.866175 0.058139 0.289981
C10   C     C_R   0.959803 0.133825 0.941861 0.289981
C11   C     C_R   0.460018 0.367790 0.941945 0.287879
C12   C     C_R   0.539982 0.632210 0.058055 0.287879
C13   C     C_R   0.974623 0.880937 0.055330 -0.284809
C14   C     C_R   0.025377 0.119063 0.944670 -0.284809
C15   C     C_R   0.525531 0.383032 0.944552 -0.285385
C16   C     C_R   0.474469 0.616968 0.055448 -0.285385
H1    H     H_    0.955699 0.789746 0.099735 0.130479
H2    H     H_    0.044301 0.210254 0.900265 0.130479
H3    H     H_    0.544583 0.293397 0.900091 0.133545
H4    H     H_    0.455417 0.706603 0.099909 0.133546
C17   C     C_R   0.933840 0.013377 0.997670 -0.109674
C18   C     C_R   0.066160 0.986623 0.002329 -0.109675
C19   C     C_R   0.566106 0.513904 0.002112 -0.111035
C20   C     C_R   0.433893 0.486095 0.997887 -0.111035
C21   C     C_R   0.677859 0.020235 0.724325 -0.025535
C22   C     C_R   0.322141 0.979765 0.275675 -0.025535
C23   C     C_R   0.822141 0.510370 0.275399 -0.023475
C24   C     C_R   0.177859 0.489630 0.724601 -0.023475
C25   C     C_R   0.688486 0.067687 0.568411 -0.166553
C26   C     C_R   0.311514 0.932313 0.431589 -0.166553
C27   C     C_R   0.810834 0.448262 0.429770 -0.165515
C28   C     C_R   0.189166 0.551738 0.570229 -0.165515
C29   C     C_R   0.716262 0.057737 0.664803 -0.169860
C30   C     C_R   0.283738 0.942263 0.335197 -0.169860
C31   C     C_R   0.783179 0.470657 0.333834 -0.169774
C32   C     C_R   0.216820 0.529343 0.666165 -0.169774
C33   C     C_R   0.611431 0.994322 0.687668 -0.216474
C34   C     C_R   0.388569 0.005678 0.312332 -0.216473
C35   C     C_R   0.888868 0.527478 0.312603 -0.214380
C36   C     C_R   0.111132 0.472522 0.687397 -0.214380
C37   C     C_R   0.581503 0.008672 0.590049 0.084212
C38   C     C_R   0.418497 0.991328 0.409951 0.084212
C39   C     C_R   0.918520 0.502928 0.409756 0.084163
C40   C     C_R   0.081480 0.497072 0.590244 0.084163
C41   C     C_R   0.621685 0.044687 0.530697 0.142336
C42   C     C_R   0.378315 0.955313 0.469303 0.142336
C43   C     C_R   0.877906 0.462949 0.468026 0.141726
C44   C     C_R   0.122094 0.537051 0.531973 0.141726
C45   C     C_R   0.513316 0.991192 0.549700 0.059800
C46   C     C_R   0.486684 0.008808 0.450300 0.059800
C47   C     C_R   0.986811 0.514474 0.450613 0.060011
C48   C     C_R   0.013189 0.485526 0.549387 0.060011
C49   C     C_R   0.529138 0.042253 0.394595 -0.193645
C50   C     C_R   0.470862 0.957747 0.605405 -0.193645
C51   C     C_R   0.970413 0.446510 0.603971 -0.191259
C52   C     C_R   0.029587 0.553490 0.396029 -0.191259
C53   C     C_R   0.595065 0.059785 0.434194 -0.204646
C54   C     C_R   0.404935 0.940215 0.565805 -0.204646
C55   C     C_R   0.904334 0.435945 0.563932 -0.205073
C56   C     C_R   0.095666 0.564055 0.436068 -0.205073
H5    H     H_    0.625571 0.086584 0.388553 0.122894
H6    H     H_    0.374429 0.913416 0.611446 0.122894
H7    H     H_    0.873551 0.405169 0.608721 0.122133
H8    H     H_    0.126449 0.594831 0.391279 0.122133
H9    H     H_    0.415284 0.031811 0.262179 0.091256
H10   H     H_    0.584716 0.968189 0.737821 0.091256
H11   H     H_    0.084081 0.443637 0.736841 0.088802
H12   H     H_    0.915919 0.556363 0.263158 0.088803
H13   H     H_    0.232370 0.919649 0.306906 0.111443
H14   H     H_    0.767630 0.080351 0.693094 0.111443
H15   H     H_    0.268501 0.544340 0.694977 0.107177
H16   H     H_    0.731499 0.455660 0.305023 0.107177
H17   H     H_    0.719158 0.096441 0.523266 0.114286
H18   H     H_    0.280842 0.903559 0.476733 0.114286
H19   H     H_    0.779799 0.417130 0.474096 0.114549
H20   H     H_    0.220201 0.582870 0.525903 0.114549
H21   H     H_    0.513215 0.056336 0.319511 0.121545
H22   H     H_    0.486785 0.943664 0.680488 0.121545
H23   H     H_    0.986180 0.422585 0.678466 0.119550
H24   H     H_    0.013819 0.577415 0.321534 0.119550
N1    N     N_2   0.080842 0.739974 0.122597 -0.527111
H25   H     H_    0.077083 0.754134 0.189965 0.240303
C57   C     C_3   0.075078 0.547538 0.093340 -0.485851
H26   H     H_    0.027044 0.492107 0.093255 0.168389
H27   H     H_    0.112771 0.462949 0.143009 0.192786
H28   H     H_    0.082009 0.533845 0.022309 0.207394
N2    N     N_2   0.919157 0.260026 0.877403 -0.527110
H29   H     H_    0.922917 0.245865 0.810035 0.240303
C58   C     C_3   0.924922 0.452462 0.906659 -0.485850
H30   H     H_    0.972956 0.507893 0.906745 0.168389
H31   H     H_    0.917991 0.466155 0.977691 0.207394
H32   H     H_    0.887229 0.537051 0.856991 0.192786
N3    N     N_2   0.419540 0.243811 0.877396 -0.524775
H33   H     H_    0.423413 0.259956 0.810092 0.245408
C59   C     C_3   0.425335 0.050431 0.906630 -0.486779
H34   H     H_    0.473413 0.994551 0.906841 0.167137
H35   H     H_    0.387736 0.967702 0.856847 0.190948
H36   H     H_    0.418276 0.034618 0.977577 0.207371
N4    N     N_2   0.580460 0.756189 0.122604 -0.524775
H37   H     H_    0.576586 0.740044 0.189908 0.245408
C60   C     C_3   0.574665 0.949569 0.093370 -0.486780
H38   H     H_    0.526586 0.005449 0.093159 0.167137
H39   H     H_    0.581724 0.965382 0.022423 0.207371
H40   H     H_    0.612264 0.032298 0.143153 0.190948

loop_
_geom_bond_atom_site_label_1
_geom_bond_atom_site_label_2
_ccdc_geom_bond_type
O17   V3    S    
C55   H7    S    
O1    C5    A    
C9    C18   A    
C27   C31   A    
O19   V1    S    
O13   V1    S    
C45   C46   A    
O3    C7    A    
N2    H29   S    
C48   C51   A    
C52   C56   A    
O15   V3    S    
C4    C21   S    
C21   C29   A    
N4    H37   S    
O18   V4    S    
N1    C57   S    
C52   H24   S    
C8    C17   S    
C36   C40   A    
O9    V1    S    
C30   H13   S    
C14   H2    S    
N3    C59   S    
O16   V4    S    
C11   C15   A    
O4    C8    A    
N4    C60   S    
C50   H22   S    
C2    C23   S    
C38   C46   A    
C34   H9    S    
O1    V3    S    
C37   C45   A    
C12   C19   A    
O2    V4    S    
O3    V1    S    
C24   C32   A    
C49   H21   S    
C1    O15   A    
C2    O16   A    
C28   C44   A    
C46   C49   A    
C35   H12   S    
O2    C6    A    
C60   H40   S    
C57   H26   S    
O14   V2    S    
C47   C52   A    
C43   C55   A    
C40   C44   A    
C5    C20   S    
O11   C7    A    
C6    C19   S    
C25   C41   A    
O12   C8    A    
C7    C18   S    
C10   N2    S    
C57   H27   S    
C27   H19   S    
C51   H23   S    
C1    C24   S    
O10   V2    S    
C11   C20   A    
C53   H5    S    
O5    V1    S    
C59   H35   S    
C35   C39   A    
O7    V3    S    
C34   C38   A    
C22   C30   A    
C12   C16   A    
C12   N4    S    
C23   C35   A    
C24   C36   A    
C25   C29   A    
C15   H3    S    
C25   H17   S    
C54   H6    S    
C45   C50   A    
C9    C13   A    
C28   C32   A    
O8    V4    S    
O7    C3    A    
C47   C48   A    
O5    C1    A    
C50   C54   A    
C26   C42   A    
C49   C53   A    
O8    C4    A    
O9    C5    A    
N2    C58   S    
C10   C17   A    
C40   C48   A    
C44   C56   A    
O6    V2    S    
C29   H14   S    
C60   H38   S    
C22   C34   A    
C57   H28   S    
C11   N3    S    
C23   C31   A    
C31   H16   S    
C28   H20   S    
C13   C17   A    
C33   H10   S    
C15   C19   A    
C58   H30   S    
C26   C30   A    
C59   H36   S    
C16   C20   A    
C3    O13   A    
C10   C14   A    
C56   H8    S    
O6    C2    A    
C59   H34   S    
O11   V3    S    
O12   V4    S    
N1    H25   S    
C9    N1    S    
C58   H32   S    
O20   V2    S    
C3    C22   S    
N3    H33   S    
C51   C55   A    
C21   C33   A    
O10   C6    A    
C38   C42   A    
C37   C41   A    
C39   C43   A    
C13   H1    S    
C42   C54   A    
O4    V2    S    
C14   C18   A    
C41   C53   A    
C32   H15   S    
C33   C37   A    
C16   H4    S    
C39   C47   A    
C4    O14   A    
C60   H39   S    
C26   H18   S    
C36   H11   S    
C27   C43   A    
C58   H31   S    
