data_mof_unit_5460.cif
_audit_creation_date              2013-03-05T15:45:58-0500
_audit_creation_method            fapswitch 2.2
_symmetry_space_group_name_H-M    P1
_symmetry_Int_Tables_number       1
_space_group_crystal_system       triclinic
_cell_length_a                    18.913205
_cell_length_b                    10.958676
_cell_length_c                    18.749129
_cell_angle_alpha                 90.231735
_cell_angle_beta                  89.898328
_cell_angle_gamma                 90.176397
_cell_volume                      3885.95734694

loop_
_atom_site_label
_atom_site_type_symbol
_atom_site_description
_atom_site_fract_x
_atom_site_fract_y
_atom_site_fract_z
_atom_type_partial_charge
O1    O     O_R   0.787510 0.042610 0.670410 -0.387899
O2    O     O_R   0.212490 0.042610 0.329590 -0.413324
O3    O     O_R   0.287510 0.542610 0.670410 -0.404401
O4    O     O_R   0.712490 0.542610 0.329590 -0.395322
O5    O     O_R   0.765670 0.292090 0.675090 -0.502392
O6    O     O_R   0.234330 0.292090 0.324910 -0.502393
O7    O     O_R   0.265670 0.792090 0.675090 -0.502287
O8    O     O_R   0.734330 0.792090 0.324910 -0.503306
C1    C     C_R   0.732496 0.384096 0.648774 0.560543
C2    C     C_R   0.267621 0.384847 0.350631 0.551493
C3    C     C_R   0.232333 0.884310 0.649207 0.561651
C4    C     C_R   0.767480 0.884558 0.351104 0.550882
O9    O     O_R   0.670220 0.409020 0.668560 -0.453400
O10   O     O_R   0.329780 0.409020 0.331440 -0.465458
O11   O     O_R   0.170220 0.909020 0.668560 -0.464452
O12   O     O_R   0.829780 0.909020 0.331440 -0.454730
O13   O     O_R   0.556580 0.251590 0.674980 -0.474506
O14   O     O_R   0.443420 0.251590 0.325020 -0.453529
O15   O     O_R   0.056580 0.751590 0.674980 -0.451452
O16   O     O_R   0.943420 0.751590 0.325020 -0.475648
C5    C     C_R   0.531276 0.154720 0.647094 0.538627
C6    C     C_R   0.438029 0.151138 0.361100 0.535889
C7    C     C_R   0.061970 0.650962 0.638904 0.534614
C8    C     C_R   0.968757 0.655100 0.352919 0.532343
O17   O     O_R   0.545890 0.049670 0.670030 -0.523782
O18   O     O_R   0.454110 0.049670 0.329970 -0.491721
O19   O     O_R   0.045890 0.549670 0.670030 -0.489196
O20   O     O_R   0.954110 0.549670 0.329970 -0.523909
O21   O     O_R   0.681340 0.957860 0.676500 -0.463349
O22   O     O_R   0.318660 0.957860 0.323500 -0.497564
O23   O     O_R   0.181340 0.457860 0.676500 -0.487550
O24   O     O_R   0.818660 0.457860 0.323500 -0.472661
C9    C     C_R   0.727669 0.020662 0.639602 0.577466
C10   C     C_R   0.271061 0.016934 0.360758 0.543860
C11   C     C_R   0.228862 0.517135 0.639294 0.548536
C12   C     C_R   0.772269 0.520490 0.360480 0.573355
O25   O     O_R   0.787380 0.044010 0.830940 -0.477075
O26   O     O_R   0.212620 0.044010 0.169060 -0.429380
O27   O     O_R   0.287380 0.544010 0.830940 -0.478427
O28   O     O_R   0.712620 0.544010 0.169060 -0.427953
O29   O     O_R   0.765540 0.293390 0.823910 -0.495236
O30   O     O_R   0.234460 0.293390 0.176090 -0.446160
O31   O     O_R   0.265540 0.793390 0.823910 -0.492910
O32   O     O_R   0.734460 0.793390 0.176090 -0.448329
C13   C     C_R   0.729820 0.378479 0.852271 0.601360
C14   C     C_R   0.269915 0.376971 0.147180 0.559877
C15   C     C_R   0.229821 0.878478 0.852271 0.599654
C16   C     C_R   0.769915 0.876970 0.147180 0.562851
O33   O     O_R   0.670090 0.410410 0.829090 -0.454079
O34   O     O_R   0.329910 0.410410 0.170910 -0.488343
O35   O     O_R   0.170090 0.910410 0.829090 -0.458077
O36   O     O_R   0.829910 0.910410 0.170910 -0.484308
O37   O     O_R   0.556450 0.252890 0.823790 -0.453914
O38   O     O_R   0.443550 0.252890 0.176210 -0.445076
O39   O     O_R   0.056450 0.752890 0.823790 -0.448649
O40   O     O_R   0.943550 0.752890 0.176210 -0.450544
C17   C     C_R   0.530771 0.156796 0.853284 0.592315
C18   C     C_R   0.470013 0.157539 0.147456 0.596388
C19   C     C_R   0.030776 0.656793 0.853286 0.609513
C20   C     C_R   0.970013 0.657546 0.147457 0.578341
O41   O     O_R   0.545750 0.051070 0.830560 -0.456455
O42   O     O_R   0.454250 0.051070 0.169440 -0.446258
O43   O     O_R   0.045750 0.551070 0.830560 -0.451832
O44   O     O_R   0.954250 0.551070 0.169440 -0.450526
O45   O     O_R   0.681210 0.959150 0.825320 -0.488605
O46   O     O_R   0.318790 0.959150 0.174680 -0.494396
O47   O     O_R   0.181210 0.459150 0.825320 -0.489403
O48   O     O_R   0.818790 0.459150 0.174680 -0.493336
C21   C     C_R   0.740864 0.974348 0.855264 0.587287
C22   C     C_R   0.258738 0.970577 0.145864 0.553836
C23   C     C_R   0.240863 0.474352 0.855266 0.582477
C24   C     C_R   0.758736 0.470572 0.145866 0.559862
Cr1   Cr    Cr6+3 0.771950 0.169480 0.750100 1.156544
Cr2   Cr    Cr6+3 0.228050 0.169480 0.249900 1.171033
Cr3   Cr    Cr6+3 0.271950 0.669480 0.750100 1.144859
Cr4   Cr    Cr6+3 0.728050 0.669480 0.249900 1.183669
Cr5   Cr    Cr6+3 0.614930 0.323340 0.749170 1.180242
Cr6   Cr    Cr6+3 0.385070 0.323340 0.250830 1.157204
Cr7   Cr    Cr6+3 0.114930 0.823340 0.749170 1.168679
Cr8   Cr    Cr6+3 0.885070 0.823340 0.250830 1.167682
Cr9   Cr    Cr6+3 0.616590 0.010620 0.750610 1.139337
Cr10  Cr    Cr6+3 0.383410 0.010620 0.249390 1.125027
Cr11  Cr    Cr6+3 0.116590 0.510620 0.750610 1.132931
Cr12  Cr    Cr6+3 0.883410 0.510620 0.249390 1.131906
O49   O     O_3   0.667820 0.167810 0.749960 -0.353529
O50   O     O_3   0.332180 0.167810 0.250040 -0.357281
O51   O     O_3   0.167820 0.667810 0.749960 -0.364434
O52   O     O_3   0.832180 0.667810 0.250040 -0.346476
C25   C     C_R   0.455581 0.157208 0.436308 0.032696
C26   C     C_R   0.491329 0.160528 0.581345 0.019387
C27   C     C_R   0.008699 0.661094 0.418728 0.016029
C28   C     C_R   0.044129 0.657007 0.563818 0.032908
C29   C     C_R   0.462490 0.268317 0.472845 -0.036687
C30   C     C_R   0.481585 0.269883 0.544372 0.010743
C31   C     C_R   0.018640 0.770239 0.456346 0.006643
C32   C     C_R   0.037598 0.768316 0.527892 -0.038332
C33   C     C_R   0.474956 0.050033 0.546893 -0.146062
C34   C     C_R   0.461128 0.048376 0.474635 -0.149280
C35   C     C_R   0.038301 0.548393 0.524907 -0.149567
C36   C     C_R   0.024776 0.550439 0.452612 -0.146851
C37   C     C_3   0.509943 0.374771 0.456685 0.113330
C38   C     C_3   0.531316 0.375419 0.535213 0.103929
C39   C     C_3   0.969238 0.875646 0.465948 0.105361
C40   C     C_3   0.990400 0.874671 0.544539 0.111323
H1    H     H_    0.480967 0.962892 0.573254 0.179336
H2    H     H_    0.458965 0.960805 0.448161 0.166164
H3    H     H_    0.040139 0.460762 0.550905 0.165565
H4    H     H_    0.018725 0.463322 0.425754 0.179543
H5    H     H_    0.912942 0.853373 0.454616 0.146968
H6    H     H_    0.020888 0.955789 0.563095 0.207169
H7    H     H_    0.479644 0.455910 0.438715 0.209290
H8    H     H_    0.587577 0.353170 0.546207 0.144650
C41   C     C_R   0.676197 0.939247 0.525721 -0.130497
C42   C     C_R   0.315342 0.919573 0.471729 -0.165378
C43   C     C_R   0.184045 0.420938 0.527673 -0.163165
C44   C     C_R   0.823416 0.438244 0.473861 -0.130438
H9    H     H_    0.630348 0.906135 0.554484 0.200867
H10   H     H_    0.356044 0.874430 0.441341 0.211429
H11   H     H_    0.143047 0.375853 0.557718 0.209912
H12   H     H_    0.869055 0.405036 0.444837 0.202836
C45   C     C_R   0.682277 0.912749 0.452908 -0.119009
C46   C     C_R   0.312487 0.901532 0.545076 -0.160830
C47   C     C_R   0.186915 0.403447 0.454201 -0.158717
C48   C     C_R   0.817384 0.411513 0.546544 -0.119961
H13   H     H_    0.641338 0.861375 0.426389 0.215951
H14   H     H_    0.353002 0.849853 0.571114 0.217474
H15   H     H_    0.146076 0.352335 0.427663 0.215924
H16   H     H_    0.858177 0.360102 0.572670 0.217321
C49   C     C_R   0.741937 0.950994 0.414993 -0.000741
C50   C     C_R   0.256291 0.947676 0.584561 -0.003984
C51   C     C_R   0.243743 0.448766 0.415271 -0.007754
C52   C     C_R   0.758129 0.450136 0.584910 0.002502
C53   C     C_R   0.785886 0.039901 0.446179 0.265530
C54   C     C_R   0.212060 0.035711 0.553343 0.251230
C55   C     C_R   0.288604 0.536005 0.447122 0.249336
C56   C     C_R   0.714642 0.539475 0.554289 0.266656
C57   C     C_R   0.786148 0.053865 0.520036 0.238649
C58   C     C_R   0.211952 0.048763 0.479600 0.231096
C59   C     C_R   0.288640 0.548588 0.520913 0.231504
C60   C     C_R   0.714264 0.553731 0.480478 0.238639
C61   C     C_R   0.731111 0.001340 0.561420 -0.009562
C62   C     C_R   0.264681 0.991473 0.437677 -0.021965
C63   C     C_R   0.235221 0.491901 0.562294 -0.022877
C64   C     C_R   0.768801 0.500893 0.438617 -0.007155
C65   C     C_R   0.501026 0.052072 0.965688 0.134840
C66   C     C_R   0.511438 0.055475 0.038872 0.111555
C67   C     C_R   0.001146 0.552079 0.965728 0.132924
C68   C     C_R   0.011549 0.555526 0.038912 0.113578
C69   C     C_R   0.501559 0.166281 0.075916 -0.073246
C70   C     C_R   0.502714 0.162654 0.926504 -0.032033
C71   C     C_R   0.001589 0.666322 0.075934 -0.073176
C72   C     C_R   0.002755 0.662640 0.926522 -0.033615
C73   C     C_R   0.499457 0.277350 0.037794 0.189674
C74   C     C_R   0.499347 0.275417 0.963143 0.207013
C75   C     C_R   0.999429 0.777376 0.037795 0.189854
C76   C     C_R   0.999325 0.775411 0.963143 0.206834
C77   C     C_R   0.788916 0.021714 0.972488 -0.115645
C78   C     C_R   0.218682 0.838011 0.047708 -0.118083
C79   C     C_R   0.288900 0.521744 0.972493 -0.114919
C80   C     C_R   0.718673 0.338016 0.047709 -0.116077
H17   H     H_    0.819875 0.096035 0.950538 0.197205
H18   H     H_    0.194357 0.775244 0.084986 0.136166
H19   H     H_    0.319842 0.596088 0.950546 0.197631
H20   H     H_    0.694342 0.275254 0.084987 0.141464
C81   C     C_R   0.788924 0.007256 0.045067 -0.148384
C82   C     C_R   0.212857 0.817886 0.974967 -0.140437
C83   C     C_R   0.288910 0.507277 0.045072 -0.149574
C84   C     C_R   0.712848 0.317892 0.974968 -0.141688
H21   H     H_    0.822270 0.066768 0.076920 0.192271
H22   H     H_    0.183782 0.738643 0.956126 0.099079
H23   H     H_    0.322244 0.566802 0.076929 0.191059
H24   H     H_    0.683769 0.238653 0.956127 0.099117
C85   C     C_R   0.750134 0.912398 0.075641 0.026797
C86   C     C_R   0.242456 0.901364 0.926568 0.081395
C87   C     C_R   0.250132 0.412400 0.075642 0.026189
C88   C     C_R   0.742453 0.401364 0.926569 0.079997
C89   C     C_R   0.705783 0.837631 0.032271 0.237203
C90   C     C_R   0.278786 0.004837 0.950408 0.244912
C91   C     C_R   0.205798 0.337613 0.032268 0.238671
C92   C     C_R   0.778788 0.504833 0.950409 0.244344
C93   C     C_R   0.705844 0.854116 0.959225 -0.049839
C94   C     C_R   0.286100 0.022943 0.023316 -0.044136
C95   C     C_R   0.205874 0.354082 0.959221 -0.049809
C96   C     C_R   0.786102 0.522937 0.023317 -0.046473
H25   H     H_    0.673151 0.796454 0.925635 0.217059
H26   H     H_    0.313684 0.103421 0.042673 0.124241
H27   H     H_    0.173209 0.296382 0.925625 0.216435
H28   H     H_    0.813691 0.603410 0.042675 0.123634
C97   C     C_R   0.748153 0.944007 0.929273 -0.001067
C98   C     C_R   0.255145 0.940622 0.071472 0.039786
C99   C     C_R   0.248157 0.444011 0.929274 -0.001326
C100  C     C_R   0.755143 0.440620 0.071474 0.039158
Cl1   Cl    Cl    0.650489 0.719492 0.063627 -0.396810
Cl2   Cl    Cl    0.312766 0.114283 0.890888 -0.563999
Cl3   Cl    Cl    0.150497 0.219485 0.063625 -0.395791
Cl4   Cl    Cl    0.812782 0.614267 0.890888 -0.545853
N1    N     N_R   0.568436 0.342821 0.408748 0.092800
O53   O     O_R   0.610977 0.253121 0.423391 -0.345547
O54   O     O_R   0.576221 0.401353 0.349041 -0.226388
N2    N     N_R   0.507211 0.483713 0.573698 0.120351
O55   O     O_R   0.488696 0.475330 0.640373 -0.234332
O56   O     O_R   0.517794 0.591274 0.546602 -0.198091
N3    N     N_R   0.993859 0.984003 0.428120 0.120534
O57   O     O_R   0.012081 0.975825 0.361324 -0.238524
O58   O     O_R   0.983878 0.091494 0.455899 -0.197091
N4    N     N_R   0.931669 0.842441 0.592105 0.095686
O59   O     O_R   0.888955 0.752636 0.576829 -0.336891
O60   O     O_R   0.923788 0.900900 0.652074 -0.215579
Cl5   Cl    Cl    0.838098 0.138697 0.392913 -0.443036
Cl6   Cl    Cl    0.156004 0.130560 0.605598 -0.505335
Cl7   Cl    Cl    0.345928 0.629733 0.395644 -0.521390
Cl8   Cl    Cl    0.663653 0.639157 0.608297 -0.425910
Cl9   Cl    Cl    0.860840 0.126169 0.557482 -0.488442
Cl10  Cl    Cl    0.138841 0.123315 0.442422 -0.484395
Cl11  Cl    Cl    0.362669 0.621063 0.558676 -0.482192
Cl12  Cl    Cl    0.640205 0.627351 0.443599 -0.488590
N5    N     N_R   0.490275 0.935772 0.931291 0.139031
O61   O     O_R   0.538243 0.851233 0.934906 -0.248517
O62   O     O_R   0.435152 0.918148 0.891112 -0.265096
N6    N     N_R   0.528977 0.945281 0.076325 0.139411
O63   O     O_R   0.487831 0.850071 0.072092 -0.202548
O64   O     O_R   0.578147 0.948179 0.124800 -0.297829
N7    N     N_R   0.990437 0.435755 0.931357 0.138365
O65   O     O_R   0.038473 0.351320 0.934890 -0.250270
O66   O     O_R   0.935125 0.417868 0.891448 -0.262217
N8    N     N_R   0.029129 0.445373 0.076388 0.140150
O67   O     O_R   0.988051 0.350079 0.072124 -0.200409
O68   O     O_R   0.078264 0.448369 0.124898 -0.306054
Cl13  Cl    Cl    0.500808 0.420560 0.082120 -0.401417
Cl14  Cl    Cl    0.490403 0.415239 0.916846 -0.401452
Cl15  Cl    Cl    0.000676 0.920613 0.082094 -0.404218
Cl16  Cl    Cl    0.990286 0.915187 0.916819 -0.398657

loop_
_geom_bond_atom_site_label_1
_geom_bond_atom_site_label_2
_geom_bond_distance
_ccdc_geom_bond_type
O7    Cr3   1.953005 S    
C18   O42   1.273346 A    
C78   H18   1.083548 S    
C55   Cl7   1.777490 S    
N3    O57   1.301152 A    
O4    C12   1.295237 A    
C53   C57   1.392588 A    
C29   C30   1.389491 A    
C54   Cl6   1.777399 S    
O39   C19   1.285011 A    
O20   Cr12  2.062058 S    
C53   Cl5   1.772948 S    
C38   H8    1.112191 S    
C31   C32   1.389389 A    
C68   C71   1.409137 A    
C28   C32   1.401692 A    
C56   C60   1.393358 A    
O26   C22   1.263992 A    
C65   C66   1.386894 A    
O1    C9    1.293046 A    
C91   Cl3   1.763806 S    
C19   C72   1.472182 S    
O7    C3    1.289705 A    
N3    O58   1.300210 A    
C78   C82   1.385194 A    
O39   Cr7   1.942866 S    
C37   C38   1.527482 S    
C89   Cl1   1.763812 S    
O36   Cr8   2.065758 S    
O37   C17   1.284996 A    
C80   H20   1.083550 S    
C46   C50   1.389562 A    
C51   C55   1.408069 A    
C78   C98   1.389552 A    
O30   C14   1.257512 A    
C5    C26   1.448711 S    
C37   N1    1.466482 S    
N1    O53   1.302621 A    
C81   C85   1.395015 A    
C89   C93   1.382133 A    
C33   C34   1.380294 A    
O8    Cr4   1.944656 S    
O23   Cr11  1.938179 S    
C48   C52   1.396476 A    
N1    O54   1.300365 A    
C94   H26   1.084881 S    
C77   H17   1.083734 S    
O32   Cr4   1.946087 S    
C69   C73   1.414703 A    
C2    C51   1.468513 S    
O44   Cr12  2.057463 S    
C1    O9    1.264573 A    
C14   C87   1.447983 S    
C45   H13   1.077082 S    
C44   C64   1.409051 A    
C3    O11   1.258838 A    
C72   C76   1.412926 A    
C67   C68   1.386868 A    
O21   C9    1.310727 A    
C59   Cl11  1.756310 S    
N2    O55   1.301141 A    
C70   C74   1.412968 A    
C96   C100  1.404738 A    
O6    Cr2   1.944656 S    
O27   Cr3   2.072182 S    
C27   C36   1.405609 A    
C39   N3    1.460186 S    
O3    Cr3   2.058192 S    
Cr4   O52   1.969582 S    
C26   C33   1.404073 A    
O47   C23   1.271314 A    
C65   C70   1.419916 A    
O2    Cr2   2.065122 S    
C18   C69   1.470423 S    
O8    C4    1.286187 A    
C48   H16   1.076500 S    
C66   N6    1.439284 S    
O2    C10   1.285834 A    
C80   C84   1.385198 A    
C54   C58   1.390584 A    
O42   Cr10  2.057463 S    
Cr5   O49   1.979040 S    
O18   Cr10  2.062058 S    
C56   Cl8   1.772775 S    
C86   C90   1.396394 A    
C74   Cl14  1.772795 S    
O31   Cr3   1.938783 S    
C73   Cl13  1.773019 S    
C50   C54   1.408686 A    
C59   C63   1.416284 A    
C79   C83   1.370637 A    
C4    O12   1.262328 A    
O34   Cr6   2.065758 S    
N6    O64   1.301708 A    
N6    O63   1.301950 A    
C31   C39   1.498031 S    
C20   O44   1.273413 A    
C26   C30   1.399698 A    
C91   C95   1.382130 A    
C7    O19   1.291418 A    
C81   H21   1.084161 S    
O24   Cr12  1.939283 S    
C43   C63   1.398727 A    
C82   C86   1.405512 A    
C43   C47   1.391036 A    
C36   H4    1.083395 S    
C4    C49   1.480336 S    
O22   C10   1.309667 A    
O48   Cr12  1.941489 S    
C10   C62   1.474673 S    
C79   C99   1.403078 A    
C68   N8    1.439299 S    
C80   C100  1.389552 A    
N7    O65   1.300711 A    
C5    O17   1.262135 A    
C58   C62   1.415489 A    
C13   C88   1.434738 S    
C77   C81   1.370626 A    
C93   C97   1.387114 A    
O16   Cr8   1.946961 S    
N4    O59   1.302620 A    
C15   O35   1.262127 A    
O26   Cr2   2.062832 S    
C9    C61   1.481559 S    
N5    O61   1.300697 A    
Cr10  O50   1.978979 S    
C47   C51   1.389771 A    
O13   C5    1.273809 A    
C44   H12   1.082731 S    
C43   H11   1.077504 S    
C96   H28   1.084882 S    
O48   C24   1.265377 A    
O12   Cr8   2.061141 S    
C20   C71   1.470383 S    
Cr12  O52   1.978979 S    
C46   H14   1.073522 S    
O15   C7    1.295517 A    
O5    C1    1.289459 A    
C95   H27   1.083524 S    
O46   Cr10  1.941489 S    
C66   C69   1.409214 A    
C90   Cl2   1.760806 S    
O25   C21   1.249814 A    
C76   Cl16  1.772783 S    
C88   C92   1.396396 A    
O45   Cr9   1.946961 S    
C35   C36   1.380127 A    
O3    C11   1.283638 A    
O40   Cr8   1.941078 S    
C52   C56   1.405621 A    
C17   C70   1.472156 S    
O13   Cr5   1.939660 S    
C13   O33   1.262120 A    
C65   N5    1.440076 S    
C42   H10   1.077246 S    
O47   Cr11  1.946961 S    
Cr2   O50   1.969582 S    
O15   Cr7   1.939660 S    
O35   Cr7   2.057173 S    
Cr1   O49   1.969467 S    
Cr7   O51   1.979040 S    
O30   Cr2   1.946087 S    
C41   H9    1.082791 S    
O25   Cr1   2.072182 S    
O14   Cr6   1.946961 S    
O21   Cr9   1.938179 S    
C82   H22   1.084693 S    
C71   C75   1.414758 A    
C32   C40   1.501709 S    
O9    Cr5   2.063778 S    
C2    O10   1.256625 A    
O37   Cr5   1.942866 S    
C84   H24   1.084695 S    
C49   C53   1.405067 A    
C37   H7    1.113007 S    
C85   C89   1.424409 A    
C29   C37   1.501242 S    
C3    C50   1.469544 S    
O24   C12   1.311228 A    
C47   H15   1.074408 S    
C39   C40   1.527670 S    
C67   N7    1.439979 S    
C22   C98   1.433281 S    
C8    O20   1.261425 A    
C83   C87   1.395014 A    
C16   C85   1.447988 S    
O38   C18   1.276985 A    
C1    C52   1.481669 S    
Cr3   O51   1.969467 S    
C42   C62   1.399079 A    
C57   C61   1.419139 A    
C58   Cl10  1.755108 S    
C93   H25   1.083534 S    
O22   Cr10  1.939283 S    
O28   C24   1.263989 A    
C57   Cl9   1.763089 S    
O14   C6    1.298037 A    
C19   O43   1.265580 A    
C40   N4    1.466494 S    
O5    Cr1   1.953005 S    
C38   N2    1.460187 S    
C60   C64   1.418564 A    
C45   C49   1.396730 A    
C21   C97   1.435163 S    
O17   Cr9   2.066298 S    
C95   C99   1.387094 A    
Cr11  O51   1.973865 S    
O6    C2    1.286642 A    
C87   C91   1.424397 A    
N7    O66   1.301149 A    
C17   O41   1.265610 A    
O11   Cr7   2.063778 S    
C90   C94   1.387581 A    
C35   H3    1.079382 S    
C14   O34   1.271888 A    
N8    O68   1.301716 A    
C34   H2    1.079338 S    
C83   H23   1.084161 S    
C25   C34   1.399206 A    
C39   H5    1.112271 S    
C55   C59   1.389827 A    
O1    Cr1   2.058192 S    
O19   Cr11  2.066298 S    
C67   C72   1.419908 A    
C12   C64   1.482827 S    
C33   H1    1.083425 S    
Cr8   O52   1.973625 S    
O32   C16   1.257513 A    
O41   Cr9   2.056629 S    
C40   H6    1.113020 S    
Cr6   O50   1.973625 S    
O46   C22   1.265368 A    
O45   C21   1.271303 A    
O23   C11   1.309288 A    
C75   Cl15  1.773032 S    
C6    C25   1.450421 S    
O33   Cr5   2.057173 S    
C92   Cl4   1.760827 S    
C79   H19   1.083735 S    
O10   Cr6   2.061141 S    
C41   C61   1.408585 A    
C25   C29   1.400538 A    
N5    O62   1.300811 A    
O16   C8    1.276654 A    
C77   C97   1.403076 A    
O4    Cr4   2.065122 S    
C15   C86   1.434733 S    
C60   Cl12  1.762336 S    
O29   Cr1   1.938783 S    
C8    C27   1.449052 S    
C42   C46   1.391057 A    
O40   C20   1.276923 A    
C16   O36   1.271886 A    
C41   C45   1.399171 A    
C30   C38   1.498695 S    
C27   C31   1.398463 A    
N2    O56   1.300223 A    
N8    O67   1.301957 A    
C6    O18   1.290662 A    
O28   Cr4   2.062832 S    
O43   Cr11  2.056629 S    
C75   C76   1.399732 A    
O29   C13   1.267764 A    
C7    C28   1.450078 S    
C94   C98   1.404730 A    
C84   C88   1.405519 A    
C23   C99   1.435165 S    
C73   C74   1.399723 A    
C44   C48   1.399415 A    
N4    O60   1.300379 A    
O31   C15   1.267757 A    
C24   C100  1.433281 S    
Cr9   O49   1.973865 S    
C92   C96   1.387589 A    
C28   C35   1.397704 A    
C11   C63   1.473608 S    
O38   Cr6   1.941078 S    
O27   C23   1.249802 A    
