data_mof_unit_35831.cif
_audit_creation_date              2013-03-05T15:59:39-0500
_audit_creation_method            fapswitch 2.2
_symmetry_space_group_name_H-M    P1
_symmetry_Int_Tables_number       1
_space_group_crystal_system       triclinic
_cell_length_a                    15.039891
_cell_length_b                    13.692559
_cell_length_c                    27.793961
_cell_angle_alpha                 90.09364
_cell_angle_beta                  89.559952
_cell_angle_gamma                 90.099705
_cell_volume                      5723.55310076

loop_
_atom_site_label
_atom_site_type_symbol
_atom_site_description
_atom_site_fract_x
_atom_site_fract_y
_atom_site_fract_z
_atom_type_partial_charge
O1    O     O_R   0.370260 0.582280 0.500010 -0.594961
O2    O     O_R   0.629740 0.417720 0.499990 -0.587974
O3    O     O_R   0.629740 0.582280 0.499990 -0.593000
O4    O     O_R   0.370260 0.417720 0.500010 -0.588428
C1    C     C_R   0.328949 0.499986 0.499838 0.928845
C2    C     C_R   0.671038 0.500126 0.499860 0.923879
O5    O     O_R   0.500020 0.582260 0.430260 -0.597132
O6    O     O_R   0.499980 0.417740 0.569740 -0.591011
O7    O     O_R   0.499980 0.582260 0.569740 -0.597772
O8    O     O_R   0.500020 0.417740 0.430260 -0.594562
C3    C     C_R   0.500329 0.499958 0.407425 0.860173
C4    C     C_R   0.499850 0.500045 0.592552 0.861092
Cu1   Cu    Cu3+1 0.500000 0.597420 0.500000 0.941678
Cu2   Cu    Cu3+1 0.500000 0.402580 0.500000 0.954582
C5    C     C_R   0.425370 0.494270 0.178493 0.559364
C6    C     C_R   0.583642 0.504207 0.821461 0.593162
O9    O     O_2   0.348492 0.487935 0.203687 -0.549995
O10   O     O_2   0.660668 0.504882 0.796217 -0.533553
N1    N     N_R   0.504340 0.501090 0.202261 -0.443197
N2    N     N_R   0.504316 0.504402 0.797750 -0.450881
C7    C     C_R   0.583428 0.508024 0.177935 0.557505
C8    C     C_R   0.425140 0.506180 0.822265 0.502332
C9    C     C_R   0.517909 0.588961 0.279003 0.492673
C10   C     C_R   0.528824 0.417215 0.721150 0.500157
C11   C     C_R   0.515010 0.587988 0.329506 -0.346197
C12   C     C_R   0.527479 0.416995 0.670672 -0.335218
C13   C     C_R   0.489793 0.413022 0.328804 -0.229389
C14   C     C_R   0.474303 0.584150 0.670793 -0.240113
C15   C     C_R   0.490806 0.413792 0.278721 -0.201949
C16   C     C_R   0.475884 0.584996 0.720838 -0.188430
C17   C     C_R   0.504149 0.501380 0.253799 0.297532
C18   C     C_R   0.503729 0.502340 0.746149 0.278848
C19   C     C_R   0.504502 0.501917 0.102051 -0.044042
C20   C     C_R   0.504520 0.504491 0.898019 -0.047494
C21   C     C_R   0.423972 0.494484 0.128004 -0.026239
C22   C     C_R   0.585206 0.503865 0.871973 -0.040271
C23   C     C_R   0.343984 0.487122 0.103173 -0.149925
C24   C     C_R   0.665523 0.502362 0.896746 -0.149209
C25   C     C_R   0.584974 0.508732 0.127427 -0.022328
C26   C     C_R   0.423775 0.505925 0.872742 -0.017545
C27   C     C_R   0.501764 0.500169 0.354587 -0.100764
C28   C     C_R   0.500026 0.500188 0.645346 -0.104307
H1    H     H_    0.479231 0.344375 0.347296 0.174207
H2    H     H_    0.452820 0.649111 0.652013 0.168424
H3    H     H_    0.481123 0.346239 0.259130 0.159992
H4    H     H_    0.456054 0.650308 0.740108 0.164036
H5    H     H_    0.281249 0.480059 0.122290 0.184084
H6    H     H_    0.728492 0.500679 0.877561 0.184494
C29   C     C_R   0.422392 0.502210 0.974815 0.041517
C30   C     C_R   0.586623 0.507795 0.025284 0.041465
C31   C     C_R   0.586733 0.504971 0.974119 0.041408
C32   C     C_R   0.422492 0.497923 0.025924 0.042033
C33   C     C_R   0.504556 0.503875 0.949203 0.069271
C34   C     C_R   0.504545 0.502540 0.050868 0.068690
C35   C     C_R   0.342612 0.505615 0.948148 -0.207052
C36   C     C_R   0.666026 0.516328 0.052047 -0.203664
C37   C     C_R   0.343503 0.507181 0.898215 -0.150437
C38   C     C_R   0.665020 0.516532 0.102012 -0.155095
O11   O     O_2   0.347933 0.507146 0.797812 -0.563254
O12   O     O_2   0.660244 0.513790 0.202587 -0.573719
C39   C     C_R   0.343066 0.488494 0.053238 -0.203616
C40   C     C_R   0.666485 0.502645 0.946708 -0.202451
H7    H     H_    0.550529 0.352965 0.651364 0.176497
H8    H     H_    0.522573 0.655811 0.349062 0.164157
H9    H     H_    0.280493 0.509461 0.879612 0.185270
H10   H     H_    0.727726 0.523068 0.120692 0.182697
H11   H     H_    0.277721 0.508770 0.964630 0.139019
H12   H     H_    0.730604 0.524584 0.035623 0.138357
H13   H     H_    0.278530 0.480367 0.037272 0.138421
H14   H     H_    0.731407 0.499426 0.962607 0.138335
C41   C     C_R   0.813616 0.501001 0.455737 0.305562
C42   C     C_R   0.186230 0.496891 0.543688 0.305528
C43   C     C_R   0.767275 0.500640 0.499804 -0.249268
C44   C     C_R   0.232678 0.500263 0.499716 -0.249282
C45   C     C_R   0.812429 0.501706 0.543834 0.314401
C46   C     C_R   0.187630 0.505065 0.455707 0.312379
C47   C     C_R   0.905748 0.500612 0.543891 0.024018
C48   C     C_R   0.094243 0.503975 0.455581 0.024744
C49   C     C_R   0.953091 0.502069 0.499740 -0.017213
C50   C     C_R   0.046850 0.502060 0.499715 -0.016108
C51   C     C_R   0.906952 0.503318 0.455620 0.026869
C52   C     C_R   0.092940 0.499742 0.543833 0.024855
C53   C     C_R   0.952568 0.498792 0.587343 -0.178573
C54   C     C_R   0.047387 0.505337 0.412123 -0.181343
C55   C     C_R   0.044931 0.499117 0.587322 -0.183629
C56   C     C_R   0.954985 0.505795 0.412151 -0.183626
H15   H     H_    0.918095 0.497221 0.621662 0.178581
H16   H     H_    0.081866 0.506249 0.377796 0.177467
H17   H     H_    0.078480 0.498269 0.621641 0.178069
H18   H     H_    0.921430 0.507520 0.377849 0.175938
C57   C     C_R   0.449599 0.793323 0.533114 0.002703
C58   C     C_R   0.550039 0.206645 0.466720 0.015218
C59   C     C_R   0.550346 0.793285 0.466853 -0.000382
C60   C     C_R   0.450062 0.206632 0.533292 0.013730
N3    N     N_R   0.500000 0.743810 0.500000 -0.190449
N4    N     N_R   0.500000 0.256190 0.500000 -0.182947
C61   C     C_R   0.551362 0.896345 0.465981 -0.004461
C62   C     C_R   0.448784 0.103599 0.534054 -0.002638
C63   C     C_R   0.448543 0.896391 0.533971 -0.005262
C64   C     C_R   0.551223 0.103575 0.465901 -0.001252
C65   C     C_R   0.499929 0.948157 0.499959 0.089679
C66   C     C_R   0.499957 0.051793 0.499961 0.087278
C67   C     C_R   0.602455 0.948595 0.432138 -0.203634
C68   C     C_R   0.397781 0.051379 0.567963 -0.205636
C69   C     C_R   0.397600 0.948704 0.567889 -0.199094
C70   C     C_R   0.602288 0.051271 0.432028 -0.202776
H19   H     H_    0.410185 0.752430 0.558896 0.135019
H20   H     H_    0.589112 0.247448 0.440788 0.111089
H21   H     H_    0.589759 0.752383 0.441062 0.136420
H22   H     H_    0.411252 0.247370 0.559329 0.111828
H23   H     H_    0.642636 0.910027 0.405830 0.147364
H24   H     H_    0.358006 0.089925 0.594515 0.136720
H25   H     H_    0.357683 0.910235 0.594386 0.140951
H26   H     H_    0.642197 0.089730 0.405514 0.136406
O13   O     O_3   0.765289 0.496976 0.586816 -0.607695
C71   C     C_3   0.748842 0.592719 0.603864 0.009643
H27   H     H_    0.688653 0.622174 0.586111 0.179715
H28   H     H_    0.805656 0.643621 0.596994 0.136486
C72   C     C_3   0.732611 0.588892 0.658191 -0.288530
H29   H     H_    0.681387 0.533021 0.666540 0.251777
H30   H     H_    0.795003 0.567344 0.676486 0.219288
C73   C     C_3   0.701804 0.687407 0.677812 -0.887581
H31   H     H_    0.753473 0.743980 0.671218 0.250797
H32   H     H_    0.689768 0.681549 0.717174 0.277339
H33   H     H_    0.638912 0.709905 0.660341 0.254443
O14   O     O_3   0.234932 0.502904 0.412725 -0.607730
C74   C     C_3   0.250842 0.599580 0.396962 0.011969
H34   H     H_    0.309333 0.629949 0.416087 0.179502
H35   H     H_    0.192691 0.648704 0.403288 0.136798
C75   C     C_3   0.270584 0.597979 0.342934 -0.301421
H36   H     H_    0.324154 0.544547 0.335120 0.251070
H37   H     H_    0.210148 0.574177 0.323336 0.219959
C76   C     C_3   0.299068 0.698405 0.324663 -0.872502
H38   H     H_    0.244757 0.752149 0.330365 0.248087
H39   H     H_    0.314476 0.694051 0.285579 0.284809
H40   H     H_    0.359484 0.723791 0.343754 0.251067
O15   O     O_3   0.564961 0.339624 0.746196 -0.588899
C77   C     C_3   0.509729 0.256140 0.743115 0.038677
H41   H     H_    0.553391 0.190957 0.745244 0.181446
H42   H     H_    0.473327 0.249791 0.708486 0.122620
C78   C     C_3   0.444258 0.253814 0.785563 -0.351052
H43   H     H_    0.481055 0.263657 0.819778 0.236300
H44   H     H_    0.396147 0.314671 0.782059 0.234399
C79   C     C_3   0.393197 0.157486 0.787434 -0.904822
H45   H     H_    0.356206 0.145700 0.753479 0.257089
H46   H     H_    0.344892 0.159183 0.817834 0.264354
H47   H     H_    0.439715 0.095665 0.792970 0.258691
O16   O     O_3   0.525248 0.675523 0.253421 -0.612740
C80   C     C_3   0.603651 0.727300 0.265528 0.083468
H48   H     H_    0.642417 0.738701 0.231801 0.182668
H49   H     H_    0.648751 0.688030 0.290708 0.134652
C81   C     C_3   0.578870 0.827177 0.286431 -0.353899
H50   H     H_    0.537035 0.867255 0.260260 0.238330
H51   H     H_    0.539707 0.817547 0.320137 0.209701
C82   C     C_3   0.661495 0.887913 0.297287 -0.927661
H52   H     H_    0.703925 0.849714 0.323812 0.253777
H53   H     H_    0.641301 0.959575 0.312575 0.258132
H54   H     H_    0.700495 0.900926 0.263800 0.263335
O17   O     O_3   0.767557 0.505746 0.412811 -0.616141
C83   C     C_3   0.752689 0.410030 0.395416 0.011599
H55   H     H_    0.693203 0.378678 0.413616 0.162623
H56   H     H_    0.810513 0.360541 0.401429 0.139738
C84   C     C_3   0.735890 0.414595 0.341312 -0.296936
H57   H     H_    0.681680 0.467202 0.333952 0.239454
H58   H     H_    0.796887 0.440991 0.322594 0.217988
C85   C     C_3   0.710530 0.314635 0.321242 -0.902928
H59   H     H_    0.765815 0.262054 0.326304 0.250541
H60   H     H_    0.696734 0.321029 0.282181 0.277113
H61   H     H_    0.649949 0.286380 0.339647 0.244278
O18   O     O_3   0.232300 0.496519 0.586664 -0.613949
C86   C     C_3   0.244281 0.398856 0.601690 0.016150
H62   H     H_    0.301292 0.366364 0.581834 0.163297
H63   H     H_    0.184107 0.352650 0.595609 0.140734
C87   C     C_3   0.264316 0.397874 0.655448 -0.287361
H64   H     H_    0.322465 0.445363 0.662868 0.242707
H65   H     H_    0.206228 0.427233 0.675723 0.224194
C88   C     C_3   0.283982 0.294729 0.672929 -0.947001
H66   H     H_    0.226233 0.245985 0.666309 0.258667
H67   H     H_    0.296919 0.296568 0.712134 0.273911
H68   H     H_    0.343468 0.265042 0.654064 0.241199

loop_
_geom_bond_atom_site_label_1
_geom_bond_atom_site_label_2
_geom_bond_distance
_ccdc_geom_bond_type
C53   H15   1.082404 S    
C86   H62   1.109479 S    
C65   C66   1.419034 A    
C82   H53   1.110551 S    
C46   O14   1.386015 S    
C75   H37   1.111357 S    
C84   H57   1.109286 S    
O3    C2    1.285916 A    
N1    C17   1.432422 S    
C10   C18   1.406645 A    
C77   H41   1.110924 S    
O5    C3    1.292446 A    
C86   H63   1.117100 S    
C58   C64   1.411586 A    
C19   C25   1.408369 A    
C9    O16   1.386958 S    
C44   C46   1.404520 A    
Cu1   N3    2.004454 S    
O1    C1    1.285828 A    
C69   H25   1.083323 S    
C21   C23   1.394915 A    
C46   C48   1.404613 A    
C32   C39   1.416285 A    
C80   H49   1.117497 S    
C48   C50   1.414246 A    
C13   C15   1.392039 A    
O18   C86   1.413838 S    
C47   C53   1.402934 A    
O13   C71   1.414792 S    
C58   N4    1.367934 A    
C71   H27   1.111018 S    
C40   H14   1.075851 S    
C67   H23   1.082499 S    
C5    C21   1.403638 A    
C1    C44   1.447948 S    
O7    Cu1   1.949766 S    
C87   H64   1.109293 S    
C4    C28   1.467361 S    
C58   H20   1.081943 S    
C71   H28   1.117229 S    
C88   H67   1.108612 S    
C76   H40   1.110731 S    
C24   C40   1.388830 A    
C36   C38   1.388698 A    
C23   H5    1.083553 S    
C59   H21   1.082709 S    
C24   H6    1.083532 S    
C51   C56   1.403331 A    
O3    Cu1   1.962612 S    
C6    N2    1.367411 A    
C29   C32   1.421850 A    
C72   H30   1.111279 S    
C59   N3    1.367685 A    
Cu1   Cu2   2.667857 S    
C82   H54   1.110785 S    
C85   H60   1.110490 S    
C43   C45   1.404172 A    
O2    C2    1.287052 A    
C31   C40   1.416401 A    
C79   H47   1.110783 S    
Cu2   N4    2.004454 S    
C68   C69   1.405888 A    
C38   H10   1.083548 S    
C47   C49   1.414160 A    
C63   C69   1.406221 A    
C86   C87   1.526597 S    
C83   C84   1.528146 S    
C57   H19   1.082602 S    
C84   C85   1.526096 S    
O16   C80   1.417286 S    
C7    O12   1.349863 S    
C42   C44   1.403829 A    
O8    Cu2   1.949772 S    
C78   C79   1.525858 S    
C11   C27   1.404049 A    
C8    O11   1.350065 S    
C68   H24   1.083568 S    
C55   H17   1.082591 S    
C79   H45   1.110608 S    
C36   H12   1.075852 S    
C25   C38   1.395141 A    
C60   H22   1.081141 S    
C30   C36   1.416327 A    
C15   H3    1.082769 S    
C31   C33   1.421401 A    
C11   H8    1.081549 S    
C42   O18   1.385519 S    
C5    N1    1.366454 A    
C12   H7    1.083274 S    
C74   H35   1.116936 S    
C48   C54   1.403248 A    
C13   C27   1.402944 A    
C35   H11   1.075847 S    
O17   C83   1.414209 S    
C7    C25   1.403875 A    
C81   C82   1.525856 S    
O6    C4    1.292183 A    
C88   H68   1.110834 S    
C8    C26   1.402953 A    
C64   C66   1.407999 A    
C30   C31   1.422509 A    
C32   C34   1.421360 A    
C30   C34   1.421633 A    
C60   N4    1.367607 A    
C45   C47   1.403621 A    
C87   C88   1.524492 S    
C61   C67   1.405818 A    
C77   H42   1.114137 S    
C85   H61   1.110751 S    
C79   H46   1.110326 S    
C63   C65   1.407962 A    
C70   H26   1.083538 S    
C35   C37   1.387979 A    
C56   H18   1.082463 S    
C76   H38   1.110678 S    
C42   C52   1.403657 A    
C20   C26   1.407829 A    
C80   C81   1.530530 S    
C75   C76   1.526159 S    
O1    Cu1   1.961896 S    
N2    C8    1.367646 A    
C73   H32   1.110534 S    
C74   H34   1.111094 S    
C59   C61   1.411452 A    
C12   C28   1.404383 A    
C2    C43   1.447389 S    
C49   C51   1.413774 A    
N2    C18   1.434534 S    
C72   C73   1.525638 S    
C39   H13   1.075853 S    
C19   C34   1.422610 A    
C5    O9    1.349862 S    
O6    Cu2   1.949092 S    
C26   C37   1.394986 A    
C14   C28   1.402257 A    
N1    C7    1.366922 A    
C16   H4    1.082802 S    
C83   H56   1.117182 S    
C10   C12   1.403289 A    
C81   H51   1.110689 S    
O4    C1    1.287399 A    
C77   C78   1.531251 S    
C23   C39   1.388219 A    
C72   H29   1.108328 S    
C10   O15   1.385256 S    
C52   C55   1.403252 A    
C41   O17   1.385879 S    
O15   C77   1.414754 S    
C64   C70   1.406306 A    
C71   C72   1.528681 S    
C57   C63   1.411540 A    
C83   H55   1.110404 S    
C73   H33   1.110832 S    
C78   H44   1.109441 S    
C75   H36   1.109241 S    
C74   C75   1.528603 S    
C15   C17   1.399349 A    
C62   C66   1.407827 A    
C78   H43   1.111842 S    
C6    C22   1.404316 A    
C22   C24   1.395190 A    
C16   C18   1.399992 A    
C85   H59   1.110731 S    
C54   H16   1.082488 S    
O14   C74   1.414469 S    
C29   C33   1.421535 A    
C14   C16   1.391358 A    
C19   C21   1.408536 A    
C50   C52   1.413625 A    
C14   H2    1.083117 S    
C3    C27   1.468575 S    
C67   C70   1.405904 A    
C20   C22   1.408286 A    
C9    C11   1.404096 A    
C29   C35   1.416064 A    
O4    Cu2   1.962613 S    
C53   C55   1.389116 A    
O2    Cu2   1.961894 S    
O7    C4    1.292899 A    
C87   H65   1.111445 S    
O8    C3    1.293243 A    
C57   N3    1.367612 A    
C49   C50   1.410126 A    
C13   H1    1.082919 S    
O5    Cu1   1.949097 S    
C45   O13   1.386042 S    
C81   H50   1.111607 S    
C20   C33   1.422635 A    
C6    O10   1.349782 S    
C88   H66   1.110729 S    
C41   C43   1.404584 A    
C82   H52   1.110848 S    
C76   H39   1.110522 S    
C60   C62   1.411073 A    
C54   C56   1.389734 A    
C84   H58   1.111318 S    
C41   C51   1.404035 A    
C73   H31   1.110709 S    
C80   H48   1.111219 S    
C62   C68   1.406080 A    
C61   C65   1.407848 A    
C9    C17   1.403663 A    
C37   H9    1.083544 S    
