data_mof_unit_62113.cif
_audit_creation_date              2012-12-10T19:53:32-0500
_audit_creation_method            fapswitch 2.2
_symmetry_space_group_name_H-M    P1
_symmetry_Int_Tables_number       1
_space_group_crystal_system       triclinic
_cell_length_a                    18.369822
_cell_length_b                    18.364194
_cell_length_c                    42.96006
_cell_angle_alpha                 90.020832
_cell_angle_beta                  90.015291
_cell_angle_gamma                 89.99599
_cell_volume                      14492.4447754

loop_
_atom_site_label
_atom_site_type_symbol
_atom_type_description
_atom_site_fract_x
_atom_site_fract_y
_atom_site_fract_z
_atom_type_partial_charge
C1    C     C_R   0.999991 0.500046 0.915812 0.822406
C2    C     C_R   0.500337 0.000256 0.118428 -0.094284
C3    C     C_R   0.726992 0.782087 0.031331 -0.111598
C4    C     C_R   0.782141 0.727033 0.031292 -0.124180
C5    C     C_R   0.726409 0.218510 0.031283 -0.126426
C6    C     C_R   0.218635 0.273732 0.031350 -0.108833
C7    C     C_R   0.272875 0.782254 0.031290 -0.112393
C8    C     C_R   0.718525 0.226444 0.531305 -0.113229
C9    C     C_R   0.772992 0.717911 0.531335 -0.108751
C10   C     C_R   0.282243 0.772912 0.531263 -0.125529
C11   C     C_R   0.226304 0.281410 0.531344 -0.111669
C12   C     C_R   0.281458 0.226337 0.531315 -0.124598
C13   C     C_R   0.500331 0.000338 0.618429 -0.093911
C14   C     C_R   0.227135 0.717834 0.531293 -0.113546
C15   C     C_R   0.717847 0.772972 0.531296 -0.121330
C16   C     C_R   0.773656 0.281522 0.531285 -0.125199
C17   C     C_3   0.304105 0.756237 0.942342 -0.303997
C18   C     C_3   0.240956 0.301394 0.942027 -0.306164
C19   C     C_3   0.699135 0.241318 0.941818 -0.311893
C20   C     C_3   0.756417 0.697162 0.942101 -0.312464
C21   C     C_3   0.696061 0.756600 0.942338 -0.305214
C22   C     C_3   0.758707 0.301549 0.942000 -0.305682
C23   C     C_3   0.300403 0.241034 0.941816 -0.312625
C24   C     C_R   0.000345 0.500272 0.618429 -0.094683
C25   C     C_3   0.243906 0.696648 0.942141 -0.310968
C26   C     C_3   0.800810 0.258558 0.441820 -0.311624
C27   C     C_3   0.743637 0.802861 0.442125 -0.312398
C28   C     C_3   0.195971 0.743494 0.442324 -0.304832
C29   C     C_3   0.258827 0.199418 0.441817 -0.313390
C30   C     C_3   0.198456 0.258852 0.442026 -0.306081
C31   C     C_3   0.256164 0.803090 0.442119 -0.311204
C32   C     C_3   0.803990 0.743421 0.442363 -0.304631
C33   C     C_3   0.741178 0.198386 0.442000 -0.304945
C34   C     C_R   0.985120 0.564643 0.134721 -0.144594
C35   C     C_R   0.502473 0.000188 0.781708 0.298384
C36   C     C_R   0.436584 0.015664 0.135013 -0.229469
C37   C     C_R   0.015933 0.436651 0.135010 -0.228348
C38   C     C_R   0.564678 0.985431 0.134724 -0.143516
C39   C     C_R   0.485389 0.064657 0.634737 -0.143704
C40   C     C_R   0.936600 0.515709 0.635014 -0.228223
C41   C     C_R   0.515971 0.936609 0.634999 -0.229165
C42   C     C_R   0.064691 0.485462 0.634724 -0.144713
C43   C     C_R   0.985530 0.566040 0.167200 0.074693
C44   C     C_R   0.436788 0.016975 0.167599 0.103937
C45   C     C_R   0.017246 0.436869 0.167595 0.103876
C46   C     C_R   0.000281 0.502099 0.781710 0.298387
C47   C     C_R   0.566067 0.985868 0.167203 0.074547
C48   C     C_R   0.485955 0.066049 0.667216 0.074543
C49   C     C_R   0.936822 0.517087 0.667599 0.103990
C50   C     C_R   0.517426 0.936819 0.667582 0.103962
C51   C     C_R   0.066097 0.485961 0.667203 0.074675
C52   C     C_2   0.184217 0.702555 0.060908 0.961901
C53   C     C_2   0.299361 0.185877 0.060993 0.955945
C54   C     C_2   0.814413 0.298994 0.060983 0.964237
C55   C     C_2   0.702395 0.815639 0.060996 0.963070
C56   C     C_2   0.815568 0.702199 0.060942 0.959716
C57   C     C_R   0.001753 0.500265 0.281708 0.299337
C58   C     C_2   0.700865 0.185787 0.060957 0.961255
C59   C     C_2   0.185734 0.299091 0.061029 0.959586
C60   C     C_2   0.297388 0.815908 0.060950 0.964459
C61   C     C_2   0.685610 0.201165 0.560980 0.964571
C62   C     C_2   0.797547 0.684336 0.560997 0.959887
C63   C     C_2   0.315720 0.797704 0.560914 0.961124
C64   C     C_2   0.200951 0.314320 0.561025 0.962786
C65   C     C_2   0.314235 0.200775 0.560985 0.959112
C66   C     C_2   0.202639 0.684244 0.560952 0.965634
C67   C     C_2   0.684392 0.797785 0.560944 0.956488
C68   C     C_R   0.500238 0.001804 0.281708 0.297446
C69   C     C_2   0.799263 0.314269 0.560962 0.960393
C70   C     C_2   0.287085 0.827026 0.925983 0.990592
C71   C     C_2   0.169262 0.283735 0.926534 0.989295
C72   C     C_2   0.717729 0.171845 0.924748 1.011655
C73   C     C_2   0.825099 0.715472 0.924457 1.015068
C74   C     C_2   0.712925 0.827622 0.926138 0.989763
C75   C     C_2   0.830172 0.283806 0.926347 0.990319
C76   C     C_2   0.281398 0.171462 0.924900 1.016155
C77   C     C_2   0.175309 0.714516 0.924335 1.010220
C78   C     C_2   0.782260 0.328028 0.424757 1.011404
C79   C     C_R   0.001941 0.501287 0.218536 0.305859
C80   C     C_2   0.674964 0.784550 0.424453 1.015474
C81   C     C_2   0.213021 0.672631 0.426010 0.991243
C82   C     C_2   0.328306 0.218391 0.424865 1.017437
C83   C     C_2   0.216015 0.330518 0.426495 0.988845
C84   C     C_2   0.324795 0.785125 0.424366 1.010564
C85   C     C_2   0.787130 0.672400 0.426136 0.989124
C86   C     C_2   0.669706 0.216202 0.426358 0.989530
C87   C     C_R   0.501253 0.001991 0.218536 0.306106
C88   C     C_R   0.502456 0.001248 0.718535 0.306005
C89   C     C_R   0.500082 0.999983 0.915808 0.821519
C90   C     C_R   0.001303 0.502183 0.718537 0.305955
C91   C     C_R   0.516182 0.064339 0.832664 -0.126986
C92   C     C_R   0.935811 0.486430 0.832507 -0.132983
C93   C     C_R   0.487152 0.935624 0.832503 -0.136969
C94   C     C_R   0.064321 0.516201 0.832669 -0.130190
C95   C     C_R   0.015010 0.564517 0.332654 -0.137571
C96   C     C_R   0.435814 0.986003 0.332515 -0.126212
C97   C     C_R   0.986854 0.435607 0.332507 -0.129686
C98   C     C_R   0.564283 0.015949 0.332659 -0.133866
C99   C     C_R   0.515140 0.064399 0.865117 -0.148984
C100  C     C_R   0.499990 0.000002 0.415812 0.814513
C101  C     C_R   0.935678 0.486269 0.864976 -0.123484
C102  C     C_R   0.486902 0.935516 0.864971 -0.101577
C103  C     C_R   0.064358 0.515253 0.865123 -0.128205
C104  C     C_R   0.014116 0.564557 0.365105 -0.102938
C105  C     C_R   0.435695 0.985890 0.364985 -0.146918
C106  C     C_R   0.986759 0.435483 0.364977 -0.129219
C107  C     C_R   0.564336 0.015049 0.365111 -0.121573
C108  C     C_R   0.500636 0.999964 0.881550 -0.018170
C109  C     C_R   0.000004 0.500461 0.881555 -0.017544
C110  C     C_R   0.000246 0.499998 0.381549 -0.013354
C111  C     C_R   0.999998 0.499988 0.415808 0.829288
C112  C     C_R   0.499998 0.000266 0.381554 -0.022877
C113  C     C_R   0.501978 0.000006 0.816035 0.064336
C114  C     C_R   0.000096 0.501605 0.816039 0.064250
C115  C     C_R   0.001227 0.500084 0.316033 0.063170
C116  C     C_R   0.500066 0.001275 0.316037 0.065361
C117  C     C_R   0.999985 0.500040 0.084170 0.822117
C118  C     C_R   0.500036 0.999987 0.084169 0.821940
C119  C     C_R   0.499989 0.000039 0.584171 0.820948
C120  C     C_R   0.000038 0.499983 0.584169 0.823126
C121  C     C_R   0.859310 0.639111 0.000543 0.903640
C122  C     C_R   0.001921 0.501700 0.184105 0.034094
C123  C     C_R   0.360943 0.859267 0.000550 0.862880
C124  C     C_R   0.140693 0.360908 0.000536 0.862073
C125  C     C_R   0.639124 0.140661 0.000524 0.903205
C126  C     C_R   0.140687 0.639106 0.000546 0.903346
C127  C     C_R   0.639041 0.859252 0.000565 0.863208
C128  C     C_R   0.859322 0.360884 0.000518 0.861649
C129  C     C_R   0.360885 0.140668 0.000528 0.903747
C130  C     C_R   0.359338 0.139131 0.500528 0.903254
C131  C     C_R   0.860894 0.359322 0.500524 0.902603
C132  C     C_R   0.640691 0.860902 0.500546 0.903987
C133  C     C_R   0.501668 0.001963 0.184106 0.034025
C134  C     C_R   0.139070 0.640720 0.500552 0.860407
C135  C     C_R   0.640663 0.139135 0.500518 0.863977
C136  C     C_R   0.139091 0.359295 0.500532 0.861994
C137  C     C_R   0.359304 0.860907 0.500542 0.904192
C138  C     C_R   0.860968 0.640746 0.500569 0.863425
C139  C     C_R   0.238728 0.709526 0.976477 0.082653
C140  C     C_R   0.289482 0.237776 0.976312 0.080334
C141  C     C_R   0.761608 0.290207 0.976408 0.037700
C142  C     C_R   0.708759 0.760660 0.976634 0.037686
C143  C     C_R   0.761304 0.709628 0.976475 0.081678
C144  C     C_R   0.502304 0.001677 0.684105 0.033961
C145  C     C_R   0.710493 0.237739 0.976285 0.082039
C146  C     C_R   0.238432 0.290309 0.976453 0.036728
C147  C     C_R   0.291201 0.760632 0.976617 0.038012
C148  C     C_R   0.738348 0.209765 0.476409 0.037949
C149  C     C_R   0.791275 0.739362 0.476654 0.037379
C150  C     C_R   0.261277 0.790391 0.476466 0.082508
C151  C     C_R   0.209660 0.261514 0.476446 0.037105
C152  C     C_R   0.262207 0.210482 0.476308 0.080808
C153  C     C_R   0.208824 0.739265 0.476608 0.038230
C154  C     C_R   0.738732 0.790397 0.476493 0.081180
C155  C     C_R   0.001709 0.502100 0.684106 0.034040
C156  C     C_R   0.789510 0.262187 0.476288 0.081622
C157  C     C_R   0.199217 0.691679 0.002794 -0.104141
C158  C     C_R   0.308320 0.199207 0.002757 -0.103618
C159  C     C_R   0.800589 0.308557 0.002798 -0.111813
C160  C     C_R   0.691275 0.800445 0.002906 -0.112316
C161  C     C_R   0.800756 0.691661 0.002802 -0.103995
C162  C     C_R   0.691722 0.199164 0.002732 -0.103277
C163  C     C_R   0.199470 0.308628 0.002840 -0.112229
C164  C     C_R   0.308666 0.800494 0.002877 -0.112370
C165  C     C_R   0.699381 0.191485 0.502799 -0.112222
C166  C     C_R   0.000241 0.500349 0.118427 -0.094243
C167  C     C_R   0.808732 0.699559 0.502916 -0.112859
C168  C     C_R   0.300759 0.808354 0.502790 -0.104458
C169  C     C_R   0.191363 0.300512 0.502834 -0.111471
C170  C     C_R   0.300822 0.191712 0.502752 -0.103215
C171  C     C_R   0.191367 0.699483 0.502876 -0.111949
C172  C     C_R   0.699256 0.808357 0.502811 -0.104793
C173  C     C_R   0.808324 0.300801 0.502734 -0.102860
C174  C     C_R   0.217731 0.727214 0.031260 -0.126117
C175  C     C_R   0.273741 0.218605 0.031322 -0.121690
C176  C     C_R   0.781497 0.273632 0.031305 -0.112606
H1    H     H_    0.359069 0.734303 0.936812 0.167484
H2    H     H_    0.764532 0.858289 0.436756 0.150638
H3    H     H_    0.141014 0.765397 0.436754 0.167375
H4    H     H_    0.238164 0.144232 0.435844 0.149948
H5    H     H_    0.143837 0.237071 0.435796 0.168055
H6    H     H_    0.235083 0.858502 0.436846 0.148391
H7    H     H_    0.858868 0.765447 0.436754 0.168668
H8    H     H_    0.762778 0.143640 0.435836 0.166294
H9    H     H_    0.972131 0.614210 0.122208 0.194854
H10   H     H_    0.386487 0.027771 0.122731 0.186080
H11   H     H_    0.028274 0.386597 0.122726 0.185766
H12   H     H_    0.262679 0.356018 0.935766 0.167909
H13   H     H_    0.614295 0.972668 0.122213 0.194894
H14   H     H_    0.472432 0.114248 0.622235 0.195586
H15   H     H_    0.886497 0.527791 0.622733 0.185223
H16   H     H_    0.528162 0.886530 0.622706 0.185340
H17   H     H_    0.114299 0.472664 0.622212 0.195464
H18   H     H_    0.527540 0.114869 0.820624 0.164128
H19   H     H_    0.885417 0.475217 0.820334 0.165303
H20   H     H_    0.476271 0.885140 0.820330 0.165700
H21   H     H_    0.114779 0.527819 0.820629 0.164625
H22   H     H_    0.025939 0.615134 0.320608 0.165138
H23   H     H_    0.643965 0.262174 0.935968 0.148098
H24   H     H_    0.385436 0.974683 0.320347 0.165013
H25   H     H_    0.976245 0.385063 0.320336 0.165050
H26   H     H_    0.614727 0.027601 0.320614 0.164351
H27   H     H_    0.526204 0.114814 0.877328 0.172956
H28   H     H_    0.885309 0.474570 0.877082 0.187845
H29   H     H_    0.475499 0.885065 0.877075 0.192488
H30   H     H_    0.114683 0.526637 0.877335 0.176278
H31   H     H_    0.024784 0.615067 0.377305 0.192688
H32   H     H_    0.385362 0.974075 0.377101 0.173691
H33   H     H_    0.975681 0.384966 0.377089 0.175568
H34   H     H_    0.735527 0.641733 0.936709 0.150790
H35   H     H_    0.614664 0.026458 0.377313 0.188100
H36   H     H_    0.162624 0.618460 0.089669 0.347672
H37   H     H_    0.384408 0.164728 0.089312 0.340104
H38   H     H_    0.836004 0.383864 0.089359 0.347031
H39   H     H_    0.618331 0.837580 0.089726 0.342230
H40   H     H_    0.837009 0.617950 0.089648 0.342490
H41   H     H_    0.615877 0.164635 0.089287 0.347511
H42   H     H_    0.164148 0.383948 0.089410 0.339639
H43   H     H_    0.381376 0.837954 0.089723 0.347112
H44   H     H_    0.664040 0.116378 0.589374 0.347265
H45   H     H_    0.641187 0.734572 0.936705 0.168836
H46   H     H_    0.881562 0.662390 0.589765 0.339551
H47   H     H_    0.337309 0.881935 0.589635 0.347365
H48   H     H_    0.116113 0.335917 0.589385 0.342183
H49   H     H_    0.335403 0.115767 0.589318 0.342654
H50   H     H_    0.118665 0.662247 0.589714 0.347372
H51   H     H_    0.662930 0.882008 0.589683 0.339858
H52   H     H_    0.884314 0.335465 0.589276 0.347329
H53   H     H_    0.221687 0.914856 0.922158 0.349140
H54   H     H_    0.081194 0.218297 0.924145 0.349216
H55   H     H_    0.748051 0.066344 0.926862 0.346243
H56   H     H_    0.737036 0.356266 0.935847 0.166344
H57   H     H_    0.930227 0.746991 0.925648 0.344977
H58   H     H_    0.778162 0.915604 0.922504 0.349199
H59   H     H_    0.918109 0.218229 0.923747 0.349437
H60   H     H_    0.250893 0.066044 0.927252 0.346202
H61   H     H_    0.070092 0.745779 0.925266 0.344595
H62   H     H_    0.752024 0.433556 0.426879 0.345957
H63   H     H_    0.569837 0.753027 0.425599 0.344977
H64   H     H_    0.278346 0.584709 0.422306 0.349302
H65   H     H_    0.433695 0.248923 0.427161 0.346314
H66   H     H_    0.281383 0.418633 0.424039 0.349537
H67   H     H_    0.355539 0.261708 0.935809 0.149742
H68   H     H_    0.430000 0.753829 0.425380 0.344762
H69   H     H_    0.721896 0.584416 0.422456 0.349008
H70   H     H_    0.581935 0.281985 0.423731 0.349783
H71   H     H_    0.012292 0.653127 0.193914 0.223888
H72   H     H_    0.924882 0.623291 0.198223 0.206322
H73   H     H_    0.354551 0.087060 0.176386 0.206887
H74   H     H_    0.330958 0.998127 0.177424 0.217118
H75   H     H_    0.087717 0.354953 0.176373 0.206700
H76   H     H_    0.998928 0.330914 0.177417 0.217317
H77   H     H_    0.652972 0.013072 0.193926 0.223922
H78   H     H_    0.264993 0.641206 0.936916 0.149310
H79   H     H_    0.623580 0.925493 0.198230 0.206257
H80   H     H_    0.513006 0.153059 0.693921 0.223880
H81   H     H_    0.425554 0.123408 0.698290 0.206297
H82   H     H_    0.854598 0.587201 0.676366 0.206441
H83   H     H_    0.830994 0.498273 0.677440 0.217298
H84   H     H_    0.587770 0.854762 0.676303 0.206517
H85   H     H_    0.498939 0.830900 0.677418 0.217179
H86   H     H_    0.153015 0.513202 0.693910 0.223787
H87   H     H_    0.123616 0.425633 0.698244 0.206409
H88   H     H_    0.855951 0.237639 0.435966 0.149144
N1    N     N_R   0.973224 0.444265 0.234442 -0.124617
N2    N     N_R   0.056965 0.531362 0.765784 -0.161293
N3    N     N_R   0.531498 0.057005 0.765782 -0.161291
N4    N     N_R   0.943939 0.473138 0.765427 -0.157449
N5    N     N_R   0.973229 0.443699 0.265417 -0.157831
N6    N     N_R   0.556898 0.031134 0.265789 -0.160949
N7    N     N_R   0.030634 0.557170 0.265793 -0.160832
N8    N     N_R   0.443911 0.972832 0.265419 -0.157917
N9    N     N_3   0.966622 0.633110 0.182226 -0.424790
N10   N     N_3   0.371214 0.035486 0.183841 -0.425688
N11   N     N_3   0.036078 0.371366 0.183833 -0.425694
N12   N     N_R   0.557252 0.031418 0.234827 -0.178584
N13   N     N_3   0.633201 0.967290 0.182234 -0.424764
N14   N     N_3   0.467249 0.133151 0.682263 -0.424455
N15   N     N_3   0.871257 0.535640 0.683839 -0.425798
N16   N     N_3   0.536197 0.871278 0.683804 -0.425678
N17   N     N_3   0.133235 0.467401 0.682234 -0.424520
N18   N     N_R   0.030923 0.557527 0.234830 -0.178796
N19   N     N_R   0.444472 0.972830 0.234443 -0.124614
N20   N     N_R   0.473601 0.944315 0.734452 -0.124646
N21   N     N_R   0.057323 0.531596 0.734821 -0.178605
N22   N     N_R   0.531685 0.057380 0.734818 -0.178653
N23   N     N_R   0.944502 0.473086 0.734452 -0.124645
N24   N     N_R   0.473703 0.943732 0.765426 -0.157484
O1    O     O_3   0.000000 0.500000 0.999980 -0.511692
O2    O     O_R   0.000000 0.560770 0.430670 -0.627855
O3    O     O_R   0.111960 0.735546 0.939997 -0.774625
O4    O     O_2   0.785129 0.329025 0.396336 -0.611075
O5    O     O_R   0.762594 0.390867 0.441137 -0.778964
O6    O     O_2   0.674969 0.788558 0.396055 -0.606979
O7    O     O_R   0.611766 0.763654 0.440250 -0.774927
O8    O     O_2   0.172953 0.651211 0.405218 -0.625527
O9    O     O_R   0.273448 0.631152 0.434896 -0.765292
O10   O     O_2   0.329448 0.215923 0.396438 -0.603110
O11   O     O_R   0.390986 0.238022 0.441354 -0.779344
O12   O     O_2   0.176614 0.352986 0.405676 -0.610191
O13   O     O_R   0.439230 0.000000 0.430670 -0.647967
O14   O     O_R   0.276097 0.371561 0.436150 -0.766507
O15   O     O_2   0.324666 0.789517 0.395978 -0.613562
O16   O     O_R   0.388105 0.764151 0.440079 -0.774469
O17   O     O_2   0.827406 0.650807 0.405456 -0.614417
O18   O     O_R   0.726680 0.630949 0.434993 -0.763998
O19   O     O_2   0.647280 0.176906 0.405487 -0.627392
O20   O     O_R   0.628825 0.276456 0.435951 -0.762377
O21   O     O_R   1.000000 0.439230 0.430670 -0.641038
O22   O     O_R   0.000000 0.560690 0.069300 -0.633637
O23   O     O_R   0.439310 0.000000 0.069300 -0.628147
O24   O     O_R   0.000000 0.439310 0.069300 -0.626889
O25   O     O_R   0.560690 0.000000 0.069300 -0.632537
O26   O     O_R   0.500000 0.060690 0.569300 -0.632683
O27   O     O_R   0.939310 0.500000 0.569300 -0.627889
O28   O     O_R   0.500000 0.939310 0.569300 -0.629239
O29   O     O_3   0.500000 0.000000 0.999980 -0.511829
O30   O     O_R   0.060690 0.500000 0.569300 -0.631401
O31   O     O_R   0.853850 0.585430 0.981810 -0.653331
O32   O     O_R   0.414570 0.853850 0.981810 -0.647689
O33   O     O_R   0.146150 0.414570 0.981810 -0.646909
O34   O     O_R   0.585430 0.146150 0.981810 -0.654816
O35   O     O_R   0.146150 0.585430 0.981810 -0.654388
O36   O     O_R   0.585430 0.853850 0.981810 -0.646703
O37   O     O_R   0.853850 0.414570 0.981810 -0.647774
O38   O     O_R   0.414570 0.146150 0.981810 -0.653915
O39   O     O_R   0.353850 0.085430 0.481810 -0.653919
O40   O     O_3   0.500000 0.000000 0.499980 -0.510971
O41   O     O_R   0.914570 0.353850 0.481810 -0.653976
O42   O     O_R   0.646150 0.914570 0.481810 -0.653356
O43   O     O_R   0.085430 0.646150 0.481810 -0.647202
O44   O     O_R   0.646150 0.085430 0.481810 -0.648310
O45   O     O_R   0.085430 0.353850 0.481810 -0.646748
O46   O     O_R   0.353850 0.914570 0.481810 -0.655229
O47   O     O_R   0.914570 0.646150 0.481810 -0.646767
O48   O     O_R   0.085450 0.353830 0.018160 -0.618842
O49   O     O_R   0.646170 0.085450 0.018160 -0.615864
O50   O     O_R   0.914550 0.646170 0.018160 -0.615331
O51   O     O_3   0.000000 0.500000 0.499980 -0.512535
O52   O     O_R   0.353830 0.914550 0.018160 -0.616404
O53   O     O_R   0.914550 0.353830 0.018160 -0.618375
O54   O     O_R   0.353830 0.085450 0.018160 -0.616568
O55   O     O_R   0.085450 0.646170 0.018160 -0.614544
O56   O     O_R   0.646170 0.914550 0.018160 -0.616930
O57   O     O_R   0.585450 0.853830 0.518160 -0.615151
O58   O     O_R   0.146170 0.585450 0.518160 -0.618369
O59   O     O_R   0.414550 0.146170 0.518160 -0.616714
O60   O     O_R   0.853830 0.414550 0.518160 -0.616353
O61   O     O_R   0.414550 0.853830 0.518160 -0.614603
O62   O     O_R   0.060770 0.500000 0.930670 -0.637147
O63   O     O_R   0.853830 0.585450 0.518160 -0.616899
O64   O     O_R   0.585450 0.146170 0.518160 -0.615795
O65   O     O_R   0.146170 0.414550 0.518160 -0.618943
O66   O     O_2   0.150986 0.745550 0.077332 -0.533165
O67   O     O_R   0.188734 0.629190 0.069390 -0.805728
O68   O     O_2   0.256857 0.153395 0.077899 -0.544440
O69   O     O_R   0.373049 0.190225 0.068949 -0.807046
O70   O     O_2   0.846778 0.256270 0.077840 -0.538614
O71   O     O_R   0.810360 0.372683 0.069007 -0.803065
O72   O     O_2   0.745508 0.848461 0.077515 -0.536568
O73   O     O_R   0.500000 0.060770 0.930670 -0.652172
O74   O     O_R   0.628976 0.811584 0.069403 -0.803811
O75   O     O_2   0.848725 0.745098 0.077444 -0.534690
O76   O     O_R   0.811040 0.628783 0.069340 -0.806340
O77   O     O_2   0.743404 0.153261 0.077843 -0.534026
O78   O     O_R   0.627204 0.190188 0.068937 -0.805999
O79   O     O_2   0.153454 0.256350 0.077898 -0.546139
O80   O     O_R   0.189710 0.372791 0.069042 -0.804421
O81   O     O_2   0.254245 0.848875 0.077395 -0.538054
O82   O     O_R   0.370768 0.811799 0.069431 -0.802912
O83   O     O_2   0.653215 0.243931 0.577813 -0.535221
O84   O     O_R   0.939230 0.500000 0.930670 -0.639896
O85   O     O_R   0.689692 0.127504 0.569027 -0.803774
O86   O     O_2   0.754412 0.651490 0.577478 -0.545216
O87   O     O_R   0.870951 0.688397 0.569447 -0.804214
O88   O     O_2   0.348896 0.754776 0.577385 -0.536231
O89   O     O_R   0.311231 0.871116 0.569348 -0.805876
O90   O     O_2   0.243677 0.346607 0.577916 -0.537288
O91   O     O_R   0.127272 0.310341 0.569015 -0.803607
O92   O     O_2   0.346771 0.243324 0.577874 -0.535580
O93   O     O_R   0.309869 0.127089 0.568958 -0.806881
O94   O     O_2   0.245793 0.651313 0.577405 -0.535531
O95   O     O_R   0.500000 0.939230 0.930670 -0.623985
O96   O     O_R   0.129262 0.688364 0.569423 -0.802690
O97   O     O_2   0.651219 0.754875 0.577414 -0.543380
O98   O     O_R   0.688913 0.871194 0.569379 -0.806933
O99   O     O_2   0.756752 0.346774 0.577868 -0.536904
O100  O     O_R   0.872947 0.309906 0.568921 -0.805441
O101  O     O_2   0.327228 0.848389 0.905222 -0.628326
O102  O     O_R   0.226595 0.868501 0.934792 -0.762763
O103  O     O_2   0.146706 0.323053 0.905705 -0.609253
O104  O     O_R   0.128293 0.223655 0.936234 -0.766542
O105  O     O_2   0.714830 0.170811 0.896328 -0.611016
O106  O     O_R   0.560770 0.000000 0.430670 -0.636407
O107  O     O_R   0.737463 0.109042 0.941124 -0.778708
O108  O     O_2   0.825110 0.711466 0.896057 -0.606150
O109  O     O_R   0.888291 0.736364 0.940282 -0.775072
O110  O     O_2   0.672654 0.849217 0.905455 -0.612765
O111  O     O_R   0.773374 0.869072 0.935025 -0.763908
O112  O     O_2   0.852488 0.323090 0.905468 -0.623876
O113  O     O_R   0.871185 0.223652 0.935945 -0.765173
O114  O     O_2   0.283774 0.170211 0.896473 -0.604948
O115  O     O_R   0.261834 0.108823 0.941422 -0.779348
O116  O     O_2   0.175499 0.709987 0.895950 -0.613893
Zn1   Zn    Zn3+2 0.000000 0.586730 0.025950 1.071422
Zn2   Zn    Zn3+2 0.500000 0.913260 0.974020 1.025711
Zn3   Zn    Zn3+2 0.086740 0.500000 0.974020 1.015539
Zn4   Zn    Zn3+2 0.500000 0.086740 0.974020 1.004797
Zn5   Zn    Zn3+2 0.413260 0.000000 0.474020 1.006781
Zn6   Zn    Zn3+2 0.000000 0.413260 0.474020 1.013886
Zn7   Zn    Zn3+2 0.586740 0.000000 0.474020 1.016292
Zn8   Zn    Zn3+2 0.000000 0.586740 0.474020 1.023794
Zn9   Zn    Zn3+2 0.413270 0.000000 0.025950 1.065633
Zn10  Zn    Zn3+2 0.000000 0.413270 0.025950 1.060037
Zn11  Zn    Zn3+2 0.586730 0.000000 0.025950 1.066029
Zn12  Zn    Zn3+2 0.500000 0.086730 0.525950 1.065842
Zn13  Zn    Zn3+2 0.913270 0.500000 0.525950 1.066062
Zn14  Zn    Zn3+2 0.500000 0.913270 0.525950 1.070871
Zn15  Zn    Zn3+2 0.086730 0.500000 0.525950 1.060395
Zn16  Zn    Zn3+2 0.913260 0.500000 0.974020 1.014734

loop_
_geom_bond_atom_site_label_1
_geom_bond_atom_site_label_2
_ccdc_geom_bond_type
O106  Zn7   S    
C16   C173  A    
C44   N10   S    
O49   Zn11  S    
C107  C112  A    
C41   C50   A    
C10   C63   S    
O37   Zn16  S    
C128  O53   A    
C138  O47   A    
C59   O80   S    
C77   O116  D    
C21   H45   S    
C68   N8    A    
C147  C164  A    
C67   O98   S    
O39   Zn5   S    
C48   C144  A    
O56   Zn11  S    
C54   C176  S    
C110  C111  S    
O24   Zn10  S    
C13   C119  S    
O47   Zn8   S    
N3    N22   A    
C66   O96   S    
C103  H30   S    
C20   H34   S    
C97   C115  A    
C141  C145  A    
C83   O12   D    
C86   O20   S    
O51   Zn13  S    
C117  O24   A    
C134  O43   A    
C8    C16   A    
O40   Zn7   S    
C118  O23   A    
H79   N13   S    
C148  C165  A    
C5    C58   S    
O84   Zn16  S    
O22   Zn1   S    
C28   C31   S    
C156  C173  A    
C24   C120  S    
C75   O112  D    
C89   O73   A    
C31   C150  S    
N7    N18   A    
O51   Zn8   S    
O62   Zn3   S    
C9    C62   S    
O32   Zn2   S    
O27   Zn13  S    
O29   Zn9   S    
C58   O77   D    
C152  C170  A    
H64   O9    S    
C57   N5    A    
C117  C166  S    
C150  C168  A    
C73   O109  S    
C75   O113  S    
C43   C122  A    
C100  O106  A    
C68   C116  S    
O64   Zn12  S    
C118  O25   A    
C11   C169  A    
H61   O3    S    
C5    C176  A    
H54   O104  S    
C36   C44   A    
O13   Zn5   S    
C23   H67   S    
H46   O87   S    
C17   H1    S    
C18   C71   S    
C91   H18   S    
H41   O78   S    
C49   C155  A    
C76   O115  S    
C1    O62   A    
C70   O101  D    
C82   O10   D    
C1    O84   A    
O40   Zn12  S    
C17   C25   S    
C9    C15   A    
H72   N9    S    
O26   Zn12  S    
H53   O102  S    
C104  C110  A    
N2    N21   A    
C60   O81   D    
C37   H11   S    
H85   N16   S    
O61   Zn14  S    
C89   C108  S    
C20   C73   S    
C35   C113  S    
H74   N10   S    
C55   O74   S    
C29   C82   S    
C6    C163  A    
C139  C157  A    
C10   C168  A    
C126  O55   A    
C119  O28   A    
C96   C116  A    
C132  C172  S    
H48   O91   S    
C35   N3    A    
C121  O50   A    
C143  C161  A    
C137  C168  S    
C47   N13   S    
C124  O33   A    
C121  O31   A    
H83   N15   S    
C125  C162  S    
C27   H2    S    
C23   C76   S    
C74   O111  S    
O51   Zn6   S    
C99   C108  A    
C51   C155  A    
C26   C78   S    
C138  O63   A    
C21   C142  S    
C88   N22   A    
O29   Zn11  S    
C130  O59   A    
C131  O41   A    
H86   N17   S    
C57   N7    A    
C40   C49   A    
C50   N16   S    
C30   C83   S    
C104  H31   S    
C140  C158  A    
C84   O16   S    
C3    C55   S    
O43   Zn8   S    
C141  C159  A    
C15   C172  A    
H55   O107  S    
H71   N9    S    
C64   O91   S    
O29   Zn2   S    
C52   O67   S    
C157  C174  A    
C124  C163  S    
C27   C154  S    
O25   Zn11  S    
O21   Zn6   S    
C69   O100  S    
C88   N20   A    
C129  C158  S    
C50   C144  A    
C62   O86   D    
O35   Zn3   S    
C23   C140  S    
O1    Zn16  S    
O38   Zn4   S    
C27   C80   S    
C10   C14   A    
C78   O5    S    
H51   O98   S    
C31   C84   S    
C42   H17   S    
C29   C30   S    
O45   Zn6   S    
C2    C38   A    
C26   C33   S    
O30   Zn15  S    
H66   O14   S    
C15   C67   S    
H47   O89   S    
C33   H8    S    
C119  O26   A    
C20   C21   S    
O59   Zn12  S    
H77   N13   S    
C159  C176  A    
C71   O103  D    
C28   C153  S    
C93   H20   S    
C3    C4    A    
C52   C174  S    
O57   Zn14  S    
C53   C175  S    
C105  H32   S    
H49   O93   S    
C126  C157  S    
C96   H24   S    
C99   H27   S    
C134  O58   A    
C6    C59   S    
C34   C43   A    
C97   H25   S    
C14   C171  A    
C61   O83   D    
C59   O79   D    
O52   Zn9   S    
C19   H23   S    
C151  C169  A    
C94   H21   S    
C74   O110  D    
C76   O114  D    
C60   O82   S    
H76   N11   S    
C67   O97   D    
C63   O89   S    
C136  O45   A    
H59   O113  S    
O29   Zn4   S    
C8    C165  A    
C27   C32   S    
C158  C175  A    
H69   O18   S    
C46   N4    A    
C129  O54   A    
C142  C143  A    
H73   N10   S    
C91   C99   A    
C127  C160  S    
C4    C56   S    
C128  C159  S    
C85   O18   S    
C65   O93   S    
C96   C105  A    
C56   O75   D    
C135  O44   A    
C63   O88   D    
C24   C42   A    
C32   H7    S    
C149  C167  A    
H43   O82   S    
H60   O115  S    
C13   C41   A    
C2    C118  S    
C57   C115  S    
C124  O48   A    
C72   O105  D    
C25   C139  S    
C81   O8    D    
O95   Zn2   S    
C83   O14   S    
C107  H35   S    
C6    C175  A    
C49   N15   S    
C101  C109  A    
C7    C174  A    
C100  O13   A    
N1    N5    A    
C125  O49   A    
C1    C109  S    
C58   O78   S    
C129  O38   A    
C150  C153  A    
C151  C152  A    
C73   O108  D    
C47   C133  A    
C135  O64   A    
C20   C143  S    
C64   O90   D    
C52   O66   D    
C98   H26   S    
C79   C122  S    
N20   N24   A    
C140  C146  A    
C70   O102  S    
C82   O11   S    
C45   N11   S    
C106  H33   S    
C126  O35   A    
C98   C107  A    
C26   H88   S    
O33   Zn3   S    
C34   H9    S    
C149  C154  A    
H52   O100  S    
O34   Zn4   S    
C33   C148  S    
C80   O7    S    
C132  O42   A    
C11   C12   A    
C38   H13   S    
H50   O96   S    
C135  C165  S    
C93   C113  A    
C111  O2    A    
C92   C101  A    
C97   C106  A    
C125  O34   A    
C86   O19   D    
C94   C103  A    
C100  C112  S    
C48   N14   S    
C31   H6    S    
C30   H5    S    
O53   Zn10  S    
C7    C60   S    
O1    Zn10  S    
C123  O32   A    
C72   O107  S    
C93   C102  A    
O46   Zn5   S    
C43   N9    S    
C45   C122  A    
C12   C65   S    
O44   Zn7   S    
C103  C109  A    
C5    C162  A    
H58   O111  S    
O1    Zn1   S    
C123  C164  S    
C40   H15   S    
C130  C170  S    
C95   H22   S    
C32   C85   S    
C18   H12   S    
C4    C161  A    
C28   H3    S    
C87   N19   A    
O50   Zn1   S    
H68   O16   S    
C54   O71   S    
C111  O21   A    
H37   O69   S    
C90   N23   A    
O40   Zn14  S    
C35   N24   A    
C148  C156  A    
C34   C166  A    
H36   O67   S    
C39   C48   A    
O60   Zn13  S    
C87   C133  S    
C26   C156  S    
C69   O99   D    
C92   H19   S    
C94   C114  A    
H65   O11   S    
C79   N18   A    
C139  C147  A    
C62   O87   S    
C19   C145  S    
H39   O74   S    
C25   C77   S    
H80   N14   S    
C17   C147  S    
H75   N11   S    
C137  O46   A    
O63   Zn13  S    
H84   N16   S    
H62   O5    S    
H63   O7    S    
C145  C162  A    
C22   C141  S    
C89   O95   A    
C24   C40   A    
O48   Zn10  S    
C32   C149  S    
C95   C115  A    
O65   Zn15  S    
C29   H4    S    
O41   Zn6   S    
O28   Zn14  S    
C128  O37   A    
C102  C108  A    
C120  O30   A    
H42   O80   S    
C8    C61   S    
C123  O52   A    
N8    N19   A    
C121  C161  S    
H81   N14   S    
C53   O69   S    
C19   C72   S    
C22   C75   S    
O54   Zn9   S    
C54   O70   D    
O31   Zn16  S    
H40   O76   S    
C46   C114  S    
C7    C164  A    
C18   C23   S    
C120  O27   A    
N6    N12   A    
C9    C167  A    
C19   C22   S    
C11   C64   S    
O1    Zn3   S    
C39   H14   S    
C12   C170  A    
O55   Zn1   S    
C21   C74   S    
C131  C173  S    
C91   C113  A    
C138  C167  S    
C33   C86   S    
C68   N6    A    
C81   O9    S    
C84   O15   D    
C98   C116  A    
O23   Zn9   S    
C153  C171  A    
C90   N21   A    
C14   C66   S    
C154  C172  A    
C127  O36   A    
C38   C47   A    
C80   O6    D    
C134  C171  S    
C3    C160  A    
C87   N12   A    
H38   O71   S    
H82   N15   S    
C95   C104  A    
C85   O17   D    
C106  C110  A    
C65   O92   D    
C2    C36   A    
C44   C133  A    
O73   Zn4   S    
O51   Zn15  S    
C117  O22   A    
C56   O76   S    
O40   Zn5   S    
C41   H16   S    
C28   C81   S    
C105  C112  A    
C16   C69   S    
H44   O85   S    
C142  C160  A    
C131  O60   A    
C18   C146  S    
C101  H28   S    
C77   O3    S    
C136  O65   A    
C78   O4    D    
C37   C166  A    
O2    Zn8   S    
C146  C163  A    
C42   C51   A    
H87   N17   S    
O58   Zn15  S    
N4    N23   A    
C29   C152  S    
C30   C151  S    
C92   C114  A    
C25   H78   S    
C79   N1    A    
O42   Zn7   S    
C36   H10   S    
C53   O68   D    
H57   O109  S    
C102  H29   S    
C127  O56   A    
C13   C39   A    
O36   Zn2   S    
C61   O85   S    
C130  O39   A    
C137  O61   A    
C17   C70   S    
C46   N2    A    
C22   H56   S    
C136  C169  S    
C132  O57   A    
C71   O104  S    
C51   N17   S    
C90   C155  S    
C37   C45   A    
C55   O72   D    
C88   C144  S    
C66   O94   D    
H70   O20   S    
