data_mof_unit_43073.cif
_audit_creation_date              2012-12-10T17:52:37-0500
_audit_creation_method            fapswitch 2.2
_symmetry_space_group_name_H-M    P1
_symmetry_Int_Tables_number       1
_space_group_crystal_system       triclinic
_cell_length_a                    14.699685
_cell_length_b                    14.703031
_cell_length_c                    23.530662
_cell_angle_alpha                 76.655163
_cell_angle_beta                  102.916639
_cell_angle_gamma                 114.840123
_cell_volume                      4444.17865742

loop_
_atom_site_label
_atom_site_type_symbol
_atom_type_description
_atom_site_fract_x
_atom_site_fract_y
_atom_site_fract_z
_atom_type_partial_charge
C1    C     C_R   0.880321 0.312150 0.508443 0.802311
C2    C     C_R   0.086512 0.497110 0.312947 -0.261066
C3    C     C_R   0.006545 0.408671 0.771215 -0.107051
C4    C     C_R   0.091057 0.492005 0.255437 -0.112756
C5    C     C_R   0.000912 0.487808 0.791906 0.314463
C6    C     C_R   0.007309 0.483929 0.211845 0.314005
C7    C     C_R   0.812531 0.204247 0.510623 -0.159088
C8    C     C_R   0.186258 0.796743 0.486904 -0.143388
C9    C     C_R   0.781583 0.025981 0.524775 -0.296780
C10   C     C_R   0.216945 0.974703 0.476456 -0.314255
C11   C     C_R   0.848592 0.127385 0.516207 0.439132
C12   C     C_R   0.119536 0.688092 0.490980 0.816974
C13   C     C_R   0.148929 0.873050 0.480606 0.443790
C14   C     C_R   0.708424 0.178475 0.505384 -0.320761
C15   C     C_R   0.290304 0.823605 0.491065 -0.321843
C16   C     C_R   0.000337 0.500785 0.608691 0.789036
C17   C     C_R   0.998636 0.497450 0.391038 0.773266
C18   C     C_R   0.638613 0.077554 0.506218 0.076993
C19   C     C_R   0.359489 0.924676 0.491211 0.082251
C20   C     C_R   0.676709 0.999495 0.522045 0.052861
C21   C     C_R   0.321109 0.002082 0.477350 0.057627
C22   C     C_R   0.532360 0.052726 0.494036 0.046671
C23   C     C_R   0.994920 0.572762 0.751968 -0.129572
C24   C     C_R   0.465550 0.950108 0.503878 0.046961
C25   C     C_R   0.505985 0.875708 0.529125 -0.247126
C26   C     C_R   0.491175 0.127363 0.470670 -0.258276
C27   C     C_R   0.610040 0.897760 0.536825 0.101255
C28   C     C_R   0.386909 0.104434 0.463714 0.101659
C29   C     C_R   0.714126 0.665617 0.399861 -0.349428
C30   C     C_R   0.278172 0.323023 0.592948 -0.331398
C31   C     C_R   0.794010 0.633599 0.414654 0.091782
C32   C     C_R   0.199960 0.357263 0.579983 0.112319
C33   C     C_R   0.715895 0.511788 0.492618 -0.024280
C34   C     C_R   0.918065 0.478858 0.226664 -0.139706
C35   C     C_R   0.286363 0.491650 0.509440 -0.013594
C36   C     C_R   0.628802 0.536775 0.477794 -0.044014
C37   C     C_R   0.370563 0.462244 0.521319 -0.041988
C38   C     C_R   0.632144 0.620557 0.432571 0.120702
C39   C     C_R   0.364165 0.373805 0.563478 0.108060
C40   C     C_R   0.083267 0.560138 0.121914 0.551467
C41   C     C_R   0.932483 0.405557 0.883761 0.549512
C42   C     C_R   0.540296 0.482607 0.506638 0.040288
C43   C     C_R   0.458926 0.516299 0.492213 0.044607
C44   C     C_R   0.468845 0.604047 0.449837 -0.250789
C45   C     C_R   0.996998 0.580698 0.691701 0.039747
C46   C     C_R   0.529309 0.393069 0.547426 -0.243514
C47   C     C_R   0.554707 0.658322 0.421172 0.102899
C48   C     C_R   0.442298 0.336743 0.574857 0.101073
C49   C     C_R   0.943265 0.399943 0.125441 0.554152
C50   C     C_R   0.080934 0.558698 0.882265 0.555917
C51   C     C_R   0.941028 0.398755 0.065784 -0.049745
C52   C     C_R   0.083993 0.559261 0.942110 -0.049262
C53   C     C_R   0.013031 0.479605 0.033980 -0.082007
C54   C     C_R   0.010690 0.479541 0.973598 -0.081442
C55   C     C_R   0.086548 0.560904 0.062305 -0.097881
C56   C     C_R   0.910354 0.480081 0.284840 0.046101
C57   C     C_R   0.935019 0.400049 0.944742 -0.102806
C58   C     C_R   0.867623 0.318859 0.037399 -0.263184
C59   C     C_R   0.158720 0.638040 0.970796 -0.265049
C60   C     C_R   0.864534 0.318082 0.977650 0.447918
C61   C     C_R   0.159167 0.641205 0.029866 0.444780
C62   C     C_3   0.567253 0.759046 0.380199 -0.411861
C63   C     C_3   0.490452 0.805007 0.380140 -0.359709
C64   C     C_3   0.521632 0.913162 0.346689 -0.815813
C65   C     C_3   0.429750 0.235145 0.614915 -0.409175
C66   C     C_3   0.513348 0.195389 0.620125 -0.363235
C67   C     C_R   0.999983 0.499043 0.671093 -0.049092
C68   C     C_3   0.485719 0.088727 0.655430 -0.799660
C69   C     C_3   0.816507 0.154885 0.965011 0.091721
C70   C     C_3   0.738427 0.071183 0.931433 -0.725772
C71   C     C_3   0.214156 0.807990 0.037714 0.099284
C72   C     C_3   0.290621 0.890775 0.072475 -0.726482
C73   C     C_3   0.006098 0.680542 0.652611 -0.383030
C74   C     C_3   0.902999 0.689088 0.633721 -0.327024
C75   C     C_3   0.915932 0.798209 0.607908 -0.833009
C76   C     C_3   0.807257 0.463101 0.297799 -0.385781
C77   C     C_3   0.758234 0.357149 0.332971 -0.291076
C78   C     C_R   0.997340 0.492063 0.328730 -0.065823
C79   C     C_3   0.659030 0.342956 0.350806 -0.853464
C80   C     C_3   0.651638 0.815281 0.563081 -0.422187
C81   C     C_3   0.576632 0.712139 0.589385 -0.345657
C82   C     C_3   0.629186 0.639008 0.617224 -0.823320
C83   C     C_3   0.344067 0.186749 0.439636 -0.410112
C84   C     C_3   0.414708 0.287332 0.408071 -0.353419
C85   C     C_3   0.359514 0.358362 0.380621 -0.825897
C86   C     C_3   0.997681 0.884402 0.434298 0.094782
C87   C     C_3   0.901051 0.883091 0.448407 -0.843201
C88   C     C_3   0.968309 0.167474 0.458195 0.092840
C89   C     C_R   0.005389 0.413979 0.711264 -0.250522
C90   C     C_3   0.079052 0.189337 0.458174 -0.784389
Cu1   Cu    Cu3+1 0.081740 0.475680 0.515360 0.940226
Cu2   Cu    Cu3+1 0.918260 0.524320 0.484640 0.933936
H1    H     H_    0.811123 0.256644 0.061220 0.195101
H2    H     H_    0.856630 0.668757 0.389495 0.116927
H3    H     H_    0.718133 0.726038 0.362992 0.139050
H4    H     H_    0.269559 0.256369 0.625934 0.141616
H5    H     H_    0.409872 0.632110 0.438481 0.124678
H6    H     H_    0.587242 0.363737 0.556744 0.126203
H7    H     H_    0.991968 0.634453 0.768338 0.146567
H8    H     H_    0.853559 0.471914 0.192409 0.143858
H9    H     H_    0.009004 0.351504 0.696103 0.149871
H10   H     H_    0.153657 0.505176 0.345252 0.164288
H11   H     H_    0.012493 0.343216 0.801710 0.146986
H12   H     H_    0.216895 0.698654 0.947350 0.194371
H13   H     H_    0.160197 0.494878 0.244678 0.155512
H14   H     H_    0.316078 0.764316 0.492488 0.161299
H15   H     H_    0.683394 0.238510 0.503059 0.168626
H16   H     H_    0.595644 0.963042 0.368324 0.249933
H17   H     H_    0.527547 0.914366 0.300260 0.256673
H18   H     H_    0.463911 0.943289 0.346811 0.245573
H19   H     H_    0.414507 0.758075 0.358839 0.219686
H20   H     H_    0.485572 0.807318 0.426107 0.230804
H21   H     H_    0.643729 0.815531 0.394197 0.201424
H22   H     H_    0.563973 0.748829 0.334326 0.198069
H23   H     H_    0.812965 0.968814 0.532932 0.150226
H24   H     H_    0.474443 0.088378 0.700619 0.256493
H25   H     H_    0.415357 0.034980 0.632984 0.254830
H26   H     H_    0.547906 0.062796 0.658828 0.246040
H27   H     H_    0.524238 0.192110 0.575631 0.229891
H28   H     H_    0.585689 0.246636 0.642533 0.224741
H29   H     H_    0.424418 0.241921 0.660035 0.201676
H30   H     H_    0.357164 0.176914 0.597526 0.201591
H31   H     H_    0.818776 0.124938 0.013081 0.125840
H32   H     H_    0.891821 0.175120 0.951852 0.138417
H33   H     H_    0.735361 0.098329 0.883177 0.265860
H34   H     H_    0.187749 0.031779 0.474293 0.137889
H35   H     H_    0.759363 0.004222 0.942084 0.186045
H36   H     H_    0.662492 0.048268 0.944044 0.245522
H37   H     H_    0.136887 0.793801 0.045554 0.143193
H38   H     H_    0.220493 0.835923 0.990006 0.124160
H39   H     H_    0.368544 0.907848 0.065020 0.244240
H40   H     H_    0.274890 0.960815 0.057911 0.186276
H41   H     H_    0.285338 0.865748 0.120344 0.266713
H42   H     H_    0.842328 0.799959 0.584818 0.233102
H43   H     H_    0.943920 0.845525 0.643601 0.248764
H44   H     H_    0.970511 0.830969 0.575791 0.310227
H45   H     H_    0.456402 0.799856 0.544068 0.142058
H46   H     H_    0.857163 0.639152 0.600046 0.240516
H47   H     H_    0.861193 0.664481 0.672128 0.212836
H48   H     H_    0.059064 0.743394 0.677303 0.205638
H49   H     H_    0.040373 0.690975 0.612809 0.205979
H50   H     H_    0.673343 0.395656 0.381861 0.266494
H51   H     H_    0.606096 0.356882 0.311317 0.250268
H52   H     H_    0.623152 0.263858 0.372946 0.236384
H53   H     H_    0.742733 0.298869 0.305326 0.217285
H54   H     H_    0.809615 0.344050 0.373465 0.211575
H55   H     H_    0.812610 0.524004 0.320244 0.215996
H56   H     H_    0.539744 0.204410 0.457726 0.137556
H57   H     H_    0.755373 0.468635 0.255938 0.181453
H58   H     H_    0.667871 0.630325 0.584563 0.256873
H59   H     H_    0.685786 0.667615 0.655671 0.250335
H60   H     H_    0.572252 0.563479 0.632580 0.252279
H61   H     H_    0.542784 0.722523 0.623986 0.224759
H62   H     H_    0.515305 0.677690 0.554321 0.226228
H63   H     H_    0.683526 0.803253 0.528118 0.198859
H64   H     H_    0.713545 0.843683 0.599549 0.206314
H65   H     H_    0.298386 0.325697 0.344817 0.246486
H66   H     H_    0.325677 0.370575 0.414472 0.259319
H67   H     H_    0.281978 0.554374 0.476565 0.123806
H68   H     H_    0.413845 0.432791 0.361692 0.249080
H69   H     H_    0.480391 0.326172 0.439789 0.227944
H70   H     H_    0.442657 0.272260 0.372489 0.225132
H71   H     H_    0.276150 0.156749 0.406597 0.198588
H72   H     H_    0.319617 0.202257 0.476563 0.203858
H73   H     H_    0.977988 0.834743 0.400589 0.139912
H74   H     H_    0.042076 0.963594 0.414995 0.124467
H75   H     H_    0.920677 0.937014 0.479524 0.250700
H76   H     H_    0.855777 0.905487 0.407396 0.195586
H77   H     H_    0.855145 0.806340 0.469663 0.268760
H78   H     H_    0.724096 0.455541 0.529422 0.128559
H79   H     H_    0.952304 0.234077 0.432169 0.134690
H80   H     H_    0.920692 0.099995 0.435988 0.127532
H81   H     H_    0.098988 0.127118 0.486897 0.242419
H82   H     H_    0.092661 0.195527 0.412613 0.192182
H83   H     H_    0.128252 0.261815 0.474837 0.258463
H84   H     H_    0.133724 0.316571 0.602106 0.144472
N1    N     N_R   0.012223 0.480702 0.151966 -0.466068
N2    N     N_R   0.004917 0.483763 0.854052 -0.467242
N3    N     N_R   0.795430 0.560810 0.461550 -0.171522
N4    N     N_R   0.204570 0.439190 0.538450 -0.182031
O1    O     O_R   0.977900 0.338110 0.520250 -0.544373
O2    O     O_2   0.857629 0.334515 0.854003 -0.500905
O3    O     O_2   0.876967 0.320770 0.156843 -0.558845
O4    O     O_2   0.153635 0.632525 0.852421 -0.552241
O5    O     O_3   0.788660 0.239280 0.951151 -0.532141
O6    O     O_3   0.235305 0.719570 0.056668 -0.535414
O7    O     O_3   0.049165 0.847545 0.486541 -0.582145
O8    O     O_3   0.950023 0.149661 0.517050 -0.572980
O9    O     O_R   0.022100 0.661890 0.479750 -0.541084
O10   O     O_R   0.839850 0.379180 0.494310 -0.594761
O11   O     O_R   0.160150 0.620820 0.505690 -0.594888
O12   O     O_R   0.069020 0.479430 0.595090 -0.578752
O13   O     O_R   0.930980 0.520570 0.404910 -0.588930
O14   O     O_R   0.930970 0.520500 0.569150 -0.582384
O15   O     O_R   0.069030 0.479500 0.430850 -0.587789
O16   O     O_2   0.148933 0.638861 0.149456 -0.508600

loop_
_geom_bond_atom_site_label_1
_geom_bond_atom_site_label_2
_ccdc_geom_bond_type
C70   H35   S    
C66   C68   S    
C83   H72   S    
C34   C56   A    
C60   O5    S    
C23   C45   A    
C77   H53   S    
C3    H11   S    
C33   N3    A    
C73   C74   S    
C14   C18   A    
C36   C42   A    
C86   H74   S    
C47   C62   S    
C81   C82   S    
C72   H41   S    
C75   H42   S    
C56   C78   A    
C73   H49   S    
C53   C54   A    
C15   C19   A    
C12   O9    A    
C32   H84   S    
C90   H81   S    
C8    C13   A    
C80   H63   S    
C88   H80   S    
C59   H12   S    
C35   N4    A    
C15   H14   S    
C19   C21   A    
C58   H1    S    
C62   H22   S    
Cu2   O14   S    
C75   H43   S    
C79   H50   S    
C69   H31   S    
C58   C60   A    
C87   H77   S    
C67   C89   A    
C33   C36   A    
C81   H61   S    
C45   C73   S    
C42   C46   A    
C51   C58   A    
C63   H20   S    
C17   C78   S    
C52   C59   A    
C30   H4    S    
C16   O12   A    
C68   H26   S    
C85   H66   S    
C49   O3    S    
C17   O13   A    
C7    C14   A    
C87   H75   S    
C87   H76   S    
C76   H55   S    
Cu2   O10   S    
C49   C51   A    
C29   C38   A    
C45   C67   A    
C50   C52   A    
C24   C25   A    
C80   H64   S    
C85   H68   S    
C65   H29   S    
C48   C65   S    
C82   H59   S    
C44   C47   A    
C1    O10   A    
C77   C79   S    
C46   H6    S    
C86   O7    S    
C88   H79   S    
C18   C22   A    
C28   C83   S    
C86   H73   S    
C85   H65   S    
C64   H18   S    
C52   C54   A    
C72   H40   S    
C49   N1    A    
C53   C55   A    
C10   C21   A    
C46   C48   A    
C59   C61   A    
C74   C75   S    
C11   O8    S    
C9    H23   S    
C41   N2    A    
C33   H78   S    
C84   C85   S    
C62   H21   S    
C4    C6    A    
C27   C80   S    
Cu1   Cu2   S    
C29   H3    S    
C1    O1    A    
C75   H44   S    
C57   C60   A    
C50   N2    A    
C69   H32   S    
C63   C64   S    
Cu1   O11   S    
C90   H83   S    
C81   H62   S    
C6    C34   A    
C31   N3    A    
C51   C53   A    
C37   C43   A    
C25   H45   S    
C43   C44   A    
C62   C63   S    
C2    C78   A    
Cu2   N3    S    
C79   H51   S    
C68   H25   S    
C71   H37   S    
Cu1   O15   S    
C44   H5    S    
C9    C20   A    
C34   H8    S    
C83   C84   S    
C5    C23   A    
C88   O8    S    
C8    C12   S    
C40   C55   A    
Cu1   N4    S    
C74   H47   S    
C16   C67   S    
C65   H30   S    
C76   C77   S    
C26   H56   S    
C9    C11   A    
C38   C47   A    
C82   H58   S    
C68   H24   S    
C70   H33   S    
C14   H15   S    
C20   C27   A    
C21   C28   A    
C88   C90   S    
Cu2   O13   S    
C8    C15   A    
C66   H27   S    
Cu1   O1    S    
C6    N1    S    
C22   C24   A    
C41   O2    S    
C17   O15   A    
C42   C43   A    
C71   O6    S    
C69   O5    S    
C84   H70   S    
Cu2   O9    S    
C86   C87   S    
C72   H39   S    
C40   O16   S    
C4    H13   S    
C70   H36   S    
C13   O7    S    
C12   O11   A    
C83   H71   S    
C89   H9    S    
C1    C7    S    
C50   O4    S    
C80   C81   S    
C3    C5    A    
C10   C13   A    
C73   H48   S    
C25   C27   A    
C31   H2    S    
Cu1   O12   S    
C90   H82   S    
C26   C28   A    
C79   H52   S    
C3    C89   A    
C36   C38   A    
C19   C24   A    
C41   C57   A    
C35   C37   A    
C37   C39   A    
C56   C76   S    
C71   H38   S    
C30   C32   A    
C74   H46   S    
C64   H17   S    
C76   H57   S    
C2    C4    A    
C55   C61   A    
C61   O6    S    
C30   C39   A    
C18   C20   A    
C63   H19   S    
C69   C70   S    
C35   H67   S    
C5    N2    S    
C16   O14   A    
C40   N1    A    
C71   C72   S    
C23   H7    S    
C29   C31   A    
C65   C66   S    
C22   C26   A    
C2    H10   S    
C32   N4    A    
C66   H28   S    
C10   H34   S    
C77   H54   S    
C82   H60   S    
C84   H69   S    
C64   H16   S    
C7    C11   A    
C39   C48   A    
C54   C57   A    
