data_mof_unit_8086.cif
_audit_creation_date              2012-12-10T17:45:33-0500
_audit_creation_method            fapswitch 2.2
_symmetry_space_group_name_H-M    P1
_symmetry_Int_Tables_number       1
_space_group_crystal_system       triclinic
_cell_length_a                    11.539993
_cell_length_b                    10.63775
_cell_length_c                    9.929297
_cell_angle_alpha                 91.921771
_cell_angle_beta                  89.681967
_cell_angle_gamma                 91.060935
_cell_volume                      1218.00688631

loop_
_atom_site_label
_atom_site_type_symbol
_atom_type_description
_atom_site_fract_x
_atom_site_fract_y
_atom_site_fract_z
_atom_type_partial_charge
Br1   Br    Br    0.714412 0.250617 0.260534 -0.510549
C1    C     C_R   0.511800 0.261061 0.496802 0.890533
C2    C     C_R   0.510015 0.871723 0.508330 -0.065421
C3    C     C_R   0.351273 0.333820 0.135461 -0.126156
C4    C     C_R   0.282071 0.499694 0.500287 0.879268
C5    C     C_R   0.276955 0.252593 0.063358 -0.179160
C6    C     C_R   0.275194 0.253903 0.924092 -0.187267
C7    C     C_R   0.348135 0.336006 0.856038 -0.139052
C8    C     C_R   0.425680 0.418899 0.925559 0.169204
C9    C     C_R   0.426429 0.418355 0.070018 0.176847
C10   C     C_R   0.570788 0.577785 0.073801 -0.068293
C11   C     C_R   0.570906 0.577599 0.930801 -0.103750
C12   C     C_R   0.815222 0.040607 0.363115 -0.146073
C13   C     C_R   0.498662 0.739423 0.502454 0.854564
C14   C     C_R   0.717945 0.500237 0.499764 0.902762
C15   C     C_1   0.161562 0.499571 0.500726 -0.187108
C16   C     C_1   0.059351 0.499650 0.500330 -0.000318
C17   C     C_1   0.940656 0.499922 0.499582 0.011595
C18   C     C_1   0.838457 0.500147 0.499304 -0.155215
C19   C     C_R   0.714044 0.110634 0.376130 0.229641
C20   C     C_R   0.817270 0.917140 0.403052 -0.194979
C21   C     C_R   0.716473 0.860404 0.449997 -0.169437
C22   C     C_R   0.613936 0.929829 0.467333 0.069584
C23   C     C_R   0.614303 0.059368 0.442589 0.025224
C24   C     C_R   0.515147 0.127562 0.488021 -0.072234
C25   C     C_R   0.416753 0.067436 0.539445 -0.204110
C26   C     C_R   0.412833 0.939184 0.545617 -0.204830
H1    H     H_    0.341747 0.120309 0.572856 0.131993
H2    H     H_    0.347209 0.327629 0.242063 0.199566
H3    H     H_    0.220059 0.188560 0.116068 0.153224
H4    H     H_    0.216802 0.190985 0.868193 0.151500
H5    H     H_    0.340576 0.331653 0.749339 0.198705
H6    H     H_    0.628851 0.641117 0.879075 0.150157
H7    H     H_    0.891352 0.079777 0.314531 0.166688
H8    H     H_    0.895476 0.863175 0.390744 0.154929
H9    H     H_    0.719811 0.762377 0.474631 0.127306
H10   H     H_    0.334070 0.892304 0.579083 0.142633
H11   H     H_    0.628657 0.641451 0.129285 0.151288
N1    N     N_R   0.498930 0.498800 0.142780 -0.110618
N2    N     N_R   0.498900 0.498720 0.857170 -0.120523
O1    O     O_R   0.500000 0.316780 0.614690 -0.633907
O2    O     O_R   0.499990 0.316750 0.385360 -0.600351
O3    O     O_R   0.334450 0.500030 0.614670 -0.631947
O4    O     O_R   0.334440 0.500000 0.385330 -0.631594
O5    O     O_R   0.500010 0.683250 0.614640 -0.615883
O6    O     O_R   0.500000 0.683220 0.385310 -0.613362
O7    O     O_R   0.665560 0.500000 0.614670 -0.615345
O8    O     O_R   0.665550 0.499970 0.385330 -0.571941
Zn1   Zn    Zn3+2 0.500010 0.500020 0.653130 0.947842
Zn2   Zn    Zn3+2 0.499990 0.499980 0.346870 0.974369

loop_
_geom_bond_atom_site_label_1
_geom_bond_atom_site_label_2
_ccdc_geom_bond_type
C11   N2    A    
C10   H11   S    
C14   C18   S    
C22   C23   A    
C5    C6    A    
C20   H8    S    
O5    Zn1   S    
C1    C24   S    
C21   H9    S    
C8    C9    A    
O6    Zn2   S    
C2    C22   A    
C3    H2    S    
C14   O7    A    
C10   C11   A    
O8    Zn2   S    
C16   C17   S    
C4    O3    A    
C12   C20   A    
C6    C7    A    
O7    Zn1   S    
C20   C21   A    
C10   N1    A    
C25   C26   A    
C2    C13   S    
C14   O8    A    
C1    O2    A    
O1    Zn1   S    
C5    H3    S    
C4    O4    A    
O2    Zn2   S    
C13   O5    A    
C2    C26   A    
C11   H6    S    
C3    C5    A    
C6    H4    S    
C1    O1    A    
C3    C9    A    
N2    Zn1   S    
C7    H5    S    
C19   C23   A    
C12   H7    S    
N1    Zn2   S    
C23   C24   A    
C13   O6    A    
C17   C18   T    
O4    Zn2   S    
C21   C22   A    
C15   C16   T    
Br1   C19   S    
C12   C19   A    
C24   C25   A    
C25   H1    S    
C9    N1    A    
C8    N2    A    
O3    Zn1   S    
C26   H10   S    
C7    C8    A    
C4    C15   S    
