data_mof_unit_41605.cif
_audit_creation_date              2012-12-11T17:39:24-0500
_audit_creation_method            fapswitch 2.2
_symmetry_space_group_name_H-M    P1
_symmetry_Int_Tables_number       1
_space_group_crystal_system       triclinic
_cell_length_a                    24.650649
_cell_length_b                    7.17122
_cell_length_c                    22.96624
_cell_angle_alpha                 89.999969
_cell_angle_beta                  96.537143
_cell_angle_gamma                 90.000016
_cell_volume                      4033.46612683

loop_
_atom_site_label
_atom_site_type_symbol
_atom_type_description
_atom_site_fract_x
_atom_site_fract_y
_atom_site_fract_z
_atom_type_partial_charge
O1    O     O_R   0.801910 0.607900 0.699140 -0.512844
O2    O     O_R   0.198090 0.392100 0.300860 -0.519245
O3    O     O_R   0.698090 0.107900 0.800860 -0.512844
O4    O     O_R   0.301910 0.892100 0.199140 -0.519245
O5    O     O_R   0.692320 0.276320 0.686350 -0.534951
O6    O     O_R   0.307680 0.723680 0.313650 -0.534882
O7    O     O_R   0.807680 0.776320 0.813650 -0.534951
O8    O     O_R   0.192320 0.223680 0.186350 -0.534882
C1    C     C_R   0.673642 0.446364 0.671399 0.698982
C2    C     C_R   0.326049 0.553434 0.328908 0.679697
C3    C     C_R   0.826358 0.946364 0.828601 0.698981
C4    C     C_R   0.173951 0.053434 0.171092 0.679696
O9    O     O_R   0.801140 0.278070 0.692060 -0.508833
O10   O     O_R   0.198860 0.721930 0.307940 -0.506378
O11   O     O_R   0.698860 0.778070 0.807940 -0.508833
O12   O     O_R   0.301140 0.221930 0.192060 -0.506377
O13   O     O_R   0.807690 0.109570 0.806600 -0.537826
O14   O     O_R   0.192310 0.890430 0.193400 -0.535078
O15   O     O_R   0.692310 0.609570 0.693400 -0.537826
O16   O     O_R   0.307690 0.390430 0.306600 -0.535077
C5    C     C_R   0.818133 0.446941 0.678117 0.785005
C6    C     C_R   0.181687 0.553308 0.321809 0.779627
C7    C     C_R   0.681867 0.946941 0.821883 0.785006
C8    C     C_R   0.318313 0.053308 0.178191 0.779626
O17   O     O_3   0.752020 0.441970 0.787570 -0.358958
O18   O     O_3   0.247980 0.558030 0.212430 -0.357195
O19   O     O_3   0.747980 0.941970 0.712430 -0.358958
O20   O     O_3   0.252020 0.058030 0.287570 -0.357195
V1    V     V_3+5 0.749620 0.166420 0.743030 1.596548
V2    V     V_3+5 0.250380 0.833580 0.256970 1.598051
V3    V     V_3+5 0.750380 0.666420 0.756970 1.596548
V4    V     V_3+5 0.249620 0.333580 0.243030 1.598051
C9    C     C_R   0.406862 0.179440 0.055681 0.382809
C10   C     C_R   0.597464 0.839147 0.949215 0.402546
C11   C     C_R   0.093138 0.679441 0.444318 0.382808
C12   C     C_R   0.902535 0.339149 0.550784 0.402546
C13   C     C_R   0.367070 0.191094 0.095123 0.289031
C14   C     C_R   0.635108 0.818878 0.907714 0.281669
C15   C     C_R   0.132930 0.691093 0.404877 0.289040
C16   C     C_R   0.864892 0.318879 0.592286 0.281671
C17   C     C_R   0.360616 0.044053 0.135553 -0.369489
C18   C     C_R   0.639995 0.958943 0.864734 -0.354676
C19   C     C_R   0.139384 0.544052 0.364447 -0.369490
C20   C     C_R   0.860005 0.458943 0.635265 -0.354677
C21   C     C_R   0.395716 0.886098 0.134836 0.374691
C22   C     C_R   0.604086 0.114682 0.862904 0.376423
C23   C     C_R   0.104284 0.386098 0.365163 0.374690
C24   C     C_R   0.895913 0.614683 0.637095 0.376424
C25   C     C_R   0.433423 0.872965 0.093281 0.305984
C26   C     C_R   0.567336 0.135264 0.905296 0.302932
C27   C     C_R   0.066576 0.372966 0.406718 0.305988
C28   C     C_R   0.932663 0.635266 0.594702 0.302931
C29   C     C_R   0.440733 0.021953 0.055514 -0.245059
C30   C     C_R   0.562106 0.994229 0.946547 -0.236600
C31   C     C_R   0.059266 0.521954 0.444484 -0.245062
C32   C     C_R   0.937892 0.494231 0.553451 -0.236599
C33   C     C_1   0.483541 0.014098 0.016983 0.157012
C34   C     C_1   0.519362 0.005581 0.985110 0.158420
C35   C     C_1   0.016457 0.514100 0.483014 0.157000
C36   C     C_1   0.980637 0.505583 0.514888 0.158415
C37   C     C_3   0.962211 0.892165 0.020436 0.436522
C38   C     C_3   0.037539 0.104121 0.980296 0.444821
C39   C     C_3   0.537789 0.392165 0.479564 0.436522
C40   C     C_3   0.462461 0.604122 0.519704 0.444822
C41   C     C_3   0.981801 0.081381 0.047874 -0.410843
C42   C     C_3   0.018025 0.914968 0.952824 -0.396965
C43   C     C_3   0.518199 0.581380 0.452125 -0.410845
C44   C     C_3   0.481975 0.414969 0.547176 -0.396969
H1    H     H_    0.966000 0.153006 0.085162 0.175608
H2    H     H_    0.033631 0.847191 0.914677 0.163979
H3    H     H_    0.534000 0.653003 0.414838 0.175607
H4    H     H_    0.466369 0.347193 0.585323 0.163979
C45   C     C_1   0.127909 0.045427 0.125657 -0.140732
C46   C     C_1   0.872270 0.953802 0.874271 -0.140246
C47   C     C_1   0.372091 0.545427 0.374343 -0.140732
C48   C     C_1   0.627730 0.453802 0.625729 -0.140247
C49   C     C_3   0.021538 0.832069 0.015563 0.389539
C50   C     C_3   0.978251 0.164318 0.985191 0.378610
C51   C     C_3   0.478462 0.332068 0.484437 0.389540
C52   C     C_3   0.521749 0.664318 0.514808 0.378610
C53   C     C_3   0.041618 0.020896 0.042314 -0.080358
C54   C     C_3   0.958140 0.975509 0.958356 -0.082483
C55   C     C_3   0.458382 0.520895 0.457686 -0.080358
C56   C     C_3   0.541860 0.475509 0.541644 -0.082482
C57   C     C_1   0.089054 0.037220 0.088059 0.139474
C58   C     C_1   0.910904 0.960798 0.912216 0.125926
C59   C     C_1   0.410946 0.537220 0.411941 0.139475
C60   C     C_1   0.589096 0.460799 0.587784 0.125925
O21   O     O_3   0.415019 0.330229 0.020103 -0.494474
C61   C     C_3   0.385368 0.303038 0.964438 0.182027
H5    H     H_    0.342296 0.260759 0.967999 0.109879
H6    H     H_    0.405431 0.193927 0.939874 0.111225
C62   C     C_3   0.384541 0.486458 0.930421 -0.205186
H7    H     H_    0.361840 0.593108 0.953120 0.208133
H8    H     H_    0.426981 0.537400 0.929334 0.256831
C63   C     C_3   0.357518 0.462995 0.867701 -0.866752
H9    H     H_    0.380534 0.360534 0.843785 0.246969
H10   H     H_    0.357256 0.598888 0.844486 0.238427
H11   H     H_    0.314713 0.414537 0.867678 0.234971
O22   O     O_3   0.593048 0.698455 0.989875 -0.499287
C64   C     C_3   0.616081 0.756453 0.046406 0.158678
H12   H     H_    0.592865 0.686558 0.078906 0.188329
H13   H     H_    0.612692 0.909352 0.054214 0.083186
C65   C     C_3   0.675985 0.696513 0.057996 -0.291702
H14   H     H_    0.679416 0.544888 0.049035 0.242586
H15   H     H_    0.700512 0.774502 0.028405 0.217879
C66   C     C_3   0.699276 0.735356 0.121276 -0.851133
H16   H     H_    0.696847 0.886666 0.131025 0.238458
H17   H     H_    0.742775 0.691795 0.128055 0.242982
H18   H     H_    0.676342 0.655812 0.152011 0.237013
O23   O     O_3   0.084980 0.830233 0.479895 -0.494474
C67   C     C_3   0.114624 0.803035 0.535563 0.182032
H19   H     H_    0.157696 0.760737 0.532008 0.109859
H20   H     H_    0.094554 0.693936 0.560125 0.111243
C68   C     C_3   0.115454 0.986458 0.569579 -0.205187
H21   H     H_    0.138169 0.093086 0.546887 0.208120
H22   H     H_    0.073016 0.037435 0.570652 0.256839
C69   C     C_3   0.142458 0.962983 0.632305 -0.866760
H23   H     H_    0.119425 0.860559 0.656214 0.246989
H24   H     H_    0.142728 0.098881 0.655517 0.238427
H25   H     H_    0.185259 0.914475 0.632341 0.234966
O24   O     O_3   0.906950 0.198457 0.510123 -0.499288
C70   C     C_3   0.883916 0.256456 0.453592 0.158674
H26   H     H_    0.907135 0.186571 0.421093 0.188330
H27   H     H_    0.887302 0.409357 0.445786 0.083185
C71   C     C_3   0.824014 0.196501 0.442001 -0.291694
H28   H     H_    0.820586 0.044875 0.450961 0.242583
H29   H     H_    0.799485 0.274480 0.471593 0.217882
C72   C     C_3   0.800723 0.235346 0.378722 -0.851136
H30   H     H_    0.803148 0.386658 0.368974 0.238459
H31   H     H_    0.757225 0.191773 0.371941 0.242981
H32   H     H_    0.823659 0.155813 0.347986 0.237014
Cl1   Cl    Cl    0.325151 0.392093 0.089999 -0.545322
Cl2   Cl    Cl    0.675755 0.614973 0.912204 -0.558352
Cl3   Cl    Cl    0.174850 0.892089 0.410003 -0.545317
Cl4   Cl    Cl    0.824244 0.114974 0.587795 -0.558352
O25   O     O_3   0.391871 0.737546 0.172648 -0.510996
C73   C     C_3   0.420465 0.778380 0.228249 0.160047
H33   H     H_    0.399695 0.701650 0.261152 0.129913
H34   H     H_    0.419293 0.928842 0.240523 0.055854
C74   C     C_3   0.479700 0.710439 0.232191 -0.288348
H35   H     H_    0.480989 0.568842 0.212708 0.248889
H36   H     H_    0.503827 0.807402 0.207536 0.202631
C75   C     C_3   0.505603 0.700841 0.295587 -0.887332
H37   H     H_    0.501466 0.836554 0.317967 0.255225
H38   H     H_    0.549630 0.666199 0.296884 0.238731
H39   H     H_    0.485420 0.590150 0.319181 0.230342
O26   O     O_3   0.606427 0.251302 0.820532 -0.516195
C76   C     C_3   0.561890 0.231974 0.776099 0.132917
H40   H     H_    0.558799 0.364011 0.750602 0.137955
H41   H     H_    0.522118 0.214133 0.794042 0.140459
C77   C     C_3   0.570620 0.070621 0.734305 -0.394966
H42   H     H_    0.611025 0.084383 0.717912 0.221893
H43   H     H_    0.569296 0.935432 0.757726 0.178616
C78   C     C_3   0.526661 0.068970 0.682198 -0.783664
H44   H     H_    0.485594 0.053829 0.697139 0.214414
H45   H     H_    0.534065 0.949783 0.653540 0.270031
H46   H     H_    0.528322 0.199681 0.656727 0.240344
O27   O     O_3   0.108128 0.237546 0.327352 -0.510997
C79   C     C_3   0.079535 0.278380 0.271750 0.160045
H47   H     H_    0.100305 0.201649 0.238847 0.129913
H48   H     H_    0.080708 0.428843 0.259476 0.055855
C80   C     C_3   0.020300 0.210442 0.267808 -0.288349
H49   H     H_    0.019010 0.068846 0.287291 0.248890
H50   H     H_    0.996173 0.307406 0.292463 0.202631
C81   C     C_3   0.994397 0.200844 0.204412 -0.887332
H51   H     H_    0.998534 0.336557 0.182031 0.255225
H52   H     H_    0.950370 0.166204 0.203115 0.238732
H53   H     H_    0.014580 0.090152 0.180818 0.230342
O28   O     O_3   0.893573 0.751303 0.679467 -0.516195
C82   C     C_3   0.938110 0.731976 0.723900 0.132918
H54   H     H_    0.941201 0.864012 0.749396 0.137955
H55   H     H_    0.977882 0.714133 0.705957 0.140456
C83   C     C_3   0.929381 0.570623 0.765694 -0.394964
H56   H     H_    0.888976 0.584386 0.782088 0.221893
H57   H     H_    0.930704 0.435434 0.742274 0.178616
C84   C     C_3   0.973340 0.568973 0.817800 -0.783667
H58   H     H_    0.014407 0.553831 0.802859 0.214414
H59   H     H_    0.965936 0.449787 0.846459 0.270031
H60   H     H_    0.971679 0.699685 0.843272 0.240342
Cl5   Cl    Cl    0.471711 0.666395 0.088703 -0.593279
Cl6   Cl    Cl    0.528909 0.342860 0.907360 -0.598090
Cl7   Cl    Cl    0.028288 0.166397 0.411295 -0.593280
Cl8   Cl    Cl    0.971090 0.842861 0.592638 -0.598093
O29   O     O_3   0.921770 0.772567 0.038341 -0.520714
C85   C     C_3   0.926815 0.763050 0.100086 0.145294
H61   H     H_    0.911256 0.894533 0.117881 0.105111
H62   H     H_    0.970029 0.740704 0.119069 0.129184
C86   C     C_3   0.892718 0.599985 0.118498 -0.245175
H63   H     H_    0.850002 0.613879 0.097466 0.210342
H64   H     H_    0.909804 0.467151 0.103513 0.225182
C87   C     C_3   0.892456 0.593946 0.184912 -0.881404
H65   H     H_    0.934787 0.585012 0.207190 0.242570
H66   H     H_    0.869301 0.469790 0.197081 0.241830
H67   H     H_    0.872575 0.721041 0.200239 0.239024
O30   O     O_3   0.078829 0.219685 0.962206 -0.525336
C88   C     C_3   0.069036 0.257311 0.901460 0.170013
H68   H     H_    0.071968 0.410541 0.895432 0.168206
H69   H     H_    0.027786 0.214247 0.880780 0.094671
C89   C     C_3   0.112700 0.162206 0.869612 -0.335581
H70   H     H_    0.153667 0.215243 0.887270 0.217727
H71   H     H_    0.111757 0.009366 0.877330 0.199854
C90   C     C_3   0.103477 0.199071 0.803755 -0.843788
H72   H     H_    0.063084 0.144030 0.785022 0.238141
H73   H     H_    0.135738 0.128289 0.781895 0.241689
H74   H     H_    0.105269 0.351082 0.794870 0.231804
O31   O     O_3   0.578230 0.272565 0.461659 -0.520714
C91   C     C_3   0.573186 0.263049 0.399914 0.145296
H75   H     H_    0.588745 0.394531 0.382120 0.105112
H76   H     H_    0.529971 0.240706 0.380931 0.129182
C92   C     C_3   0.607281 0.099980 0.381502 -0.245174
H77   H     H_    0.649996 0.113869 0.402535 0.210344
H78   H     H_    0.590193 0.967148 0.396487 0.225183
C93   C     C_3   0.607544 0.093942 0.315088 -0.881407
H79   H     H_    0.565212 0.085016 0.292810 0.242570
H80   H     H_    0.630697 0.969782 0.302919 0.241830
H81   H     H_    0.627427 0.221034 0.299762 0.239024
O32   O     O_3   0.421171 0.719687 0.537793 -0.525335
C94   C     C_3   0.430964 0.757313 0.598539 0.170015
H82   H     H_    0.428032 0.910543 0.604567 0.168208
H83   H     H_    0.472214 0.714248 0.619220 0.094670
C95   C     C_3   0.387300 0.662210 0.630387 -0.335581
H84   H     H_    0.346333 0.715248 0.612729 0.217729
H85   H     H_    0.388242 0.509370 0.622669 0.199854
C96   C     C_3   0.396522 0.699076 0.696244 -0.843785
H86   H     H_    0.436915 0.644034 0.714977 0.238142
H87   H     H_    0.364261 0.628295 0.718104 0.241688
H88   H     H_    0.394731 0.851087 0.705129 0.231804
Cl9   Cl    Cl    0.947347 0.382608 0.964668 -0.599297
Cl10  Cl    Cl    0.051793 0.614018 0.037856 -0.580369
Cl11  Cl    Cl    0.552654 0.882608 0.535331 -0.599297
Cl12  Cl    Cl    0.448207 0.114018 0.462144 -0.580367

loop_
_geom_bond_atom_site_label_1
_geom_bond_atom_site_label_2
_ccdc_geom_bond_type
O17   V3    S    
C88   C89   S    
C55   C59   S    
C90   H72   S    
C25   C29   A    
O1    C5    A    
C71   H28   S    
C31   C35   S    
O19   V1    S    
C66   H17   S    
O3    C7    A    
C80   H49   S    
C38   O30   S    
C52   C56   S    
O15   V3    S    
C69   H24   S    
C65   H15   S    
O29   C85   S    
O4    V2    S    
C70   H26   S    
C23   O27   S    
C50   Cl9   S    
O7    C3    A    
C16   Cl4   S    
C49   Cl10  S    
C62   H7    S    
C7    C18   S    
C40   C44   S    
O9    V1    S    
C80   H50   S    
C14   C18   A    
C27   Cl7   S    
C37   C54   S    
C74   H36   S    
O27   C79   S    
O16   V4    S    
C11   C15   A    
O4    C8    A    
C93   H80   S    
C70   H27   S    
C78   H45   S    
O28   C82   S    
C88   H68   S    
C68   H21   S    
C63   H11   S    
O1    V3    S    
C96   H88   S    
O13   V1    S    
O2    V4    S    
C18   C22   A    
O3    V1    S    
C69   H23   S    
C65   H14   S    
C83   H56   S    
C61   H6    S    
C1    O15   A    
C22   O26   S    
O23   C67   S    
C2    O16   A    
C89   H70   S    
C84   H59   S    
C63   H10   S    
O2    C6    A    
C10   O22   S    
C66   H16   S    
O14   V2    S    
C1    C48   S    
C21   C25   A    
C48   C60   T    
C16   C20   A    
C27   C31   A    
C61   H5    S    
C44   H4    S    
C72   H32   S    
C84   H60   S    
C44   C51   S    
O11   C7    A    
C35   C36   T    
C64   H13   S    
C39   O31   S    
C4    C45   S    
C78   H46   S    
C81   H52   S    
C8    C17   S    
C40   C52   S    
C26   Cl6   S    
O10   V2    S    
C75   H39   S    
C21   O25   S    
C67   H19   S    
C82   C83   S    
O5    V1    S    
C9    C29   A    
C90   H74   S    
C39   C43   S    
O7    V3    S    
C38   C42   S    
C11   C31   A    
O31   C91   S    
C44   C56   S    
C64   H12   S    
C28   Cl8   S    
C12   C16   A    
C80   C81   S    
C20   C24   A    
O26   C76   S    
C75   H38   S    
C79   C80   S    
C76   C77   S    
C37   C49   S    
C94   H82   S    
C29   C33   S    
C93   H79   S    
O30   C88   S    
C70   C71   S    
C15   C19   A    
C95   C96   S    
C68   H22   S    
C54   C58   S    
C93   H81   S    
C9    C13   A    
C32   C36   S    
C69   H25   S    
O8    V4    S    
C86   C87   S    
C12   O24   S    
C87   H67   S    
C40   C55   S    
O5    C1    A    
C12   C32   A    
C9    O21   S    
C42   C54   S    
C5    C20   S    
C90   H73   S    
C2    C47   S    
C50   C54   S    
C41   C53   S    
C6    C19   S    
C83   C84   S    
C77   C78   S    
C49   C53   S    
O8    C4    A    
C68   C69   S    
C63   H9    S    
C37   O29   S    
C96   H86   S    
O9    C5    A    
C26   C30   A    
C43   C55   S    
C46   C58   T    
C88   H69   S    
C95   H85   S    
C15   Cl3   S    
C82   H54   S    
C45   C57   T    
C65   C66   S    
O18   V4    S    
C73   H34   S    
C85   H61   S    
C25   Cl5   S    
C67   H20   S    
C89   H71   S    
C92   H78   S    
C38   C53   S    
C77   H43   S    
C10   C30   A    
C62   C63   S    
C81   H51   S    
C66   H18   S    
C13   Cl1   S    
C74   C75   S    
O12   V4    S    
C52   Cl11  S    
C85   H62   S    
C73   C74   S    
C11   O23   S    
C77   H42   S    
C61   C62   S    
C72   H30   S    
C30   C34   S    
C47   C59   T    
C89   C90   S    
C42   C49   S    
C3    O13   A    
C71   H29   S    
C41   C50   S    
O6    V2    S    
C10   C14   A    
C38   C50   S    
C43   C52   S    
C56   C60   S    
C75   H37   S    
C3    C46   S    
O6    C2    A    
C23   C27   A    
O11   V3    S    
C39   C51   S    
C82   H55   S    
O25   C73   S    
C22   C26   A    
C71   C72   S    
C40   O32   S    
C39   C56   S    
C79   H47   S    
O10   C6    A    
C85   C86   S    
C76   H41   S    
O21   C61   S    
C91   H76   S    
C76   H40   S    
C87   H65   S    
C94   C95   S    
C51   C55   S    
C24   O28   S    
O32   C94   S    
C62   H8    S    
C91   C92   S    
C41   H1    S    
O20   V2    S    
O22   C64   S    
C96   H87   S    
C91   H75   S    
C43   H3    S    
C94   H83   S    
C14   Cl2   S    
C13   C17   A    
C86   H63   S    
C83   H57   S    
C51   Cl12  S    
C73   H33   S    
C92   H77   S    
C37   C41   S    
C24   C28   A    
C92   C93   S    
C42   H2    S    
C81   H53   S    
O12   C8    A    
C84   H58   S    
C4    O14   A    
C78   H44   S    
O24   C70   S    
C17   C21   A    
C64   C65   S    
C86   H64   S    
C33   C34   T    
C74   H35   S    
C19   C23   A    
C95   H84   S    
C67   C68   S    
C53   C57   S    
C28   C32   A    
C79   H48   S    
C72   H31   S    
C87   H66   S    
