data_mof_unit_56895.cif
_audit_creation_date              2013-03-05T16:00:38-0500
_audit_creation_method            fapswitch 2.2
_symmetry_space_group_name_H-M    P1
_symmetry_Int_Tables_number       1
_space_group_crystal_system       triclinic
_cell_length_a                    10.721925
_cell_length_b                    14.690134
_cell_length_c                    14.705678
_cell_angle_alpha                 65.158402
_cell_angle_beta                  103.28124
_cell_angle_gamma                 103.00746
_cell_volume                      2023.91671578

loop_
_atom_site_label
_atom_site_type_symbol
_atom_site_description
_atom_site_fract_x
_atom_site_fract_y
_atom_site_fract_z
_atom_type_partial_charge
O1    O     O_R   0.455060 0.022100 0.338110 -0.577935
O2    O     O_R   0.512640 0.160150 0.379180 -0.587274
C1    C     C_R   0.477422 0.119641 0.312268 0.884900
O3    O     O_R   0.288900 0.930980 0.479450 -0.585588
O4    O     O_R   0.346480 0.069030 0.520520 -0.589979
C2    C     C_R   0.260167 0.000472 0.499921 0.820413
Cu1   Cu    Cu3+1 0.465900 0.918260 0.475680 0.972695
Cu2   Cu    Cu3+1 0.534100 0.081740 0.524320 0.966423
O5    O     O_R   0.487360 0.839850 0.620820 -0.591326
O6    O     O_R   0.544940 0.977900 0.661890 -0.592825
O7    O     O_R   0.653520 0.930970 0.479480 -0.586963
O8    O     O_R   0.711100 0.069020 0.520550 -0.583293
C3    C     C_R   0.520673 0.880346 0.687718 0.789670
C4    C     C_R   0.739958 0.999998 0.499771 0.822287
C5    C     C_3   0.042698 0.012225 0.391817 0.129144
H1    H     H_    0.047213 0.941906 0.381671 0.101221
C6    C     C_3   0.896969 0.011458 0.391806 0.130708
H2    H     H_    0.843884 0.940629 0.382158 0.098695
H3    H     H_    0.075371 0.834865 0.562076 0.198534
H4    H     H_    0.862448 0.834329 0.562262 0.192548
C7    C     C_3   0.066254 0.900219 0.578599 -0.435134
C8    C     C_3   0.107391 0.088446 0.527902 -0.344055
C9    C     C_3   0.122389 0.001834 0.498468 -0.019939
H5    H     H_    0.161287 0.077104 0.605397 0.171992
C10   C     C_3   0.877737 0.001167 0.498242 -0.021888
C11   C     C_3   0.921970 0.899909 0.578568 -0.450076
C12   C     C_3   0.964783 0.088266 0.527501 -0.330453
H6    H     H_    0.937050 0.163730 0.476168 0.236976
H7    H     H_    0.952218 0.077383 0.604746 0.166026
H8    H     H_    0.121771 0.889417 0.655471 0.196785
H9    H     H_    0.908080 0.889311 0.655338 0.196873
C13   C     C_R   0.461440 0.186935 0.204616 -0.019399
C14   C     C_R   0.522122 0.812811 0.794861 -0.060666
C15   C     C_R   0.428207 0.215330 0.027071 -0.135194
C16   C     C_R   0.438088 0.148993 0.128485 -0.083735
C17   C     C_R   0.470794 0.291109 0.178363 -0.172096
C18   C     C_R   0.457353 0.359360 0.076649 0.100498
C19   C     C_R   0.439680 0.320078 0.000710 0.152092
C20   C     C_R   0.465775 0.465593 0.048764 0.069779
C21   C     C_R   0.470874 0.532068 0.945714 0.072462
C22   C     C_R   0.451527 0.489609 0.872111 -0.166376
C23   C     C_R   0.434858 0.385606 0.899340 -0.147713
C24   C     C_R   0.467122 0.507345 0.120133 -0.147462
C25   C     C_R   0.481425 0.611263 0.092765 -0.136258
C26   C     C_R   0.495862 0.677501 0.993814 0.143549
C27   C     C_R   0.492173 0.638765 0.919493 0.093111
C28   C     C_R   0.512788 0.782499 0.968098 -0.127838
C29   C     C_R   0.524553 0.849851 0.868853 -0.181318
C30   C     C_R   0.510833 0.708491 0.821384 -0.213364
H10   H     H_    0.420200 0.356386 0.840523 0.149801
H11   H     H_    0.517682 0.683749 0.763694 0.145818
H12   H     H_    0.481677 0.639932 0.149801 0.170596
H13   H     H_    0.413100 0.184858 0.969204 0.144245
H14   H     H_    0.430089 0.068481 0.147297 0.167873
H15   H     H_    0.492990 0.317604 0.239030 0.146327
H16   H     H_    0.444916 0.534349 0.791911 0.138743
H17   H     H_    0.453196 0.461688 0.197583 0.153469
H18   H     H_    0.514679 0.812422 0.024461 0.163101
N1    N     N_R   0.585360 0.204570 0.560800 -0.183047
N2    N     N_R   0.414550 0.795430 0.439160 -0.207684
C31   C     C_R   0.711917 0.282898 0.671394 -0.233658
C32   C     C_R   0.681538 0.203053 0.639086 0.064486
C33   C     C_R   0.518049 0.284625 0.510308 0.043683
C34   C     C_R   0.543388 0.368722 0.539741 -0.039086
C35   C     C_R   0.641452 0.365398 0.624038 0.031826
C36   C     C_R   0.475302 0.455005 0.488726 0.025379
C37   C     C_R   0.509252 0.538209 0.520340 0.049384
C38   C     C_R   0.604724 0.529717 0.606347 -0.289859
C39   C     C_R   0.668453 0.444845 0.658730 0.326796
C40   C     C_R   0.371308 0.458950 0.409424 -0.302013
C41   C     C_R   0.304826 0.542368 0.358757 0.342517
C42   C     C_R   0.346796 0.630194 0.381365 -0.083280
C43   C     C_R   0.445289 0.626635 0.466014 -0.065319
C44   C     C_R   0.292922 0.721663 0.322530 0.248012
C45   C     C_R   0.325151 0.801037 0.356220 0.000005
C46   C     C_R   0.476718 0.713008 0.492125 0.019989
H19   H     H_    0.551316 0.717877 0.553361 0.131040
H20   H     H_    0.283714 0.870416 0.312713 0.177695
H21   H     H_    0.790815 0.279263 0.733103 0.199035
H22   H     H_    0.734047 0.138859 0.677371 0.130039
H23   H     H_    0.444996 0.280108 0.448034 0.129787
H24   H     H_    0.629828 0.586769 0.637814 0.161100
H25   H     H_    0.333637 0.395149 0.388161 0.172471
H26   H     H_    0.533186 0.930470 0.849726 0.164026
N3    N     N_R   0.097908 0.097837 0.307135 0.152329
O9    O     O_R   0.131275 0.080374 0.236907 -0.343037
O10   O     O_R   0.120260 0.190203 0.302838 -0.303057
N4    N     N_R   0.758409 0.439868 0.749226 0.118300
O11   O     O_R   0.838971 0.519998 0.751353 -0.337355
O12   O     O_R   0.743593 0.362387 0.834059 -0.337019
N5    N     N_R   0.186995 0.531618 0.291602 0.168033
O13   O     O_R   0.079362 0.546383 0.306393 -0.294797
O14   O     O_R   0.182265 0.489130 0.228783 -0.291208
N6    N     N_R   0.839949 0.096215 0.306807 0.156677
O15   O     O_R   0.752942 0.077829 0.236366 -0.344271
O16   O     O_R   0.869385 0.188670 0.302410 -0.287596
N7    N     N_R   0.217401 0.740204 0.223877 0.156639
O17   O     O_R   0.119335 0.789590 0.195546 -0.312138
O18   O     O_R   0.261716 0.726552 0.155926 -0.339335
H27   H     H_    0.149831 0.163998 0.477064 0.225301

loop_
_geom_bond_atom_site_label_1
_geom_bond_atom_site_label_2
_geom_bond_distance
_ccdc_geom_bond_type
C7    C11   1.545876 S    
C12   H7    1.114490 S    
C22   C23   1.386519 A    
N7    O17   1.301398 A    
Cu1   Cu2   2.688165 S    
N3    O9    1.301546 A    
C21   C27   1.424458 A    
C27   C30   1.403370 A    
C33   H23   1.074551 S    
C13   C17   1.397614 A    
C32   H22   1.081893 S    
C17   C18   1.403310 A    
H3    C7    1.113318 S    
C19   C23   1.390252 A    
Cu2   N1    2.019187 S    
O4    C2    1.292467 A    
O7    C4    1.296282 A    
C14   C30   1.396866 A    
C5    H1    1.116700 S    
Cu1   O5    1.939916 S    
C15   C16   1.392047 A    
O5    C3    1.297662 A    
C38   C39   1.396228 A    
C30   H11   1.075622 S    
C40   C41   1.395328 A    
C37   C43   1.439897 A    
C31   C32   1.390232 A    
C5    N3    1.473279 S    
C25   H12   1.084502 S    
N3    O10   1.300418 A    
C36   C37   1.428995 A    
C11   H9    1.113584 S    
O1    Cu1   1.952440 S    
C16   H14   1.083084 S    
N6    O15   1.301518 A    
O3    Cu1   1.963731 S    
N7    O18   1.301518 A    
C44   N7    1.435991 S    
C26   C28   1.403741 A    
C8    H27   1.108871 S    
C44   C45   1.396352 A    
C37   C38   1.411794 A    
C13   C16   1.399797 A    
C46   H19   1.073877 S    
O3    C2    1.292305 A    
N5    O13   1.301456 A    
C20   C24   1.416986 A    
C10   C11   1.554579 S    
C26   C27   1.418605 A    
N2    C46   1.359907 A    
C29   H26   1.083044 S    
O1    C1    1.297985 A    
C34   C36   1.438135 A    
Cu1   O7    1.967930 S    
C24   C25   1.386595 A    
C22   H16   1.076671 S    
C3    C14   1.466053 S    
C18   C19   1.418105 A    
N5    O14   1.301622 A    
C28   C29   1.392842 A    
Cu2   O8    1.963732 S    
C6    H2    1.116706 S    
N6    O16   1.300396 A    
C40   H25   1.075711 S    
C39   N4    1.437673 S    
C23   H10   1.084540 S    
C42   C44   1.425031 A    
C21   C22   1.417549 A    
O8    C4    1.289253 A    
C8    C12   1.527107 S    
C7    C9    1.556455 S    
C43   C46   1.424210 A    
C8    H5    1.114290 S    
Cu1   N2    2.019537 S    
C20   C21   1.422579 A    
C25   C26   1.390758 A    
C5    C6    1.559961 S    
N1    C32   1.353734 A    
C15   C19   1.403102 A    
O2    Cu2   1.939916 S    
N4    O12   1.301412 A    
C42   C43   1.426082 A    
O6    C3    1.298425 A    
O4    Cu2   1.967930 S    
C10   C12   1.560064 S    
C7    H8    1.113573 S    
N2    C45   1.351726 A    
N1    C33   1.362849 A    
C38   H24   1.075203 S    
C34   C35   1.420569 A    
O2    C1    1.298103 A    
C6    C10   1.565469 S    
C41   C42   1.416999 A    
C18   C20   1.423927 A    
C17   H15   1.075442 S    
C28   H18   1.083973 S    
C36   C40   1.407642 A    
H4    C11   1.113514 S    
C31   H21   1.081150 S    
C35   C39   1.409420 A    
C2    C9    1.477015 S    
C5    C9    1.566835 S    
C4    C10   1.478726 S    
C1    C13   1.466109 S    
C45   H20   1.082045 S    
C24   H17   1.077288 S    
C33   C34   1.425318 A    
C31   C35   1.409212 A    
C41   N5    1.436774 S    
N4    O11   1.301357 A    
C15   H13   1.083910 S    
Cu2   O6    1.952440 S    
C12   H6    1.108761 S    
C14   C29   1.399561 A    
C8    C9    1.555274 S    
C6    N6    1.473211 S    
