data_mof_unit_40365.cif
_audit_creation_date              2012-12-10T17:21:19-0500
_audit_creation_method            fapswitch 2.2
_symmetry_space_group_name_H-M    P1
_symmetry_Int_Tables_number       1
_space_group_crystal_system       triclinic
_cell_length_a                    18.28821
_cell_length_b                    25.720039
_cell_length_c                    18.370414
_cell_angle_alpha                 89.636772
_cell_angle_beta                  90.000019
_cell_angle_gamma                 89.998456
_cell_volume                      8640.78181938

loop_
_atom_site_label
_atom_site_type_symbol
_atom_type_description
_atom_site_fract_x
_atom_site_fract_y
_atom_site_fract_z
_atom_type_partial_charge
C1    C     C_R   0.393773 0.253294 0.136301 0.803939
C2    C     C_R   0.561145 0.134634 0.859205 0.528503
C3    C     C_R   0.923579 0.146164 0.130589 -0.162615
C4    C     C_R   0.437638 0.635673 0.360089 -0.160476
C5    C     C_R   0.437624 0.364333 0.639916 -0.160587
C6    C     C_R   0.423622 0.353890 0.369354 -0.162626
C7    C     C_R   0.423194 0.646569 0.630149 -0.162207
C8    C     C_R   0.001762 0.162641 0.844116 -0.125999
C9    C     C_R   0.001675 0.837320 0.155816 -0.125887
C10   C     C_R   0.967876 0.809702 0.874666 -0.127842
C11   C     C_R   0.968073 0.190013 0.125560 -0.127922
C12   C     C_R   0.501738 0.662656 0.344137 -0.125869
C13   C     C_R   0.578586 0.148312 0.128088 0.485782
C14   C     C_R   0.501728 0.337348 0.655860 -0.126012
C15   C     C_R   0.468098 0.310031 0.374407 -0.127941
C16   C     C_R   0.467850 0.690343 0.625301 -0.127822
C17   C     C_R   0.384523 0.046600 0.037482 -0.127788
C18   C     C_R   0.384481 0.953377 0.962366 -0.127906
C19   C     C_R   0.884495 0.546615 0.537589 -0.127924
C20   C     C_R   0.884509 0.453393 0.462472 -0.127776
C21   C     C_R   0.450569 0.022665 0.020178 -0.075713
C22   C     C_R   0.450548 0.977293 0.979630 -0.076013
C23   C     C_R   0.950555 0.522695 0.520306 -0.076002
C24   C     C_R   0.578868 0.851356 0.872280 0.486151
C25   C     C_R   0.950562 0.477323 0.479758 -0.075772
C26   C     C_R   0.317007 0.974820 0.985565 0.062544
C27   C     C_R   0.317023 0.025171 0.014336 0.062480
C28   C     C_R   0.817018 0.474826 0.485638 0.062499
C29   C     C_R   0.817012 0.525177 0.514409 0.062530
C30   C     C_R   0.249896 0.947573 0.980912 -0.214057
C31   C     C_R   0.249915 0.052422 0.019058 -0.214003
C32   C     C_R   0.749908 0.447577 0.480939 -0.214009
C33   C     C_R   0.749903 0.552426 0.519085 -0.214053
C34   C     C_R   0.182727 0.974791 0.985717 0.074399
C35   C     C_R   0.061096 0.365392 0.640827 0.528554
C36   C     C_R   0.182741 0.025209 0.014307 0.074373
C37   C     C_R   0.682736 0.474794 0.485711 0.074378
C38   C     C_R   0.682732 0.525212 0.514301 0.074392
C39   C     C_R   0.115183 0.953258 0.962821 -0.116258
C40   C     C_R   0.115217 0.046745 0.037262 -0.116139
C41   C     C_R   0.615204 0.453261 0.462777 -0.116150
C42   C     C_R   0.615196 0.546748 0.537218 -0.116242
C43   C     C_R   0.049100 0.977172 0.980096 -0.170084
C44   C     C_R   0.049118 0.022831 0.020046 -0.169918
C45   C     C_R   0.549111 0.477177 0.480013 -0.169953
C46   C     C_R   0.061163 0.634648 0.359225 0.528905
C47   C     C_R   0.549107 0.522836 0.519962 -0.170059
C48   C     C_R   0.249995 0.109096 0.008352 0.811879
C49   C     C_R   0.249990 0.890902 0.991639 0.811935
C50   C     C_R   0.749992 0.609098 0.508360 0.811929
C51   C     C_R   0.749993 0.390904 0.491647 0.811884
C52   C     C_R   0.249963 0.391287 0.999753 0.742872
C53   C     C_R   0.249963 0.608696 0.000043 0.742130
C54   C     C_R   0.749960 0.891304 0.499957 0.742128
C55   C     C_R   0.749959 0.108713 0.500247 0.742874
C56   C     C_3   0.180971 0.469734 0.038839 -0.401149
C57   C     C_R   0.078837 0.648597 0.627771 0.486150
C58   C     C_3   0.249960 0.530171 0.920357 -0.389269
C59   C     C_3   0.180994 0.529800 0.039079 -0.395016
C60   C     C_3   0.249959 0.470552 0.920155 -0.384646
C61   C     C_3   0.749878 0.969829 0.579644 -0.389272
C62   C     C_3   0.681000 0.030268 0.461096 -0.401153
C63   C     C_3   0.749877 0.029447 0.579846 -0.384649
C64   C     C_3   0.681023 0.970203 0.460857 -0.395002
C65   C     C_3   0.318950 0.469732 0.038839 -0.402106
C66   C     C_3   0.318927 0.529797 0.039079 -0.395484
C67   C     C_3   0.818957 0.970201 0.460984 -0.395507
C68   C     C_R   0.078616 0.351645 0.371958 0.485783
C69   C     C_3   0.818979 0.030265 0.461225 -0.402108
C70   C     C_3   0.249960 0.449033 0.999339 0.208757
C71   C     C_3   0.249961 0.550918 0.999726 0.205471
C72   C     C_3   0.749954 0.949083 0.500274 0.205480
C73   C     C_3   0.749953 0.050967 0.500661 0.208764
C74   C     C_R   0.129340 0.304293 0.714729 -0.181051
C75   C     C_R   0.129367 0.695753 0.285299 -0.180916
C76   C     C_R   0.088985 0.660740 0.757686 -0.170034
C77   C     C_R   0.088756 0.339346 0.242073 -0.169660
C78   C     C_R   0.629332 0.804295 0.214728 -0.180929
C79   C     C_R   0.497368 0.837796 0.156814 -0.137042
C80   C     C_R   0.629363 0.195734 0.785286 -0.181040
C81   C     C_R   0.588727 0.160639 0.257968 -0.169667
C82   C     C_R   0.589017 0.839243 0.742360 -0.170029
C83   C     C_R   0.127911 0.346812 0.667398 -0.277788
C84   C     C_R   0.127966 0.653246 0.332653 -0.277336
C85   C     C_R   0.103707 0.631512 0.695848 -0.281773
C86   C     C_R   0.103418 0.368675 0.303829 -0.281160
C87   C     C_R   0.627901 0.846813 0.167394 -0.277316
C88   C     C_R   0.627952 0.153222 0.832629 -0.277805
C89   C     C_R   0.603382 0.131293 0.196225 -0.281133
C90   C     C_R   0.497414 0.162222 0.843215 -0.137199
C91   C     C_R   0.603746 0.868453 0.804211 -0.281797
C92   C     C_R   0.533313 0.191917 0.124184 -0.133477
C93   C     C_R   0.393770 0.746698 0.863692 0.803914
C94   C     C_R   0.533473 0.807810 0.876017 -0.133432
C95   C     C_R   0.997378 0.337791 0.656809 -0.137179
C96   C     C_R   0.997426 0.662226 0.343229 -0.137066
C97   C     C_R   0.033454 0.692151 0.624011 -0.133452
C98   C     C_R   0.033331 0.308047 0.375842 -0.133458
C99   C     C_R   0.499162 0.791596 0.199289 -0.021373
C100  C     C_R   0.499187 0.208417 0.800727 -0.021303
C101  C     C_R   0.511913 0.219094 0.187680 -0.018056
C102  C     C_R   0.512007 0.780784 0.812417 -0.018211
C103  C     C_R   0.999170 0.291591 0.699285 -0.021313
C104  C     C_R   0.386425 0.753462 0.143708 0.802564
C105  C     C_R   0.999188 0.708417 0.300731 -0.021357
C106  C     C_R   0.011995 0.719198 0.687598 -0.018200
C107  C     C_R   0.011924 0.280889 0.312333 -0.018066
C108  C     C_R   0.063948 0.279291 0.736974 0.079862
C109  C     C_R   0.063959 0.720727 0.263037 0.079844
C110  C     C_R   0.048837 0.707740 0.753016 0.079250
C111  C     C_R   0.048732 0.292302 0.246883 0.078918
C112  C     C_R   0.563940 0.779295 0.236978 0.079847
C113  C     C_R   0.563960 0.220722 0.763035 0.079863
C114  C     C_R   0.548718 0.207690 0.253136 0.078912
C115  C     C_R   0.386427 0.246539 0.856293 0.802619
C116  C     C_R   0.548853 0.792250 0.747005 0.079258
C117  C     C_R   0.438070 0.757983 0.205649 -0.192962
C118  C     C_R   0.438081 0.242021 0.794357 -0.193048
C119  C     C_R   0.456231 0.257640 0.187479 -0.194053
C120  C     C_R   0.456197 0.742337 0.812476 -0.194250
C121  C     C_R   0.938078 0.257976 0.705645 -0.193042
C122  C     C_R   0.938074 0.742010 0.294353 -0.192970
C123  C     C_R   0.956199 0.757658 0.687521 -0.194245
C124  C     C_R   0.956228 0.242356 0.312517 -0.194057
C125  C     C_R   0.435560 0.720942 0.263315 0.083971
C126  C     C_R   0.893770 0.753301 0.636307 0.803937
C127  C     C_R   0.435561 0.279060 0.736686 0.083961
C128  C     C_R   0.451862 0.293241 0.245820 0.084086
C129  C     C_R   0.451684 0.706869 0.753973 0.084377
C130  C     C_R   0.935573 0.220929 0.763305 0.083962
C131  C     C_R   0.935539 0.779034 0.236667 0.083969
C132  C     C_R   0.951702 0.793143 0.746004 0.084373
C133  C     C_R   0.951845 0.206771 0.254156 0.084089
C134  C     C_R   0.000358 0.208639 0.801132 0.071188
C135  C     C_R   0.000314 0.791336 0.198833 0.071145
C136  C     C_R   0.988731 0.781870 0.811482 0.073705
C137  C     C_R   0.893773 0.246705 0.363698 0.803919
C138  C     C_R   0.988847 0.217990 0.188645 0.073851
C139  C     C_R   0.500344 0.708650 0.301143 0.071131
C140  C     C_R   0.500342 0.291355 0.698856 0.071195
C141  C     C_R   0.488861 0.282031 0.311337 0.073863
C142  C     C_R   0.488718 0.718151 0.688501 0.073692
C143  C     C_R   0.061585 0.242153 0.794561 -0.199059
C144  C     C_R   0.061571 0.757848 0.205430 -0.198963
C145  C     C_R   0.044157 0.743035 0.811797 -0.200016
C146  C     C_R   0.044153 0.256917 0.188207 -0.199791
C147  C     C_R   0.561577 0.742158 0.294566 -0.198953
C148  C     C_R   0.886427 0.253460 0.643707 0.802606
C149  C     C_R   0.561582 0.257851 0.705437 -0.199068
C150  C     C_R   0.544152 0.243090 0.311794 -0.199783
C151  C     C_R   0.544160 0.756971 0.688205 -0.200025
C152  C     C_R   0.370001 0.696037 0.285557 -0.122962
C153  C     C_R   0.369998 0.303963 0.714446 -0.123158
C154  C     C_R   0.411955 0.340371 0.240504 -0.122042
C155  C     C_R   0.411602 0.659802 0.759069 -0.122399
C156  C     C_R   0.870019 0.196011 0.785538 -0.123158
C157  C     C_R   0.869962 0.803912 0.214413 -0.122958
C158  C     C_R   0.911637 0.840218 0.740882 -0.122406
C159  C     C_R   0.886425 0.746536 0.356292 0.802580
C160  C     C_R   0.911920 0.159648 0.259447 -0.122035
C161  C     C_R   0.371320 0.653790 0.333392 -0.158179
C162  C     C_R   0.371309 0.346214 0.666618 -0.158443
C163  C     C_R   0.398252 0.370357 0.301859 -0.149630
C164  C     C_R   0.397764 0.629995 0.697571 -0.150326
C165  C     C_R   0.871348 0.153754 0.833355 -0.158477
C166  C     C_R   0.871250 0.846146 0.166556 -0.158125
C167  C     C_R   0.897813 0.870047 0.802362 -0.150303
C168  C     C_R   0.898204 0.129684 0.198075 -0.149651
C169  C     C_R   0.113481 0.246566 0.856324 0.803403
C170  C     C_R   0.561085 0.865396 0.140829 0.528965
C171  C     C_R   0.113477 0.753435 0.143675 0.803350
C172  C     C_R   0.106298 0.746885 0.863483 0.805973
C173  C     C_R   0.106300 0.253100 0.136523 0.805950
C174  C     C_R   0.613479 0.746567 0.356325 0.803328
C175  C     C_R   0.613480 0.253436 0.643676 0.803420
C176  C     C_R   0.606300 0.246902 0.363476 0.805968
C177  C     C_R   0.606298 0.753117 0.636516 0.805953
C178  C     C_R   0.937670 0.135644 0.860053 -0.160585
C179  C     C_R   0.937556 0.864278 0.139849 -0.160489
C180  C     C_R   0.923238 0.853487 0.869793 -0.162217
H1    H     H_    0.179469 0.455060 0.095958 0.175230
H2    H     H_    0.316955 0.290112 0.731478 0.148349
H3    H     H_    0.628991 0.906535 0.923845 0.318285
H4    H     H_    0.106031 0.424250 0.591555 0.326823
H5    H     H_    0.106136 0.575810 0.408512 0.326806
H6    H     H_    0.128949 0.593399 0.576233 0.318279
H7    H     H_    0.128654 0.406948 0.423344 0.318292
H8    H     H_    0.392460 0.355152 0.188802 0.147088
H9    H     H_    0.392082 0.644917 0.810700 0.146970
H10   H     H_    0.816971 0.209856 0.768513 0.148371
H11   H     H_    0.816929 0.790051 0.231459 0.148267
H12   H     H_    0.892119 0.855091 0.689242 0.146944
H13   H     H_    0.892424 0.144855 0.311141 0.147115
H14   H     H_    0.820963 0.134492 0.848618 0.128316
H15   H     H_    0.820847 0.865376 0.151271 0.128338
H16   H     H_    0.865788 0.905323 0.797885 0.129106
H17   H     H_    0.299086 0.544575 0.890615 0.170920
H18   H     H_    0.866289 0.094366 0.202674 0.129393
H19   H     H_    0.320931 0.634540 0.348667 0.128327
H20   H     H_    0.320917 0.365466 0.651351 0.128323
H21   H     H_    0.366351 0.405681 0.297241 0.129384
H22   H     H_    0.365724 0.594726 0.702029 0.129117
H23   H     H_    0.052327 0.146249 0.864275 0.162980
H24   H     H_    0.052225 0.853732 0.135654 0.163064
H25   H     H_    0.983033 0.797109 0.928760 0.170374
H26   H     H_    0.983157 0.202537 0.071417 0.170552
H27   H     H_    0.552299 0.646258 0.364294 0.163040
H28   H     H_    0.179566 0.543761 0.096289 0.181401
H29   H     H_    0.552286 0.353746 0.635698 0.162990
H30   H     H_    0.483174 0.297518 0.428557 0.170571
H31   H     H_    0.483017 0.702949 0.571215 0.170355
H32   H     H_    0.997916 0.040329 0.036473 0.128679
H33   H     H_    0.997883 0.959676 0.963715 0.128709
H34   H     H_    0.497895 0.540336 0.536359 0.128737
H35   H     H_    0.497903 0.459682 0.463602 0.128654
H36   H     H_    0.386917 0.081274 0.070386 0.166111
H37   H     H_    0.386834 0.918699 0.929467 0.165963
H38   H     H_    0.886860 0.581293 0.570489 0.166000
H39   H     H_    0.299089 0.456469 0.890386 0.177078
H40   H     H_    0.886890 0.418717 0.429570 0.166079
H41   H     H_    0.501776 0.039936 0.036905 0.188620
H42   H     H_    0.501738 0.960002 0.962878 0.188122
H43   H     H_    0.001751 0.539981 0.537044 0.188225
H44   H     H_    0.001763 0.460047 0.463018 0.188537
H45   H     H_    0.130784 0.455417 0.011166 0.154069
H46   H     H_    0.200835 0.544578 0.890615 0.172364
H47   H     H_    0.130822 0.544500 0.011512 0.153237
H48   H     H_    0.200828 0.456471 0.890386 0.177714
H49   H     H_    0.700726 0.955423 0.609340 0.172334
H50   H     H_    0.798976 0.955424 0.609432 0.170951
H51   H     H_    0.630786 0.044588 0.488722 0.154060
H52   H     H_    0.700717 0.043531 0.609567 0.177689
H53   H     H_    0.630825 0.955505 0.488376 0.153237
H54   H     H_    0.112748 0.918511 0.930075 0.161544
H55   H     H_    0.112812 0.081493 0.070007 0.161545
H56   H     H_    0.612787 0.418514 0.430031 0.161554
H57   H     H_    0.612773 0.581496 0.569963 0.161535
H58   H     H_    0.320454 0.455057 0.095957 0.174103
H59   H     H_    0.369099 0.544495 0.011512 0.152691
H60   H     H_    0.320355 0.543758 0.096288 0.180988
H61   H     H_    0.679551 0.044942 0.403976 0.175252
H62   H     H_    0.369137 0.455413 0.011166 0.153615
H63   H     H_    0.869104 0.955501 0.488597 0.152691
H64   H     H_    0.820537 0.044940 0.404108 0.174080
H65   H     H_    0.869141 0.044582 0.488944 0.153626
H66   H     H_    0.820439 0.956239 0.403776 0.180969
H67   H     H_    0.939367 0.101315 0.894438 0.133266
H68   H     H_    0.939220 0.898593 0.105435 0.133234
H69   H     H_    0.909251 0.874967 0.918343 0.129761
H70   H     H_    0.909654 0.124578 0.082114 0.129712
H71   H     H_    0.439327 0.601350 0.394486 0.133263
H72   H     H_    0.798978 0.043528 0.609662 0.177106
H73   H     H_    0.439308 0.398658 0.605523 0.133248
H74   H     H_    0.409706 0.375493 0.417817 0.129687
H75   H     H_    0.409198 0.625106 0.581587 0.129792
H76   H     H_    0.182432 0.290349 0.731461 0.169692
H77   H     H_    0.182449 0.709710 0.268557 0.169622
H78   H     H_    0.108061 0.645468 0.809263 0.168441
H79   H     H_    0.107794 0.354560 0.190448 0.168617
H80   H     H_    0.682424 0.790350 0.231457 0.169659
H81   H     H_    0.682449 0.209685 0.768548 0.169669
H82   H     H_    0.607762 0.145434 0.309601 0.168595
H83   H     H_    0.679648 0.956242 0.403645 0.181419
H84   H     H_    0.608098 0.854525 0.690790 0.168463
H85   H     H_    0.178725 0.365753 0.652693 0.128697
H86   H     H_    0.178793 0.634327 0.347371 0.128695
H87   H     H_    0.136044 0.596399 0.700917 0.132938
H88   H     H_    0.135670 0.403819 0.298664 0.133229
H89   H     H_    0.678714 0.865751 0.152683 0.128692
H90   H     H_    0.678774 0.134292 0.847339 0.128697
H91   H     H_    0.635625 0.096145 0.201407 0.133219
H92   H     H_    0.636094 0.903561 0.799161 0.132948
H93   H     H_    0.446359 0.853891 0.137221 0.179030
H94   H     H_    0.316958 0.709886 0.268524 0.148309
H95   H     H_    0.446414 0.146119 0.862813 0.179036
H96   H     H_    0.517927 0.205212 0.070432 0.189605
H97   H     H_    0.518012 0.794446 0.929716 0.189402
H98   H     H_    0.946370 0.353886 0.637214 0.179023
H99   H     H_    0.946429 0.646118 0.362827 0.179056
H100  H     H_    0.018002 0.705505 0.570306 0.189426
H101  H     H_    0.017937 0.294743 0.429588 0.189583
H102  H     H_    0.606019 0.924256 0.091563 0.326776
H103  H     H_    0.606105 0.075789 0.908489 0.326840
H104  H     H_    0.628615 0.092991 0.076728 0.318284
O1    O     O_3   0.249990 0.250010 0.000000 -0.470659
O2    O     O_R   0.835430 0.219350 0.353840 -0.638058
O3    O     O_R   0.835430 0.219350 0.646160 -0.654846
O4    O     O_R   0.835430 0.780650 0.353840 -0.654733
O5    O     O_R   0.164550 0.280640 0.853840 -0.651146
O6    O     O_R   0.164550 0.719360 0.146160 -0.651046
O7    O     O_R   0.164550 0.719360 0.853840 -0.635334
O8    O     O_R   0.164550 0.280640 0.146160 -0.635275
O9    O     O_R   0.664550 0.780640 0.353840 -0.651073
O10   O     O_R   0.664550 0.219360 0.646160 -0.651131
O11   O     O_R   0.664550 0.219360 0.353840 -0.635261
O12   O     O_3   0.249990 0.749990 0.000000 -0.470672
O13   O     O_R   0.664550 0.780640 0.646160 -0.635351
O14   O     O_R   0.396160 0.219380 0.914560 -0.643404
O15   O     O_R   0.396160 0.780620 0.085440 -0.643400
O16   O     O_R   0.396160 0.780620 0.914560 -0.653931
O17   O     O_R   0.396160 0.219380 0.085440 -0.654066
O18   O     O_R   0.896160 0.719380 0.414560 -0.643429
O19   O     O_R   0.896160 0.280620 0.585440 -0.643384
O20   O     O_R   0.896160 0.280620 0.414560 -0.654049
O21   O     O_R   0.896160 0.719380 0.585440 -0.653949
O22   O     O_R   0.103840 0.219370 0.085450 -0.658779
O23   O     O_3   0.749990 0.750010 0.500000 -0.470670
O24   O     O_R   0.103840 0.780630 0.914550 -0.658674
O25   O     O_R   0.103840 0.780630 0.085450 -0.651490
O26   O     O_R   0.103840 0.219370 0.914550 -0.651397
O27   O     O_R   0.603840 0.719370 0.585450 -0.658653
O28   O     O_R   0.603840 0.280630 0.414550 -0.658799
O29   O     O_R   0.603840 0.280630 0.585450 -0.651406
O30   O     O_R   0.603840 0.719370 0.414550 -0.651472
O31   O     O_R   0.310730 0.133160 0.000000 -0.644646
O32   O     O_R   0.310730 0.866840 0.000000 -0.644568
O33   O     O_R   0.810730 0.633160 0.500000 -0.644599
O34   O     O_3   0.749990 0.249990 0.500000 -0.470661
O35   O     O_R   0.810730 0.366840 0.500000 -0.644619
O36   O     O_R   0.249970 0.366860 0.060720 -0.661922
O37   O     O_R   0.249970 0.633140 0.939280 -0.664117
O38   O     O_R   0.249970 0.633140 0.060720 -0.641656
O39   O     O_R   0.249970 0.366860 0.939280 -0.644396
O40   O     O_R   0.749970 0.866860 0.560720 -0.664117
O41   O     O_R   0.749970 0.133140 0.439280 -0.661921
O42   O     O_R   0.749970 0.133140 0.560720 -0.644394
O43   O     O_R   0.749970 0.866860 0.439280 -0.641655
O44   O     O_R   0.189290 0.133150 0.000000 -0.655161
O45   O     O_R   0.335430 0.280650 0.146160 -0.638041
O46   O     O_R   0.189290 0.866850 0.000000 -0.655161
O47   O     O_R   0.689290 0.633150 0.500000 -0.655141
O48   O     O_R   0.689290 0.366850 0.500000 -0.655180
O49   O     O_3   0.556324 0.909469 0.097937 -0.765070
O50   O     O_3   0.556403 0.090567 0.902112 -0.765166
O51   O     O_3   0.596546 0.122925 0.064648 -0.770174
O52   O     O_3   0.596846 0.876620 0.935812 -0.770007
O53   O     O_3   0.056336 0.409462 0.597930 -0.765168
O54   O     O_3   0.056431 0.590582 0.402134 -0.765043
O55   O     O_3   0.096813 0.623317 0.564252 -0.770000
O56   O     O_R   0.335430 0.719350 0.853840 -0.638148
O57   O     O_3   0.096577 0.377016 0.435410 -0.770164
O58   O     O_R   0.335430 0.719350 0.146160 -0.654762
O59   O     O_R   0.335430 0.280650 0.853840 -0.654831
O60   O     O_R   0.835430 0.780650 0.646160 -0.638129
Zn1   Zn    Zn3+2 0.249990 0.293780 0.913250 0.943373
Zn2   Zn    Zn3+2 0.336760 0.793760 0.000000 0.964008
Zn3   Zn    Zn3+2 0.836760 0.706240 0.500000 0.963985
Zn4   Zn    Zn3+2 0.836760 0.293760 0.500000 0.963955
Zn5   Zn    Zn3+2 0.163250 0.206230 0.000000 0.942019
Zn6   Zn    Zn3+2 0.163250 0.793770 0.000000 0.942010
Zn7   Zn    Zn3+2 0.663250 0.706230 0.500000 0.942021
Zn8   Zn    Zn3+2 0.663250 0.293770 0.500000 0.942009
Zn9   Zn    Zn3+2 0.249990 0.706220 0.086750 0.944320
Zn10  Zn    Zn3+2 0.249990 0.706220 0.913250 0.951931
Zn11  Zn    Zn3+2 0.249990 0.293780 0.086750 0.952854
Zn12  Zn    Zn3+2 0.749990 0.793780 0.413250 0.944319
Zn13  Zn    Zn3+2 0.749990 0.206220 0.586750 0.943375
Zn14  Zn    Zn3+2 0.749990 0.206220 0.413250 0.952852
Zn15  Zn    Zn3+2 0.749990 0.793780 0.586750 0.951934
Zn16  Zn    Zn3+2 0.336760 0.206240 0.000000 0.963936

loop_
_geom_bond_atom_site_label_1
_geom_bond_atom_site_label_2
_ccdc_geom_bond_type
C59   H28   S    
C85   H87   S    
C3    H70   S    
C86   H88   S    
C74   C83   A    
H103  O50   S    
H3    O52   S    
C55   O41   A    
C21   H41   S    
C173  O22   A    
C79   C99   A    
C10   H25   S    
C31   C36   A    
C67   H66   S    
C169  O26   A    
C148  O19   A    
O23   Zn15  S    
C162  H20   S    
C48   O31   A    
C61   C63   S    
H104  O51   S    
C62   C64   S    
C155  H9    S    
O23   Zn3   S    
C134  C143  A    
O34   Zn4   S    
O35   Zn4   S    
C93   C120  S    
C97   H100  S    
C4    C12   A    
O7    Zn10  S    
C58   H46   S    
C128  C154  A    
C1    O45   A    
C119  C128  A    
C167  C180  A    
H4    O53   S    
C21   C22   A    
C130  C134  A    
C107  C124  A    
C158  C167  A    
C45   C47   A    
O15   Zn2   S    
C27   C31   A    
C124  C137  S    
C28   C32   A    
O27   Zn7   S    
C60   H39   S    
O1    Zn11  S    
C123  C126  S    
C129  C142  A    
C20   C28   A    
C33   C50   S    
C154  H8    S    
C17   C21   A    
C82   C91   A    
C120  C129  A    
C149  C175  S    
C142  C151  A    
C19   C23   A    
C43   C44   A    
C157  H11   S    
C37   C38   A    
C158  H12   S    
C115  C118  S    
C57   C97   A    
C172  O24   A    
C61   H50   S    
C35   O53   S    
C12   C139  A    
C174  O30   A    
C46   C84   A    
C124  C133  A    
C69   H65   S    
C30   C49   S    
C35   C95   A    
C31   C48   S    
C114  C150  A    
C53   C71   S    
O60   Zn15  S    
C104  C117  S    
O45   Zn11  S    
C163  H21   S    
C66   H60   S    
C24   O52   S    
C54   O43   A    
O14   Zn16  S    
C69   H64   S    
C33   C38   A    
C56   C59   S    
C133  C160  A    
C93   O56   A    
C80   C88   A    
C45   H35   S    
C57   C85   A    
C109  C144  A    
C160  C168  A    
C68   C98   A    
C3    C11   A    
C46   C96   A    
C153  H2    S    
C94   C102  A    
C56   H1    S    
C41   C45   A    
C4    C161  A    
C130  C156  A    
C44   H32   S    
C58   C60   S    
C76   C85   A    
C78   C87   A    
C174  O9    A    
C29   C33   A    
C123  C132  A    
C121  C130  A    
O1    Zn1   S    
C98   H101  S    
O41   Zn14  S    
C53   O38   A    
C144  C171  S    
C25   H44   S    
O3    Zn13  S    
C79   C170  A    
O17   Zn16  S    
C11   C138  A    
O5    Zn1   S    
O12   Zn10  S    
C75   C84   A    
C151  C177  S    
C65   C70   S    
C47   H34   S    
O39   Zn1   S    
C137  O20   A    
C2    C90   A    
C67   C72   S    
C5    H73   S    
C81   C114  A    
C62   C73   S    
O24   Zn6   S    
C152  C161  A    
C9    C179  A    
O34   Zn13  S    
C145  C172  S    
C176  O11   A    
O21   Zn3   S    
C40   H55   S    
C95   C103  A    
C141  C150  A    
H102  O49   S    
C30   C34   A    
C8    C134  A    
C34   C39   A    
C17   C27   A    
C12   H27   S    
C126  O21   A    
C91   H92   S    
C111  C146  A    
C49   O46   A    
O18   Zn3   S    
C60   H48   S    
C159  O18   A    
C9    H24   S    
C169  O5    A    
C99   C117  A    
C132  C136  A    
O2    Zn14  S    
C84   H86   S    
C32   C37   A    
C6    C163  A    
C9    C135  A    
C11   H26   S    
C173  O8    A    
C14   C140  A    
C26   C30   A    
O59   Zn1   S    
C82   H84   S    
C65   H58   S    
C92   H96   S    
C127  C140  A    
C110  C145  A    
C122  C131  A    
O16   Zn2   S    
C62   H61   S    
C105  C109  A    
C14   H29   S    
C177  O27   A    
C107  C111  A    
C16   H31   S    
C23   H43   S    
H7    O57   S    
O22   Zn5   S    
C175  O29   A    
C159  O4    A    
C112  C147  A    
O56   Zn10  S    
C137  O2    A    
C138  C146  A    
C105  C122  A    
C63   H72   S    
C34   C36   A    
O9    Zn12  S    
C37   C41   A    
C178  H67   S    
C55   C73   S    
C40   C44   A    
C80   C113  A    
C118  C127  A    
C175  O10   A    
C78   H80   S    
C50   O47   A    
C117  C125  A    
C140  C149  A    
C116  C151  A    
O33   Zn3   S    
C160  H13   S    
C96   C105  A    
C58   H17   S    
C2    O50   S    
O19   Zn4   S    
C18   C26   A    
C165  H14   S    
C179  H68   S    
O47   Zn7   S    
H6    O55   S    
C22   H42   S    
C26   C27   A    
C168  H18   S    
C56   H45   S    
O31   Zn16  S    
C28   C29   A    
C15   H30   S    
C58   C71   S    
C20   C25   A    
C170  O49   S    
C1    C119  S    
C131  C157  A    
H5    O54   S    
C15   C141  A    
O36   Zn11  S    
C75   H77   S    
C61   H49   S    
C122  C159  S    
C69   C73   S    
C17   H36   S    
C59   H47   S    
C128  C141  A    
C81   C89   A    
C115  O59   A    
C133  C138  A    
C79   H93   S    
C95   H98   S    
C18   C22   A    
C177  O13   A    
C101  C114  A    
C147  C174  S    
C55   O42   A    
C80   H81   S    
C129  C155  A    
C67   H63   S    
C63   C73   S    
C171  O25   A    
C132  C158  A    
C98   C107  A    
O4    Zn12  S    
O1    Zn16  S    
C13   O51   S    
C32   C51   S    
C66   C71   S    
C83   H85   S    
C121  C148  S    
C19   H38   S    
C5    C14   A    
C49   O32   A    
C92   C101  A    
C97   C106  A    
C61   C72   S    
C88   H90   S    
C7    C16   A    
C41   H56   S    
C13   C92   A    
C100  C118  A    
C19   C29   A    
C102  C120  A    
O38   Zn9   S    
O11   Zn14  S    
C65   H62   S    
C35   C83   A    
C7    H75   S    
C96   H99   S    
C8    H23   S    
C4    H71   S    
O12   Zn6   S    
C39   H54   S    
C57   O55   S    
O32   Zn2   S    
C53   O37   A    
C7    C164  A    
C153  C162  A    
C10   C180  A    
C5    C162  A    
C82   C116  A    
O48   Zn8   S    
C68   O57   S    
C156  C165  A    
O8    Zn11  S    
C74   C108  A    
C171  O6    A    
O13   Zn15  S    
C51   O48   A    
C76   C110  A    
C62   H51   S    
O20   Zn4   S    
C78   C112  A    
C108  C143  A    
O23   Zn7   S    
O34   Zn14  S    
C156  H10   S    
C150  C176  S    
O34   Zn8   S    
C66   H59   S    
C68   C86   A    
C167  H16   S    
O46   Zn6   S    
O40   Zn15  S    
C127  C153  A    
O42   Zn13  S    
C104  O58   A    
C125  C139  A    
C139  C147  A    
C52   O39   A    
C115  O14   A    
C10   C136  A    
O37   Zn10  S    
C38   C42   A    
O10   Zn13  S    
C131  C135  A    
C146  C173  S    
O6    Zn9   S    
C6    H74   S    
O58   Zn9   S    
O26   Zn5   S    
C6    C15   A    
C148  O3    A    
C77   C111  A    
C106  C123  A    
C93   O16   A    
C2    C88   A    
C90   H95   S    
C136  C145  A    
C23   C25   A    
C81   H82   S    
C165  C178  A    
C20   H40   S    
C1    O17   A    
C90   C100  A    
C42   H57   S    
C3    C168  A    
C75   C109  A    
C161  H19   S    
C64   H83   S    
C101  C119  A    
C113  C149  A    
C154  C163  A    
C36   C40   A    
C52   C70   S    
C166  H15   S    
C143  C169  S    
O12   Zn9   S    
C50   O33   A    
C39   C43   A    
C87   C170  A    
C76   H78   S    
O29   Zn8   S    
C67   C69   S    
C89   H91   S    
C16   C142  A    
O30   Zn7   S    
C125  C152  A    
C24   C94   A    
C180  H69   S    
C60   C70   S    
C54   C72   S    
C103  C108  A    
C164  H22   S    
O44   Zn5   S    
C135  C144  A    
C77   C86   A    
C56   C70   S    
C77   H79   S    
C54   O40   A    
C43   H33   S    
C24   C91   A    
C106  C110  A    
O23   Zn12  S    
O28   Zn8   S    
C13   C89   A    
O25   Zn6   S    
C46   O54   S    
C100  C113  A    
C157  C166  A    
C172  O7    A    
C155  C164  A    
O43   Zn12  S    
C64   H53   S    
C152  H94   S    
C87   H89   S    
C94   H97   S    
O1    Zn5   S    
C126  O60   A    
C48   O44   A    
C104  O15   A    
C99   C112  A    
C42   C47   A    
C64   C72   S    
C102  C116  A    
C8    C178  A    
C51   O35   A    
C65   C66   S    
C52   O36   A    
C176  O28   A    
C166  C179  A    
O12   Zn2   S    
C18   H37   S    
C74   H76   S    
C59   C71   S    
C63   H52   S    
C103  C121  A    
