data_mof_unit_12784.cif
_audit_creation_date              2012-12-11T14:11:03-0500
_audit_creation_method            fapswitch 2.2
_symmetry_space_group_name_H-M    P1
_symmetry_Int_Tables_number       1
_space_group_crystal_system       triclinic
_cell_length_a                    19.723479
_cell_length_b                    17.222815
_cell_length_c                    15.424484
_cell_angle_alpha                 90.000329
_cell_angle_beta                  52.518705
_cell_angle_gamma                 89.999655
_cell_volume                      4157.89687368

loop_
_atom_site_label
_atom_site_type_symbol
_atom_type_description
_atom_site_fract_x
_atom_site_fract_y
_atom_site_fract_z
_atom_type_partial_charge
C1    C     C_R   0.374099 0.196891 0.995308 -0.121800
C2    C     C_3   0.751489 0.770459 0.450385 0.385716
C3    C     C_3   0.661429 0.282218 0.470125 0.375541
C4    C     C_3   0.338581 0.717763 0.529860 0.375543
C5    C     C_3   0.838435 0.781975 0.530079 0.375525
C6    C     C_3   0.161402 0.217746 0.470157 0.375547
C7    C     C_3   0.251406 0.729806 0.450541 0.385599
C8    C     C_3   0.748589 0.270208 0.549469 0.385630
C9    C     C_2   0.190966 0.743049 0.094402 -0.204137
C10   C     C_2   0.809033 0.256951 0.905598 -0.204096
C11   C     C_2   0.713811 0.687643 0.045250 -0.203635
C12   C     C_R   0.625898 0.803108 0.004696 -0.121797
C13   C     C_2   0.286191 0.312358 0.954747 -0.203625
C14   C     C_2   0.786186 0.187644 0.954755 -0.203626
C15   C     C_2   0.213814 0.812356 0.045245 -0.203627
C16   C     C_2   0.309038 0.243049 0.905591 -0.204100
C17   C     C_2   0.690960 0.756949 0.094411 -0.204118
C18   C     C_R   0.391310 0.802747 0.213609 -0.134606
C19   C     C_R   0.608691 0.197253 0.786390 -0.134599
C20   C     C_R   0.651724 0.828694 0.778733 -0.137474
C21   C     C_R   0.348289 0.171322 0.221278 -0.137581
C22   C     C_R   0.848293 0.328674 0.221277 -0.137567
C23   C     C_R   0.660696 0.175105 0.951132 -0.112090
C24   C     C_R   0.151707 0.671325 0.778721 -0.137566
C25   C     C_R   0.108690 0.302746 0.786390 -0.134610
C26   C     C_R   0.891275 0.697246 0.213624 -0.134556
C27   C     C_R   0.329899 0.913125 0.951023 -0.155949
C28   C     C_R   0.670101 0.086875 0.048977 -0.155941
C29   C     C_R   0.634739 0.889990 0.102899 -0.159026
C30   C     C_R   0.365260 0.110009 0.897103 -0.159024
C31   C     C_R   0.865259 0.389991 0.897104 -0.159032
C32   C     C_R   0.134740 0.610009 0.102896 -0.159028
C33   C     C_R   0.170102 0.413126 0.048974 -0.155944
C34   C     C_R   0.339304 0.824895 0.048868 -0.112095
C35   C     C_R   0.829899 0.586875 0.951024 -0.155911
C36   C     C_R   0.357077 0.079293 0.316939 -0.127414
C37   C     C_R   0.642941 0.920718 0.683068 -0.127487
C38   C     C_R   0.601851 0.105026 0.690130 -0.145635
C39   C     C_R   0.398152 0.894972 0.309868 -0.145614
C40   C     C_R   0.898099 0.605016 0.309897 -0.145674
C41   C     C_R   0.101846 0.394972 0.690132 -0.145609
C42   C     C_R   0.142919 0.579296 0.683059 -0.127416
C43   C     C_R   0.857081 0.420701 0.316941 -0.127411
C44   C     C_R   0.346566 0.185588 0.933102 0.155021
C45   C     C_R   0.839303 0.675106 0.048867 -0.112123
C46   C     C_R   0.653432 0.814411 0.066902 0.155038
C47   C     C_R   0.712457 0.148096 0.976899 0.155207
C48   C     C_R   0.287543 0.851904 0.023102 0.155211
C49   C     C_R   0.787542 0.648096 0.023103 0.155205
C50   C     C_R   0.212460 0.351906 0.976893 0.155207
C51   C     C_R   0.153436 0.685587 0.066896 0.155025
C52   C     C_R   0.846564 0.314413 0.933104 0.155024
C53   C     C_R   0.375315 0.819825 0.311411 0.084677
C54   C     C_R   0.624690 0.180173 0.688586 0.084680
C55   C     C_R   0.692872 0.861786 0.676519 0.072512
C56   C     C_R   0.160698 0.324896 0.951129 -0.112087
C57   C     C_R   0.307162 0.138243 0.323497 0.072550
C58   C     C_R   0.807167 0.361751 0.323497 0.072548
C59   C     C_R   0.192832 0.638248 0.676502 0.072547
C60   C     C_R   0.124684 0.319825 0.688589 0.084682
C61   C     C_R   0.875227 0.680157 0.311454 0.084648
C62   C     C_3   0.215032 0.153028 0.538202 -0.246934
C63   C     C_3   0.785242 0.847077 0.461754 -0.246933
C64   C     C_3   0.694648 0.205226 0.482280 -0.249907
C65   C     C_3   0.305374 0.794765 0.517713 -0.249899
C66   C     C_3   0.805044 0.705141 0.517822 -0.249907
C67   C     C_R   0.125901 0.696891 0.004691 -0.121796
C68   C     C_3   0.194603 0.294757 0.482293 -0.249906
C69   C     C_3   0.284979 0.653026 0.461793 -0.246927
C70   C     C_3   0.715006 0.346978 0.538208 -0.246928
C71   C     C_3   0.718635 0.743926 0.564442 -0.222601
C72   C     C_3   0.281188 0.256262 0.435459 -0.222702
C73   C     C_3   0.372477 0.691964 0.413540 -0.227882
C74   C     C_3   0.627517 0.308023 0.586449 -0.227875
C75   C     C_3   0.127524 0.191954 0.586472 -0.227887
C76   C     C_3   0.872578 0.807859 0.413694 -0.227827
C77   C     C_3   0.781213 0.243751 0.435475 -0.222700
C78   C     C_R   0.874099 0.303109 0.995309 -0.121792
C79   C     C_3   0.218798 0.756258 0.564531 -0.222700
C80   C     C_3   0.752959 0.820232 0.576164 0.096813
C81   C     C_3   0.247051 0.179778 0.423860 0.096879
C82   C     C_3   0.337141 0.768096 0.403447 0.089273
C83   C     C_3   0.662864 0.231901 0.596550 0.089267
C84   C     C_3   0.162854 0.268095 0.596553 0.089272
C85   C     C_3   0.837063 0.731896 0.403486 0.089256
C86   C     C_3   0.747059 0.320215 0.423858 0.096873
C87   C     C_3   0.252941 0.679783 0.576140 0.096880
C88   C     C_3   0.300661 0.236469 0.592020 -1.053225
C89   C     C_3   0.248599 0.229817 0.549443 0.385620
C90   C     C_3   0.699560 0.764128 0.407588 -1.053627
C91   C     C_3   0.613222 0.290581 0.422668 -1.035904
C92   C     C_3   0.386796 0.709381 0.577304 -1.035924
C93   C     C_3   0.886534 0.790054 0.577718 -1.035989
C94   C     C_3   0.113174 0.209348 0.422732 -1.035903
C95   C     C_3   0.199356 0.736441 0.407945 -1.053206
C96   C     C_3   0.800632 0.263591 0.592077 -1.053273
H1    H     H_    0.381275 0.251526 0.023266 0.079298
H2    H     H_    0.610050 0.254008 0.815261 0.091957
H3    H     H_    0.671342 0.777804 0.799170 0.101502
H4    H     H_    0.328666 0.222208 0.200842 0.101495
H5    H     H_    0.828673 0.277787 0.200840 0.101496
H6    H     H_    0.171328 0.722213 0.799158 0.101494
H7    H     H_    0.110050 0.245991 0.815259 0.091952
H8    H     H_    0.889934 0.754003 0.184745 0.092006
H9    H     H_    0.309588 0.946791 0.911350 0.098007
H10   H     H_    0.690412 0.053209 0.088650 0.098010
H11   H     H_    0.638457 0.916061 0.163706 0.092885
H12   H     H_    0.618720 0.748473 0.976740 0.079293
H13   H     H_    0.361542 0.083939 0.836295 0.092864
H14   H     H_    0.861540 0.416061 0.836298 0.092871
H15   H     H_    0.138460 0.583939 0.163703 0.092867
H16   H     H_    0.190414 0.446792 0.088646 0.098006
H17   H     H_    0.809587 0.553208 0.911352 0.098006
H18   H     H_    0.346248 0.045186 0.383024 0.095817
H19   H     H_    0.653777 0.954816 0.616972 0.095887
H20   H     H_    0.596401 0.076998 0.631909 0.089275
H21   H     H_    0.403604 0.922999 0.368088 0.089264
H22   H     H_    0.903544 0.576998 0.368125 0.089301
H23   H     H_    0.670553 0.224416 0.901673 0.088797
H24   H     H_    0.096395 0.423000 0.631913 0.089261
H25   H     H_    0.153749 0.545190 0.616974 0.095820
H26   H     H_    0.846253 0.454802 0.383030 0.095810
H27   H     H_    0.654705 0.718290 0.626856 0.136492
H28   H     H_    0.345003 0.282056 0.372940 0.136435
H29   H     H_    0.436669 0.667556 0.349655 0.138300
H30   H     H_    0.563319 0.332421 0.650328 0.138308
H31   H     H_    0.063339 0.167541 0.650367 0.138302
H32   H     H_    0.936875 0.832116 0.349907 0.138352
H33   H     H_    0.845042 0.217972 0.372972 0.136440
H34   H     H_    0.329447 0.775584 0.098327 0.088797
H35   H     H_    0.154975 0.782046 0.627040 0.136437
H36   H     H_    0.223589 0.094566 0.560559 0.127028
H37   H     H_    0.776936 0.905633 0.439361 0.127088
H38   H     H_    0.686114 0.146976 0.459384 0.126123
H39   H     H_    0.313925 0.853010 0.540604 0.126114
H40   H     H_    0.813335 0.646811 0.540782 0.126125
H41   H     H_    0.186037 0.352997 0.459406 0.126115
H42   H     H_    0.276434 0.594559 0.439434 0.127032
H43   H     H_    0.723534 0.405451 0.560570 0.127028
H44   H     H_    0.212425 0.722812 0.140568 0.128421
H45   H     H_    0.829447 0.724420 0.098323 0.088840
H46   H     H_    0.787574 0.277188 0.859432 0.128417
H47   H     H_    0.690382 0.666629 0.001671 0.123220
H48   H     H_    0.309621 0.333373 0.998322 0.123215
H49   H     H_    0.809615 0.166630 0.998332 0.123216
H50   H     H_    0.190385 0.833370 0.001668 0.123220
H51   H     H_    0.287578 0.222812 0.859426 0.128410
H52   H     H_    0.712417 0.777185 0.140579 0.128477
H53   H     H_    0.362473 0.205770 0.535677 0.254528
H54   H     H_    0.313135 0.298530 0.596977 0.262549
H55   H     H_    0.265287 0.209716 0.674240 0.242622
H56   H     H_    0.170556 0.275585 0.901667 0.088793
H57   H     H_    0.637813 0.794940 0.463863 0.254545
H58   H     H_    0.735098 0.790946 0.325390 0.242608
H59   H     H_    0.686950 0.702133 0.402515 0.262582
H60   H     H_    0.552545 0.257379 0.473288 0.255694
H61   H     H_    0.598800 0.352750 0.421937 0.257742
H62   H     H_    0.652790 0.267757 0.337884 0.249298
H63   H     H_    0.447480 0.742571 0.526676 0.255705
H64   H     H_    0.347239 0.732207 0.662087 0.249306
H65   H     H_    0.401204 0.647207 0.578035 0.257734
H66   H     H_    0.947098 0.756679 0.527218 0.255653
H67   H     H_    0.118725 0.751525 0.976732 0.079298
H68   H     H_    0.901161 0.852161 0.578442 0.257766
H69   H     H_    0.846802 0.767259 0.662519 0.249258
H70   H     H_    0.052493 0.242545 0.473356 0.255699
H71   H     H_    0.152725 0.232155 0.337940 0.249306
H72   H     H_    0.098757 0.147173 0.422029 0.257735
H73   H     H_    0.137545 0.705739 0.464284 0.254531
H74   H     H_    0.186879 0.798499 0.402977 0.262546
H75   H     H_    0.234741 0.709680 0.325727 0.242616
H76   H     H_    0.862437 0.294302 0.535745 0.254530
H77   H     H_    0.765237 0.290353 0.674296 0.242622
H78   H     H_    0.881275 0.248475 0.023267 0.079296
H79   H     H_    0.813120 0.201537 0.597049 0.262553
H80   H     H_    0.389951 0.745992 0.184738 0.091956
N1    N     N_R   0.408680 0.130810 0.995780 -0.041385
N2    N     N_R   0.578590 0.132790 0.846380 -0.039412
N3    N     N_R   0.578590 0.867210 0.846380 -0.043871
N4    N     N_R   0.421410 0.132790 0.153620 -0.043851
N5    N     N_R   0.921410 0.367210 0.153620 -0.043853
N6    N     N_R   0.078590 0.632790 0.846380 -0.043851
N7    N     N_R   0.078590 0.367210 0.846380 -0.039413
N8    N     N_R   0.921410 0.632790 0.153620 -0.039427
N9    N     N_R   0.403840 0.921910 0.935760 -0.042670
N10   N     N_R   0.596160 0.078090 0.064240 -0.042670
N11   N     N_R   0.596160 0.921910 0.064240 -0.038134
N12   N     N_R   0.591320 0.869190 0.004220 -0.041386
N13   N     N_R   0.403840 0.078090 0.935760 -0.038131
N14   N     N_R   0.903840 0.421910 0.935760 -0.038135
N15   N     N_R   0.096160 0.578090 0.064240 -0.038133
N16   N     N_R   0.096160 0.421910 0.064240 -0.042670
N17   N     N_R   0.903840 0.578090 0.935760 -0.042669
N18   N     N_R   0.426250 0.076100 0.213650 -0.042356
N19   N     N_R   0.573750 0.923900 0.786350 -0.042361
N20   N     N_R   0.573750 0.076100 0.786350 -0.036783
N21   N     N_R   0.426250 0.923900 0.213650 -0.036788
N22   N     N_R   0.926250 0.576100 0.213650 -0.036783
N23   N     N_R   0.591320 0.130810 0.004220 -0.047488
N24   N     N_R   0.073750 0.423900 0.786350 -0.036789
N25   N     N_R   0.073750 0.576100 0.786350 -0.042354
N26   N     N_R   0.926250 0.423900 0.213650 -0.042355
N27   N     N_R   0.408680 0.869190 0.995780 -0.047489
N28   N     N_R   0.908680 0.630810 0.995780 -0.047487
N29   N     N_R   0.091320 0.369190 0.004220 -0.047488
N30   N     N_R   0.091320 0.630810 0.004220 -0.041388
N31   N     N_R   0.908680 0.369190 0.995780 -0.041386
N32   N     N_R   0.421410 0.867210 0.153620 -0.039412
Ni1   Ni    Ni4+2 0.500000 0.131570 0.000000 0.205614
Ni2   Ni    Ni4+2 0.500000 0.868430 0.000000 0.205606
Ni3   Ni    Ni4+2 1.000000 0.631570 0.000000 0.205611
Ni4   Ni    Ni4+2 0.000000 0.368430 0.000000 0.205611
Ni5   Ni    Ni4+2 0.488900 0.000000 0.862310 0.210600
Ni6   Ni    Ni4+2 0.511100 0.000000 0.137690 0.210609
Ni7   Ni    Ni4+2 0.988900 0.500000 0.862310 0.210611
Ni8   Ni    Ni4+2 0.011100 0.500000 0.137690 0.210608

loop_
_geom_bond_atom_site_label_1
_geom_bond_atom_site_label_2
_ccdc_geom_bond_type
C92   H65   S    
C27   C48   A    
C40   H22   S    
C28   C47   A    
C65   C79   S    
C96   H79   S    
C8    C83   S    
C64   C77   S    
N5    N26   A    
C8    C96   S    
C74   C83   S    
N22   Ni8   S    
C94   H70   S    
C66   C85   S    
C79   C87   S    
C6    C75   S    
C32   C51   A    
C4    C87   S    
N3    N19   A    
C3    C64   S    
C39   C53   A    
C14   H49   S    
N17   N28   A    
C92   H63   S    
C37   N19   A    
N5    Ni4   S    
C32   H15   S    
C26   C61   A    
C22   N5    A    
C41   N24   A    
C10   H46   S    
C4    C65   S    
C9    H44   S    
C75   C84   S    
C13   H48   S    
C63   C76   S    
C27   H9    S    
C12   N12   A    
C62   C89   S    
C23   N23   A    
N24   Ni7   S    
N6    N25   A    
C2    C85   S    
C3    C91   S    
C27   N9    A    
C30   N13   A    
N1    Ni1   S    
N16   N29   A    
C3    C74   S    
C70   C74   S    
N25   Ni7   S    
C91   H62   S    
C18   C53   A    
C26   H8    S    
C78   N31   A    
C1    N1    A    
N30   Ni3   S    
C21   N4    A    
C56   N29   A    
C33   N16   A    
C6    C94   S    
C9    C51   S    
C35   C49   A    
N13   Ni5   S    
N27   Ni2   S    
C69   C73   S    
C25   C60   A    
C90   H58   S    
N14   Ni7   S    
C16   C44   S    
C75   H31   S    
C72   C81   S    
C69   C87   S    
C42   H25   S    
C6    C68   S    
C39   N21   A    
N11   Ni6   S    
C36   H18   S    
C70   H43   S    
C6    C81   S    
C72   H28   S    
C3    C86   S    
C45   H45   S    
C30   C44   A    
C68   H41   S    
C93   H66   S    
N12   Ni2   S    
C15   C48   S    
C20   C55   A    
C52   C78   A    
C58   C86   S    
C55   C80   S    
C54   C83   S    
C19   H2    S    
N17   Ni7   S    
C20   N3    A    
C36   N18   A    
C63   C80   S    
C64   H38   S    
C23   C47   A    
C96   H77   S    
C30   H13   S    
C24   N6    A    
C68   C84   S    
C62   H36   S    
C17   H52   S    
N1    N13   A    
C17   C46   S    
C12   C46   A    
C36   C57   A    
C10   C14   D    
C1    H1    S    
C12   H12   S    
C21   H4    S    
C25   H7    S    
C51   C67   A    
C93   H68   S    
C33   C50   A    
C39   H21   S    
N2    N20   A    
C88   H53   S    
C50   C56   A    
C40   C61   A    
C29   N11   A    
N2    Ni1   S    
C53   C82   S    
N23   Ni1   S    
N15   N30   A    
C94   H71   S    
C95   H73   S    
C64   C83   S    
C21   C57   A    
C11   C49   S    
C28   N10   A    
N15   Ni8   S    
C38   H20   S    
C10   C52   S    
C1    C44   A    
C5    C93   S    
C66   C71   S    
N3    Ni2   S    
C45   C49   A    
C34   N27   A    
C68   C72   S    
C79   H35   S    
C43   N26   A    
C33   H16   S    
C77   H33   S    
C90   H57   S    
C22   H5    S    
C19   N2    A    
C34   H34   S    
C4    C73   S    
C65   H39   S    
C67   N30   A    
C61   C85   S    
C66   H40   S    
C19   C54   A    
N32   Ni2   S    
C62   C81   S    
C77   C86   S    
N8    N22   A    
C16   H51   S    
C8    C77   S    
C76   H32   S    
C88   H55   S    
C57   C81   S    
N10   N23   A    
C56   H56   S    
C84   C89   S    
C94   H72   S    
C2    C71   S    
C70   C86   S    
C63   H37   S    
C73   C82   S    
N4    N18   A    
C2    C63   S    
N8    Ni3   S    
C7    C79   S    
C22   C58   A    
C71   H27   S    
C69   H42   S    
C11   C17   D    
C88   H54   S    
C41   C60   A    
C5    C66   S    
C42   N25   A    
C42   C59   A    
N18   Ni6   S    
C15   H50   S    
C71   C80   S    
N31   Ni4   S    
C14   C47   S    
C37   H19   S    
C45   N28   A    
C28   H10   S    
C7    C95   S    
C8    C70   S    
N7    N24   A    
N29   Ni4   S    
C31   C52   A    
C29   C46   A    
C92   H64   S    
C18   N32   A    
N9    N27   A    
C5    C76   S    
C7    C69   S    
N7    Ni4   S    
C91   H60   S    
C23   H23   S    
N20   Ni5   S    
C60   C84   S    
C65   C82   S    
C74   H30   S    
C20   H3    S    
C40   N22   A    
C5    C80   S    
C24   C59   A    
C73   H29   S    
N10   Ni6   S    
N28   Ni3   S    
C31   N14   A    
N6    Ni3   S    
C31   H14   S    
N9    Ni5   S    
C35   H17   S    
C24   H6    S    
C38   N20   A    
C41   H24   S    
C9    C15   D    
N4    Ni1   S    
C62   C75   S    
C95   H74   S    
C59   C87   S    
C91   H61   S    
C11   H47   S    
C35   N17   A    
C93   H69   S    
C13   C50   S    
C37   C55   A    
C67   H67   S    
C38   C54   A    
N14   N31   A    
N11   N12   A    
C7    C82   S    
C34   C48   A    
C88   C89   S    
C32   N15   A    
C2    C90   S    
C96   H76   S    
C13   C16   D    
C78   H78   S    
C43   C58   A    
C29   H11   S    
N21   N32   A    
C72   C89   S    
N26   Ni8   S    
C90   H59   S    
C95   H75   S    
C76   C85   S    
N16   Ni8   S    
N21   Ni6   S    
C25   N7    A    
N19   Ni5   S    
C26   N8    A    
C43   H26   S    
C4    C92   S    
C18   H80   S    
