data_mof_unit_18424.cif
_audit_creation_date              2012-12-10T17:44:38-0500
_audit_creation_method            fapswitch 2.2
_symmetry_space_group_name_H-M    P1
_symmetry_Int_Tables_number       1
_space_group_crystal_system       triclinic
_cell_length_a                    9.99208
_cell_length_b                    10.664121
_cell_length_c                    15.48022
_cell_angle_alpha                 93.437528
_cell_angle_beta                  66.912811
_cell_angle_gamma                 91.532453
_cell_volume                      1514.67085347

loop_
_atom_site_label
_atom_site_type_symbol
_atom_type_description
_atom_site_fract_x
_atom_site_fract_y
_atom_site_fract_z
_atom_type_partial_charge
C1    C     C_R   0.506838 0.738627 0.490914 0.935239
C2    C     C_R   0.705785 0.616503 0.047195 0.043656
C3    C     C_R   0.577526 0.545702 0.093423 0.072121
C4    C     C_R   0.407424 0.498890 0.676422 0.859881
C5    C     C_R   0.802373 0.645272 0.093346 0.433343
C6    C     C_R   0.770181 0.601110 0.182601 -0.214238
C7    C     C_R   0.560148 0.491096 0.176809 -0.245992
C8    C     C_R   0.328244 0.876517 0.410048 0.475884
C9    C     C_R   0.197408 0.931038 0.417393 -0.364076
C10   C     C_R   0.144097 0.037685 0.476206 -0.135144
C11   C     C_R   0.226982 0.098756 0.520714 0.485855
C12   C     C_R   0.402002 0.531563 0.920235 0.071663
C13   C     C_R   0.370135 0.054986 0.501376 -0.125137
C14   C     C_R   0.406073 0.933088 0.461898 0.017885
C15   C     C_R   0.515619 0.871535 0.479629 -0.067331
C16   C     C_R   0.492930 0.260482 0.507693 0.856050
C17   C     C_R   0.613891 0.939317 0.508218 -0.241241
C18   C     C_R   0.600326 0.066897 0.523000 -0.183498
C19   C     C_R   0.481231 0.126393 0.517380 -0.110714
C20   C     C_R   0.792382 0.679243 0.611074 -0.145873
C21   C     C_R   0.826941 0.776092 0.661455 -0.301593
C22   C     C_R   0.961096 0.779098 0.665883 -0.270029
C23   C     C_R   0.262684 0.482359 0.974692 0.040099
C24   C     C_R   0.063293 0.683723 0.620659 0.532265
C25   C     C_R   0.038196 0.589664 0.557602 0.042023
C26   C     C_R   0.895103 0.588980 0.555441 0.084841
C27   C     C_R   0.957767 0.416138 0.446412 -0.110961
C28   C     C_R   0.592023 0.502066 0.324157 0.910888
C29   C     C_R   0.100058 0.415654 0.445243 0.482936
C30   C     C_R   0.347452 0.498700 0.779779 -0.182389
C31   C     C_R   0.648697 0.524815 0.224287 -0.128866
C32   C     C_R   0.163492 0.453215 0.932251 -0.169160
C33   C     C_R   0.204938 0.458099 0.835473 0.440694
C34   C     C_R   0.502532 0.563890 0.962447 0.086028
C35   C     C_R   0.440896 0.538612 0.823515 -0.297288
C36   C     C_R   0.469998 0.529797 0.055261 0.038574
C37   C     C_R   0.329321 0.484100 0.108746 -0.202573
C38   C     C_R   0.227226 0.459934 0.069769 0.104023
C39   C     C_R   0.634602 0.628579 0.915126 -0.189183
C40   C     C_R   0.733350 0.654914 0.956831 -0.190997
H1    H     H_    0.700342 0.894038 0.520280 0.174836
H2    H     H_    0.837036 0.630871 0.220877 0.179544
H3    H     H_    0.832246 0.703647 0.915969 0.159379
H4    H     H_    0.054966 0.419489 0.972777 0.161565
H5    H     H_    0.548393 0.568392 0.779309 0.177059
H6    H     H_    0.293370 0.469070 0.182801 0.177237
H7    H     H_    0.662838 0.665233 0.846838 0.151676
H8    H     H_    0.080049 0.317810 0.097371 0.189086
H9    H     H_    0.007557 0.463738 0.129998 0.200945
H10   H     H_    0.907320 0.782669 0.018024 0.328741
H11   H     H_    0.317944 0.746350 0.318937 0.332748
H12   H     H_    0.134070 0.888259 0.380462 0.166533
H13   H     H_    0.210512 0.197534 0.632885 0.315019
H14   H     H_    0.179735 0.750144 0.689699 0.304215
H15   H     H_    0.287807 0.335680 0.389236 0.383086
H16   H     H_    0.156709 0.369149 0.739437 0.345223
H17   H     H_    0.037144 0.072527 0.488039 0.180797
H18   H     H_    0.683325 0.118782 0.538958 0.174344
H19   H     H_    0.928361 0.347509 0.402407 0.172490
H20   H     H_    0.682269 0.678062 0.619206 0.216883
H21   H     H_    0.746268 0.846053 0.701243 0.175322
H22   H     H_    0.474347 0.424111 0.208518 0.164659
H23   H     H_    0.982087 0.852473 0.710523 0.150394
N1    N     N_R   0.856800 0.501200 0.500850 -0.145318
N2    N     N_R   0.142390 0.501280 0.500880 -0.146899
N3    N     N_3   0.091088 0.405644 0.127755 -0.453688
O1    O     O_R   0.385310 0.683220 0.500000 -0.531191
O2    O     O_3   0.385856 0.773574 0.349066 -0.758721
O3    O     O_3   0.158724 0.190308 0.589765 -0.744752
O4    O     O_3   0.178913 0.678264 0.646108 -0.713148
O5    O     O_3   0.192355 0.325821 0.385876 -0.788400
O6    O     O_3   0.104681 0.418069 0.798997 -0.738993
O7    O     O_R   0.614640 0.683250 0.500010 -0.662811
O8    O     O_R   0.319840 0.499980 0.632240 -0.526127
O9    O     O_R   0.549160 0.500000 0.632250 -0.635422
O10   O     O_R   0.385360 0.316750 0.499990 -0.611806
O11   O     O_R   0.614690 0.316780 0.500000 -0.615116
O12   O     O_R   0.450840 0.500000 0.367750 -0.615005
O13   O     O_R   0.680160 0.500020 0.367760 -0.617653
O14   O     O_3   0.924707 0.719701 0.056740 -0.770124
Zn1   Zn    Zn3+2 0.346880 0.499980 0.499990 1.020015
Zn2   Zn    Zn3+2 0.653120 0.500020 0.500010 0.935713

loop_
_geom_bond_atom_site_label_1
_geom_bond_atom_site_label_2
_ccdc_geom_bond_type
C27   C29   A    
H13   O3    S    
C24   O4    S    
C12   C23   A    
C30   C35   A    
C3    C36   A    
C36   C37   A    
C18   C19   A    
C3    C7    A    
C5    C6    A    
C16   O11   A    
C28   O13   A    
C26   N1    A    
C4    O9    A    
C33   O6    S    
C22   H23   S    
C18   H18   S    
C40   H3    S    
C38   N3    S    
C8    C9    A    
H16   O6    S    
C1    C15   S    
C20   H20   S    
C28   O12   A    
C9    C10   A    
C4    O8    A    
C6    C31   A    
C13   C14   A    
C9    H12   S    
C7    C31   A    
H9    N3    S    
C13   C19   A    
C34   C39   A    
C10   H17   S    
C25   N2    A    
C24   C25   A    
C27   N1    A    
C39   C40   A    
C25   C26   A    
C4    C30   S    
C12   C35   A    
C7    H22   S    
C37   C38   A    
N2    Zn1   S    
H14   O4    S    
C17   C18   A    
C32   H4    S    
C5    O14   S    
N1    Zn2   S    
C29   N2    A    
C8    O2    S    
C22   C24   A    
C2    C5    A    
O8    Zn1   S    
C12   C34   A    
C35   H5    S    
O7    Zn2   S    
C39   H7    S    
C15   C17   A    
C8    C14   A    
C30   C33   A    
C16   O10   A    
C21   H21   S    
C28   C31   S    
H10   O14   S    
O10   Zn1   S    
O13   Zn2   S    
C11   O3    S    
O9    Zn2   S    
O1    Zn1   S    
C23   C38   A    
C1    O7    A    
C23   C32   A    
C2    C3    A    
C27   H19   S    
C32   C33   A    
C11   C13   A    
O12   Zn1   S    
C20   C26   A    
O11   Zn2   S    
C16   C19   S    
C1    O1    A    
C34   C36   A    
H11   O2    S    
C17   H1    S    
C10   C11   A    
C2    C40   A    
C20   C21   A    
C6    H2    S    
C14   C15   A    
H8    N3    S    
C37   H6    S    
C21   C22   A    
H15   O5    S    
C29   O5    S    
