data_mof_unit_42555.cif
_audit_creation_date              2012-12-10T18:47:02-0500
_audit_creation_method            fapswitch 2.2
_symmetry_space_group_name_H-M    P1
_symmetry_Int_Tables_number       1
_space_group_crystal_system       triclinic
_cell_length_a                    10.693865
_cell_length_b                    9.952115
_cell_length_c                    14.972573
_cell_angle_alpha                 89.107812
_cell_angle_beta                  92.274038
_cell_angle_gamma                 90.274388
_cell_volume                      1592.01784265

loop_
_atom_site_label
_atom_site_type_symbol
_atom_type_description
_atom_site_fract_x
_atom_site_fract_y
_atom_site_fract_z
_atom_type_partial_charge
C1    C     C_R   0.260257 0.499818 0.500006 0.930940
C2    C     C_R   0.739743 0.500182 0.499987 0.930986
C3    C     C_R   0.272213 0.495771 0.040426 -0.132267
C4    C     C_R   0.727786 0.504221 0.959573 -0.132294
C5    C     C_R   0.062451 0.380367 0.483111 -0.113044
C6    C     C_R   0.937550 0.619639 0.516854 -0.113034
C7    C     C_R   0.934447 0.380735 0.482622 -0.136285
C8    C     C_R   0.065553 0.619271 0.517346 -0.136394
C9    C     C_R   0.872377 0.500316 0.499660 0.000028
C10   C     C_R   0.127623 0.499688 0.500316 0.000051
C11   C     C_R   0.581616 0.071108 0.555380 0.008820
C12   C     C_R   0.418365 0.928889 0.444631 0.008842
C13   C     C_R   0.422572 0.072862 0.441621 0.007810
C14   C     C_R   0.577436 0.927139 0.558369 0.007774
C15   C     C_R   0.499640 0.501049 0.327492 0.966956
C16   C     C_R   0.500359 0.498951 0.672508 0.967056
C17   C     C_R   0.614245 0.498305 0.815862 0.039929
C18   C     C_R   0.385754 0.501697 0.184137 0.039865
C19   C     C_R   0.499351 0.495994 0.767795 -0.116451
C20   C     C_R   0.500648 0.504006 0.232204 -0.116450
C21   C     C_R   0.384057 0.495115 0.809669 -0.083630
C22   C     C_R   0.615942 0.504883 0.190330 -0.083621
C23   C     C_R   0.384239 0.497248 0.903192 0.046975
C24   C     C_R   0.615761 0.502747 0.096807 0.046965
C25   C     C_R   0.499751 0.499569 0.952985 0.049009
C26   C     C_R   0.500248 0.500425 0.047015 0.049001
C27   C     C_R   0.614781 0.500514 0.909110 0.099175
C28   C     C_R   0.385218 0.499482 0.090889 0.099191
C29   C     C_R   0.271632 0.494045 0.948266 -0.197608
C30   C     C_R   0.728368 0.505946 0.051733 -0.197594
H1    H     H_    0.181390 0.489187 0.913206 0.152557
H2    H     H_    0.818610 0.510802 0.086794 0.152565
H3    H     H_    0.182394 0.493521 0.070832 0.183550
H4    H     H_    0.817604 0.506469 0.929166 0.183542
H5    H     H_    0.109833 0.287418 0.469388 0.164837
H6    H     H_    0.890172 0.712593 0.530570 0.164768
H7    H     H_    0.884531 0.287996 0.468492 0.184872
H8    H     H_    0.115468 0.712011 0.531473 0.184776
N1    N     N_R   0.500000 0.857200 0.500000 -0.187856
N2    N     N_R   0.500000 0.142800 0.500000 -0.187848
O1    O     O_R   0.316770 0.614620 0.499990 -0.658981
O2    O     O_R   0.683230 0.385380 0.500010 -0.658771
O3    O     O_R   0.683230 0.614620 0.500010 -0.632220
O4    O     O_R   0.316770 0.385380 0.499990 -0.632221
O5    O     O_R   0.499980 0.614680 0.367850 -0.612504
O6    O     O_R   0.500020 0.385320 0.632150 -0.612551
O7    O     O_R   0.500020 0.614680 0.632150 -0.641589
O8    O     O_R   0.499980 0.385320 0.367850 -0.641874
Zn1   Zn    Zn3+2 0.500000 0.653120 0.500000 0.966220
Zn2   Zn    Zn3+2 0.500000 0.346880 0.500000 0.966181
I1    I     I_    0.785712 0.498313 0.745029 -0.386551
I2    I     I_    0.214286 0.501707 0.254967 -0.386619
C31   C     C_2   0.264047 0.493215 0.755631 0.389943
H9    H     H_    0.190473 0.563963 0.769015 0.079923
O9    O     O_2   0.245398 0.409778 0.697708 -0.543389
C32   C     C_2   0.735952 0.506789 0.244368 0.389943
H10   H     H_    0.809523 0.436038 0.230992 0.079921
O10   O     O_2   0.754605 0.590234 0.302282 -0.543391
C33   C     C_2   0.682117 0.143116 0.606351 0.519220
H11   H     H_    0.664612 0.236241 0.638753 0.126471
O11   O     O_2   0.788600 0.099031 0.611154 -0.565167
C34   C     C_2   0.317831 0.856869 0.393693 0.519259
H12   H     H_    0.335253 0.763584 0.361453 0.126529
O12   O     O_2   0.211403 0.901124 0.388734 -0.564840
C35   C     C_2   0.351654 0.146612 0.369513 0.532985
H13   H     H_    0.305050 0.239396 0.381868 0.103506
O13   O     O_2   0.346741 0.104370 0.293302 -0.546076
C36   C     C_2   0.648388 0.853398 0.630455 0.533275
H14   H     H_    0.695313 0.760840 0.618024 0.103213
O14   O     O_2   0.652979 0.895413 0.706722 -0.546313

loop_
_geom_bond_atom_site_label_1
_geom_bond_atom_site_label_2
_ccdc_geom_bond_type
C21   C31   S    
C1    O1    A    
C6    C8    A    
C34   H12   S    
C32   O10   D    
C25   C27   A    
C12   C34   S    
O6    Zn2   S    
C1    O4    A    
C26   C28   A    
O2    Zn2   S    
O5    Zn1   S    
C2    O3    A    
C7    C9    A    
C17   I1    S    
C12   N1    A    
O8    Zn2   S    
C34   O12   D    
C7    H7    S    
C18   I2    S    
C33   H11   S    
C29   H1    S    
C25   C26   A    
C13   C35   S    
C31   H9    S    
C32   H10   S    
C30   H2    S    
C15   C20   S    
C8    H8    S    
C15   O8    A    
C2    O2    A    
C16   C19   S    
C11   C33   S    
C23   C29   A    
C16   O7    A    
O1    Zn1   S    
C3    C28   A    
C17   C19   A    
C20   C22   A    
C5    C7    A    
C23   C25   A    
C21   C23   A    
C14   C36   S    
C11   N2    A    
C11   C14   A    
C4    H4    S    
C33   O11   D    
C24   C30   A    
C3    H3    S    
C31   O9    D    
O4    Zn2   S    
C17   C27   A    
C5    H5    S    
N2    Zn2   S    
C5    C10   A    
C6    C9    A    
C18   C28   A    
C12   C13   A    
C18   C20   A    
O7    Zn1   S    
C35   H13   S    
C22   C24   A    
C16   O6    A    
C3    C29   A    
C36   O14   D    
C15   O5    A    
O3    Zn1   S    
C13   N2    A    
C22   C32   S    
C4    C27   A    
N1    Zn1   S    
C14   N1    A    
C19   C21   A    
C2    C9    S    
C8    C10   A    
C4    C30   A    
C1    C10   S    
C24   C26   A    
C6    H6    S    
C36   H14   S    
C35   O13   D    
