data_mof_unit_59231.cif
_audit_creation_date              2013-03-05T16:43:18-0500
_audit_creation_method            fapswitch 2.2
_symmetry_space_group_name_H-M    P1
_symmetry_Int_Tables_number       1
_space_group_crystal_system       triclinic
_cell_length_a                    15.760223
_cell_length_b                    10.595015
_cell_length_c                    10.000833
_cell_angle_alpha                 90.309055
_cell_angle_beta                  90.300779
_cell_angle_gamma                 92.071111
_cell_volume                      1668.79714139

loop_
_atom_site_label
_atom_site_type_symbol
_atom_site_description
_atom_site_fract_x
_atom_site_fract_y
_atom_site_fract_z
_atom_type_partial_charge
O1    O     O_R   0.500010 0.316790 0.614690 -0.636210
O2    O     O_R   0.500000 0.316760 0.385350 -0.576154
C1    C     C_R   0.498732 0.260573 0.500299 0.877740
O3    O     O_R   0.377150 0.500020 0.614720 -0.660635
O4    O     O_R   0.377140 0.499990 0.385380 -0.532195
C2    C     C_R   0.338331 0.499040 0.499750 0.898350
Zn1   Zn    Zn3+2 0.500010 0.500020 0.653130 0.935907
Zn2   Zn    Zn3+2 0.499990 0.499980 0.346870 1.009521
O5    O     O_R   0.500000 0.683240 0.614650 -0.623129
O6    O     O_R   0.499990 0.683210 0.385310 -0.639535
O7    O     O_R   0.622860 0.500010 0.614620 -0.602344
O8    O     O_R   0.622850 0.499980 0.385280 -0.623601
C3    C     C_R   0.498624 0.739201 0.500634 0.871082
C4    C     C_R   0.661186 0.503641 0.500285 0.873750
C5    C     C_3   0.046053 0.492311 0.636428 -0.124972
C6    C     C_3   0.038451 0.413237 0.389394 0.497646
C7    C     C_3   0.940948 0.417259 0.413853 -0.491081
H1    H     H_    0.913203 0.439426 0.686370 0.192897
H2    H     H_    0.919871 0.333781 0.474145 0.196621
H3    H     H_    0.903058 0.402185 0.321258 0.266105
C8    C     C_1   0.749532 0.518861 0.500740 -0.125344
C9    C     C_3   0.081418 0.516115 0.489587 -0.092577
C10   C     C_3   0.950032 0.518611 0.638545 -0.436320
C11   C     C_3   0.916262 0.536504 0.494497 0.000609
C12   C     C_3   0.954883 0.664717 0.431547 0.412010
C13   C     C_3   0.058651 0.660039 0.448622 0.139674
C14   C     C_1   0.824498 0.531123 0.499083 0.126003
C15   C     C_1   0.173541 0.505683 0.495020 0.105106
C16   C     C_1   0.249005 0.501109 0.498476 -0.042104
H4    H     H_    0.078708 0.560653 0.705346 0.224633
H5    H     H_    0.938851 0.602043 0.702511 0.260164
C17   C     C_R   0.532010 0.066221 0.607862 0.104385
C18   C     C_R   0.491630 0.128111 0.504773 -0.128491
C19   C     C_R   0.436718 0.061482 0.417603 -0.122761
H6    H     H_    0.395925 0.110350 0.350197 0.243468
C20   C     C_R   0.437198 0.930796 0.416136 -0.195138
H7    H     H_    0.398409 0.877744 0.344137 0.181292
C21   C     C_R   0.491004 0.870668 0.505310 -0.107342
C22   C     C_R   0.531459 0.937823 0.608447 0.105242
C23   C     C_3   0.621472 0.934977 0.655745 -0.441043
C24   C     C_3   0.622021 0.078249 0.655019 -0.441368
H8    H     H_    0.626516 0.894775 0.757819 0.206085
H9    H     H_    0.664437 0.894305 0.580214 0.221101
H10   H     H_    0.627320 0.120889 0.756674 0.219333
H11   H     H_    0.665242 0.121345 0.578980 0.207443
C25   C     C_R   0.465908 0.400260 0.067998 0.070623
N1    N     N_R   0.499430 0.499140 0.142800 -0.122250
C26   C     C_R   0.546203 0.589520 0.070593 0.128981
C27   C     C_R   0.545895 0.587942 0.927411 -0.140902
H12   H     H_    0.582590 0.658627 0.872607 0.155386
N2    N     N_R   0.499430 0.499180 0.857150 -0.121742
C28   C     C_R   0.460209 0.405795 0.929139 0.089867
C29   C     C_3   0.371886 0.345253 0.921614 -0.045275
C30   C     C_3   0.385125 0.319553 0.075367 0.419822
N3    N     N_R   0.927184 0.674770 0.288947 0.198964
O9    O     O_R   0.944620 0.777789 0.222785 -0.357678
O10   O     O_R   0.866333 0.601856 0.240005 -0.380866
C31   C     C_3   0.604316 0.687877 0.136374 -0.374863
C32   C     C_3   0.570607 0.821254 0.123434 -0.370917
C33   C     C_3   0.628558 0.916974 0.198013 -0.733332
H13   H     H_    0.632162 0.893081 0.305924 0.247920
H14   H     H_    0.693475 0.918006 0.155024 0.270827
H15   H     H_    0.603404 0.012814 0.188844 0.293281
H16   H     H_    0.567493 0.848464 0.016335 0.218024
H17   H     H_    0.505506 0.823967 0.165126 0.256942
H18   H     H_    0.615641 0.667270 0.241734 0.265983
H19   H     H_    0.667766 0.685174 0.088403 0.211272
C34   C     C_3   0.062967 0.361367 0.699086 -0.421442
C35   C     C_3   0.048856 0.361186 0.851528 -0.364009
C36   C     C_3   0.047530 0.227498 0.907819 -0.697249
H20   H     H_    0.991492 0.172228 0.868540 0.266572
H21   H     H_    0.105789 0.178680 0.879910 0.239305
H22   H     H_    0.043517 0.231282 0.018565 0.302456
H23   H     H_    0.100033 0.419008 0.901205 0.247941
H24   H     H_    0.987731 0.403778 0.877364 0.269482
H25   H     H_    0.020277 0.287407 0.653258 0.261147
H26   H     H_    0.129567 0.336021 0.680956 0.221482
C37   C     C_3   0.299380 0.437959 0.885899 -0.327893
C38   C     C_3   0.319685 0.581912 0.900306 -0.292019
C39   C     C_3   0.238562 0.656047 0.902857 -0.813778
H27   H     H_    0.202412 0.639810 0.808677 0.279476
H28   H     H_    0.198346 0.626922 0.989019 0.292558
H29   H     H_    0.254900 0.758432 0.912274 0.252062
H30   H     H_    0.357434 0.605753 0.991095 0.241958
H31   H     H_    0.358318 0.617067 0.815472 0.250553
H32   H     H_    0.277406 0.421126 0.781728 0.191188
H33   H     H_    0.243019 0.410633 0.946390 0.235750
C40   C     C_3   0.368474 0.226264 0.829725 -0.348135
C41   C     C_3   0.282268 0.153324 0.829806 -0.377531
C42   C     C_3   0.290612 0.018166 0.779223 -0.736456
H34   H     H_    0.316948 0.018291 0.676374 0.263935
H35   H     H_    0.333049 0.965621 0.846325 0.262751
H36   H     H_    0.227120 0.969175 0.777253 0.281553
H37   H     H_    0.253512 0.151865 0.930540 0.274139
H38   H     H_    0.237658 0.201316 0.762409 0.211594
H39   H     H_    0.377591 0.257194 0.725672 0.225852
H40   H     H_    0.421183 0.163126 0.854169 0.235962
N4    N     N_R   0.320583 0.367300 0.166274 0.213861
O11   O     O_R   0.285325 0.292810 0.254604 -0.308261
O12   O     O_R   0.300580 0.485184 0.165484 -0.407685
N5    N     N_R   0.404898 0.187250 0.105045 0.177364
O13   O     O_R   0.483148 0.154196 0.119775 -0.453985
O14   O     O_R   0.344693 0.100257 0.112056 -0.422836
N6    N     N_R   0.059339 0.441219 0.248700 0.171937
O15   O     O_R   0.137074 0.431928 0.208802 -0.339246
O16   O     O_R   0.000992 0.454624 0.157812 -0.404745
N7    N     N_R   0.065299 0.282403 0.414033 0.199773
O17   O     O_R   0.016471 0.187982 0.373053 -0.354037
O18   O     O_R   0.144537 0.259169 0.436810 -0.362756
N8    N     N_R   0.092539 0.744638 0.558773 0.217634
O19   O     O_R   0.045905 0.780818 0.657905 -0.359946
O20   O     O_R   0.174353 0.762185 0.573068 -0.461367
C43   C     C_3   0.107737 0.704368 0.316692 -0.382205
C44   C     C_3   0.123140 0.848758 0.298987 -0.218829
C45   C     C_3   0.159234 0.879607 0.161004 -0.806128
H41   H     H_    0.221373 0.834964 0.148069 0.261725
H42   H     H_    0.114689 0.845443 0.081171 0.283734
H43   H     H_    0.169020 0.983474 0.150968 0.295080
H44   H     H_    0.064349 0.900690 0.311791 0.309991
H45   H     H_    0.169624 0.886988 0.373672 0.267612
H46   H     H_    0.171905 0.665164 0.314202 0.233510
H47   H     H_    0.076609 0.666871 0.225128 0.262272
N9    N     N_R   0.921039 0.777201 0.500311 0.247276
O21   O     O_R   0.862523 0.767966 0.591517 -0.401934
O22   O     O_R   0.945511 0.890229 0.463293 -0.300905

loop_
_geom_bond_atom_site_label_1
_geom_bond_atom_site_label_2
_geom_bond_distance
_ccdc_geom_bond_type
C37   H33   1.108037 S    
N3    O9    1.301044 A    
C40   H39   1.101250 S    
N5    O13   1.301956 A    
C30   N5    1.478236 S    
C11   C14   1.446264 S    
N6    O16   1.301545 A    
C44   C45   1.527860 S    
N9    O21   1.302055 A    
C29   C30   1.577130 S    
Zn1   O7    1.976062 S    
C32   H16   1.111992 S    
C5    H4    1.108224 S    
C33   H15   1.107419 S    
C4    C8    1.395844 S    
C15   C16   1.192388 T    
C39   H29   1.109214 S    
C21   C22   1.388900 A    
O7    C4    1.296087 A    
N9    O22   1.301078 A    
C1    C18   1.404829 S    
C45   H41   1.110711 S    
C25   C28   1.392825 A    
C7    H3    1.106943 S    
C33   H14   1.111562 S    
C19   H6    1.076613 S    
C17   C22   1.360134 A    
C41   H37   1.106791 S    
O5    C3    1.288471 A    
N8    O19   1.301501 A    
C6    N7    1.485361 S    
C31   H18   1.092285 S    
C23   H9    1.112541 S    
C43   H47   1.101969 S    
C6    C7    1.559351 S    
C27   N2    1.360927 A    
C17   C24   1.493433 S    
C36   H20   1.110721 S    
C13   N8    1.500240 S    
C44   H44   1.102273 S    
C37   H32   1.107615 S    
C23   H8    1.111807 S    
C8    C14   1.184131 T    
C32   C33   1.528632 S    
N5    O14   1.301114 A    
C9    C15   1.460806 S    
N7    O18   1.300697 A    
O3    Zn1   1.972057 S    
N6    O15   1.297401 A    
C6    N6    1.475927 S    
C5    C9    1.591627 S    
C7    C11   1.557512 S    
N2    C28   1.359234 A    
C11   C12   1.601758 S    
C39   H28   1.110819 S    
C22   C23   1.494440 S    
C37   C38   1.552805 S    
C34   C35   1.541841 S    
C45   H42   1.110833 S    
C12   C13   1.645970 S    
H1    C10   1.114264 S    
C33   H13   1.111451 S    
O1    C1    1.286647 A    
C10   H5    1.108155 S    
C41   H38   1.109829 S    
C38   H30   1.105959 S    
C42   H35   1.110775 S    
N1    C26   1.394217 A    
Zn2   O8    1.972057 S    
C45   H43   1.110855 S    
C25   C30   1.510143 S    
C36   H22   1.110280 S    
C18   C19   1.395912 A    
C35   H23   1.108807 S    
C12   N9    1.489524 S    
C3    C21   1.402923 S    
O3    C2    1.299403 A    
C23   C24   1.517740 S    
O8    C4    1.296115 A    
N4    O11   1.301138 A    
N4    O12   1.299206 A    
N3    O10   1.301348 A    
C24   H10   1.111774 S    
N7    O17   1.302900 A    
C38   H31   1.105300 S    
C28   C29   1.512813 S    
C42   H36   1.110516 S    
C43   C44   1.551487 S    
C34   H26   1.108402 S    
Zn1   O5    1.981038 S    
C25   N1    1.372462 A    
C20   H7    1.083651 S    
C6    C9    1.605749 S    
O1    Zn1   1.976987 S    
O2    Zn2   1.981038 S    
C12   N3    1.494713 S    
C39   H27   1.107640 S    
O6    C3    1.294745 A    
O4    Zn2   1.976060 S    
C26   C31   1.508266 S    
C34   H25   1.109751 S    
Zn2   N1    2.040813 S    
C17   C18   1.388683 A    
C20   C21   1.399114 A    
O2    C1    1.297341 A    
C31   C32   1.533444 S    
C40   H40   1.112258 S    
Zn1   N2    2.040504 S    
C32   H17   1.110789 S    
C42   H34   1.111172 S    
O4    C2    1.299812 A    
C26   C27   1.431927 A    
C5    C34   1.556554 S    
C5    C10   1.548857 S    
C7    H2    1.114811 S    
C35   H24   1.109597 S    
C29   C40   1.555253 S    
C19   C20   1.384913 A    
C35   C36   1.526504 S    
N8    O20   1.303084 A    
C13   C43   1.597193 S    
C10   C11   1.548136 S    
C29   C37   1.574407 S    
C38   C39   1.524766 S    
C31   H19   1.112618 S    
C2    C16   1.408751 S    
C43   H46   1.107423 S    
C40   C41   1.538577 S    
Zn2   O6    1.976987 S    
C27   H12   1.082675 S    
C9    C13   1.632964 S    
C24   H11   1.112418 S    
C30   N4    1.469389 S    
C36   H21   1.106328 S    
C41   C42   1.526538 S    
C44   H45   1.108235 S    
