data_mof_unit_32618.cif
_audit_creation_date              2012-12-10T17:12:04-0500
_audit_creation_method            fapswitch 2.2
_symmetry_space_group_name_H-M    P1
_symmetry_Int_Tables_number       1
_space_group_crystal_system       triclinic
_cell_length_a                    11.657012
_cell_length_b                    13.020474
_cell_length_c                    15.829193
_cell_angle_alpha                 92.226661
_cell_angle_beta                  73.264114
_cell_angle_gamma                 100.458736
_cell_volume                      2262.33034197

loop_
_atom_site_label
_atom_site_type_symbol
_atom_type_description
_atom_site_fract_x
_atom_site_fract_y
_atom_site_fract_z
_atom_type_partial_charge
C1    C     C_R   0.522469 0.700481 0.499128 0.816895
C2    C     C_R   0.477536 0.299517 0.500862 0.816877
C3    C     C_R   0.366956 0.418401 0.080003 -0.038559
C4    C     C_R   0.633039 0.581601 0.920000 -0.038559
C5    C     C_R   0.277569 0.413006 0.036906 -0.221795
C6    C     C_R   0.722426 0.586993 0.963095 -0.221796
C7    C     C_R   0.461792 0.185858 0.505619 -0.141507
C8    C     C_R   0.538222 0.814138 0.494349 -0.141501
C9    C     C_R   0.654464 0.979882 0.428791 -0.065525
C10   C     C_R   0.345536 0.020098 0.571123 -0.065522
C11   C     C_R   0.643086 0.871592 0.436528 -0.096064
C12   C     C_R   0.356902 0.128386 0.563400 -0.096084
C13   C     C_R   0.445995 0.864151 0.546582 -0.086198
C14   C     C_R   0.554035 0.135858 0.453384 -0.086186
C15   C     C_R   0.446946 0.970563 0.530065 0.046324
C16   C     C_R   0.553078 0.029437 0.469880 0.046318
C17   C     C_R   0.942799 0.601170 0.577887 -0.294363
C18   C     C_R   0.057200 0.398830 0.422113 -0.294364
C19   C     C_R   0.823880 0.590892 0.570839 0.105612
C20   C     C_R   0.176119 0.409107 0.429161 0.105623
C21   C     C_R   0.858150 0.455335 0.467212 0.072150
C22   C     C_R   0.141849 0.544664 0.532789 0.072156
C23   C     C_R   0.425319 0.493823 0.668857 0.813546
C24   C     C_R   0.574681 0.506174 0.331143 0.813543
C25   C     C_R   0.978639 0.463000 0.471932 0.059009
C26   C     C_R   0.021361 0.536999 0.528069 0.059004
C27   C     C_R   0.377790 0.485615 0.766577 -0.115674
C28   C     C_R   0.622208 0.514378 0.233423 -0.115667
C29   C     C_R   0.217148 0.438137 0.904124 -0.047353
C30   C     C_R   0.782850 0.561850 0.095874 -0.047360
C31   C     C_R   0.252422 0.459884 0.812669 -0.074227
C32   C     C_R   0.747577 0.540098 0.187328 -0.074205
C33   C     C_R   0.463130 0.499969 0.814516 -0.226683
C34   C     C_R   0.536866 0.500033 0.185485 -0.226688
C35   C     C_R   0.428797 0.493621 0.906850 0.076493
C36   C     C_R   0.571198 0.506379 0.093151 0.076491
C37   C     C_R   0.306239 0.450859 0.950444 0.085545
C38   C     C_R   0.693757 0.549137 0.049556 0.085544
C39   C     C_R   0.515874 0.518940 0.955670 0.018962
C40   C     C_R   0.484120 0.481062 0.044332 0.018962
Cu1   Cu    Cu3+1 0.386820 0.492450 0.493500 0.978477
Cu2   Cu    Cu3+1 0.613180 0.507550 0.506500 0.978480
H1    H     H_    0.187377 0.369964 0.068681 0.164728
H2    H     H_    0.812619 0.630034 0.931320 0.164724
N1    N     N_R   0.216750 0.481110 0.483710 -0.190893
N2    N     N_R   0.783250 0.518890 0.516290 -0.190896
O1    O     O_R   0.419950 0.645670 0.495380 -0.583095
O2    O     O_R   0.580050 0.354330 0.504620 -0.583089
O3    O     O_R   0.611110 0.658410 0.506370 -0.579767
O4    O     O_R   0.388890 0.341590 0.493630 -0.579771
O5    O     O_R   0.350820 0.490050 0.621260 -0.570481
O6    O     O_R   0.649180 0.509950 0.378740 -0.570478
O7    O     O_R   0.541970 0.502800 0.632250 -0.588619
O8    O     O_R   0.458030 0.497200 0.367750 -0.588626
H3    H     H_    0.236066 0.359075 0.391018 0.152611
H4    H     H_    0.763934 0.640925 0.608982 0.152615
H5    H     H_    0.973007 0.658895 0.621696 0.168055
H6    H     H_    0.026992 0.341104 0.378305 0.168040
H7    H     H_    0.441801 0.490195 0.221623 0.172265
H8    H     H_    0.558195 0.509813 0.778379 0.172263
C41   C     C_1   0.840662 0.549569 0.232760 0.326504
N3    N     N_1   0.915580 0.557187 0.268436 -0.260381
C42   C     C_1   0.159338 0.450390 0.767233 0.326436
N4    N     N_1   0.084422 0.442754 0.731554 -0.260357
C43   C     C_1   0.089783 0.399867 0.949388 0.253336
N5    N     N_1   0.988382 0.369106 0.985314 -0.256474
C44   C     C_1   0.910216 0.600113 0.050609 0.253342
N6    N     N_1   0.011617 0.630869 0.014682 -0.256476
C45   C     C_1   0.338530 0.346545 0.153712 0.241139
N7    N     N_1   0.315513 0.288618 0.212351 -0.281851
C46   C     C_1   0.661465 0.653460 0.846292 0.241134
N8    N     N_1   0.684482 0.711388 0.787654 -0.281841
C47   C     C_1   0.640739 0.193574 0.377702 0.249835
N9    N     N_1   0.708651 0.240293 0.317490 -0.269153
C48   C     C_1   0.359297 0.806460 0.622281 0.249850
N10   N     N_1   0.291384 0.759766 0.682507 -0.269141
C49   C     C_1   0.260209 0.180610 0.615744 0.277441
N11   N     N_1   0.183165 0.221995 0.657435 -0.249143
C50   C     C_1   0.739725 0.819341 0.384143 0.277408
N12   N     N_1   0.816723 0.777930 0.342416 -0.249191
C51   C     C_1   0.773963 0.038163 0.383418 0.268655
N13   N     N_1   0.869691 0.083722 0.347529 -0.250956
C52   C     C_1   0.226018 0.961787 0.616423 0.268663
N14   N     N_1   0.130279 0.916200 0.652251 -0.251013
H9    H     H_    0.175710 0.600876 0.576014 0.141254
H10   H     H_    0.824288 0.399122 0.423989 0.141260

loop_
_geom_bond_atom_site_label_1
_geom_bond_atom_site_label_2
_ccdc_geom_bond_type
C19   H4    S    
C24   O6    A    
C8    C13   A    
C5    C37   A    
C1    C8    S    
Cu1   Cu2   S    
C2    C7    S    
C17   H5    S    
C51   N13   T    
C19   N2    A    
C49   N11   T    
C27   C33   A    
C17   C26   A    
C3    C45   S    
C9    C16   A    
C32   C41   S    
C10   C15   A    
Cu2   O7    S    
Cu2   N2    S    
C24   O8    A    
C15   C16   A    
C10   C52   S    
C30   C38   A    
C47   N9    T    
C22   H9    S    
C2    O4    A    
C33   C35   A    
C18   H6    S    
C7    C14   A    
C13   C48   S    
C6    C38   A    
C23   C27   S    
C24   C28   S    
C34   C36   A    
C20   N1    A    
C5    H1    S    
C28   C34   A    
C6    H2    S    
C45   N7    T    
C18   C25   A    
C20   H3    S    
C10   C12   A    
C23   O7    A    
C7    C12   A    
C27   C31   A    
C44   N6    T    
C14   C47   S    
C31   C42   S    
C28   C32   A    
C4    C6    A    
C39   C40   A    
C1    O1    A    
C2    O2    A    
C25   C26   A    
C42   N4    T    
C35   C39   A    
C48   N10   T    
C23   O5    A    
C52   N14   T    
C4    C39   A    
C36   C40   A    
C12   C49   S    
Cu1   O1    S    
Cu2   O2    S    
C9    C11   A    
C11   C50   S    
C29   C43   S    
C3    C40   A    
C33   H8    S    
C13   C15   A    
C34   H7    S    
C14   C16   A    
C29   C37   A    
Cu1   O4    S    
C21   N2    A    
C21   C25   A    
C21   H10   S    
C35   C37   A    
C30   C44   S    
C3    C5    A    
C36   C38   A    
C46   N8    T    
C29   C31   A    
C30   C32   A    
C8    C11   A    
C17   C19   A    
C18   C20   A    
C41   N3    T    
Cu1   O8    S    
Cu2   O3    S    
C50   N12   T    
C22   N1    A    
C43   N5    T    
C22   C26   A    
C9    C51   S    
Cu1   N1    S    
C1    O3    A    
Cu1   O5    S    
C4    C46   S    
Cu2   O6    S    
