data_mof_unit_45106.cif
_audit_creation_date              2012-12-10T16:50:19-0500
_audit_creation_method            fapswitch 2.2
_symmetry_space_group_name_H-M    P1
_symmetry_Int_Tables_number       1
_space_group_crystal_system       triclinic
_cell_length_a                    23.449078
_cell_length_b                    8.669604
_cell_length_c                    7.498364
_cell_angle_alpha                 103.424312
_cell_angle_beta                  94.640392
_cell_angle_gamma                 93.992272
_cell_volume                      1471.7070536

loop_
_atom_site_label
_atom_site_type_symbol
_atom_type_description
_atom_site_fract_x
_atom_site_fract_y
_atom_site_fract_z
_atom_type_partial_charge
C1    C     C_R   0.497330 0.199515 0.452951 0.856693
C2    C     C_R   0.501732 0.800437 0.547258 0.853247
C3    C     C_R   0.240731 0.617063 0.391195 0.268276
C4    C     C_R   0.764463 0.423409 0.606899 0.271367
C5    C     C_R   0.300399 0.609364 0.389621 0.189408
C6    C     C_R   0.704590 0.419350 0.613486 0.206291
C7    C     C_R   0.329632 0.527141 0.506595 -0.190883
C8    C     C_R   0.671146 0.489117 0.492862 -0.213526
C9    C     C_R   0.299368 0.462571 0.629769 -0.276837
C10   C     C_R   0.697700 0.555516 0.363808 -0.262832
C11   C     C_R   0.240319 0.469866 0.630831 0.316132
C12   C     C_R   0.756944 0.562188 0.359650 0.315504
C13   C     C_R   0.210729 0.544634 0.509502 0.161813
C14   C     C_R   0.790563 0.497509 0.482176 0.158867
C15   C     C_2   0.494478 0.030874 0.427655 -0.335725
C16   C     C_2   0.502960 0.969044 0.573385 -0.345275
C17   C     C_R   0.391404 0.507924 0.502313 0.846453
C18   C     C_R   0.608750 0.494945 0.497847 0.846784
C19   C     C_R   0.884408 0.630080 0.603800 0.626885
C20   C     C_R   0.116698 0.421733 0.376269 0.629434
C21   C     C_R   0.876135 0.394403 0.359495 0.637726
C22   C     C_R   0.125079 0.657449 0.620724 0.639463
C23   C     C_R   0.936020 0.400226 0.359056 -0.031491
C24   C     C_R   0.065122 0.654237 0.617736 -0.030022
C25   C     C_R   0.970363 0.524087 0.485861 -0.011401
C26   C     C_R   0.030746 0.530924 0.490179 -0.011889
C27   C     C_R   0.944478 0.640555 0.609119 -0.028584
C28   C     C_R   0.056617 0.413870 0.367626 -0.027687
C29   C     C_R   0.962269 0.284971 0.236450 -0.127419
C30   C     C_R   0.038848 0.770252 0.739282 -0.128494
C31   C     C_R   0.021978 0.291704 0.240708 -0.140467
C32   C     C_R   0.979121 0.763484 0.735007 -0.140651
Cu1   Cu    Cu3+1 0.506340 0.517380 0.684380 1.046102
Cu2   Cu    Cu3+1 0.493660 0.482620 0.315620 1.039541
H1    H     H_    0.936809 0.188884 0.137431 0.203179
H2    H     H_    0.064318 0.866208 0.838488 0.202144
H3    H     H_    0.040864 0.200579 0.144836 0.190993
H4    H     H_    0.960235 0.854440 0.831084 0.190765
H5    H     H_    0.321357 0.402889 0.722474 0.185952
H6    H     H_    0.672360 0.605413 0.268060 0.213796
H7    H     H_    0.485561 0.957351 0.288248 0.182036
H8    H     H_    0.511483 0.042509 0.713182 0.199490
N1    N     N_R   0.851771 0.507953 0.481069 -0.447754
N2    N     N_R   0.149416 0.541846 0.501700 -0.445783
N3    N     N_2   0.484110 0.456420 0.038520 0.145913
N4    N     N_2   0.515890 0.543580 0.961480 0.148245
O1    O     O_R   0.504120 0.286130 0.619770 -0.513357
O2    O     O_R   0.495880 0.713870 0.380230 -0.542146
O3    O     O_R   0.493410 0.256770 0.308360 -0.623834
O4    O     O_R   0.506590 0.743230 0.691640 -0.648467
O5    O     O_R   0.423230 0.514630 0.655730 -0.569145
O6    O     O_R   0.576770 0.485370 0.344270 -0.536706
O7    O     O_R   0.412530 0.485280 0.344320 -0.598368
O8    O     O_R   0.587470 0.514720 0.655680 -0.562253
O9    O     O_2   0.858707 0.740297 0.720627 -0.469985
O10   O     O_2   0.142365 0.310163 0.260995 -0.474863
O11   O     O_2   0.842452 0.276049 0.240512 -0.457298
O12   O     O_2   0.158855 0.774437 0.741495 -0.470136
Br1   Br    Br    0.199175 0.726248 0.233120 -0.331892
Br2   Br    Br    0.811539 0.326666 0.765443 -0.321865
Br3   Br    Br    0.341161 0.720402 0.235933 -0.485191
Br4   Br    Br    0.669410 0.309667 0.779048 -0.425867
Br5   Br    Br    0.200549 0.372477 0.795868 -0.399160
Br6   Br    Br    0.790973 0.664442 0.188063 -0.363176
O13   O     O_3   0.457868 0.325927 0.917308 -0.503583
C33   C     C_3   0.405426 0.280661 0.977007 0.148574
H9    H     H_    0.377213 0.379980 0.993168 0.171160
H10   H     H_    0.411950 0.242962 0.107089 0.182644
C34   C     C_3   0.376082 0.136165 0.832814 -0.468535
H11   H     H_    0.368316 0.167391 0.697931 0.235656
H12   H     H_    0.404850 0.038186 0.814908 0.238645
C35   C     C_3   0.319264 0.076633 0.890368 -0.720081
H13   H     H_    0.326828 0.035979 0.019550 0.273753
H14   H     H_    0.298413 0.974886 0.780447 0.285171
H15   H     H_    0.289975 0.172877 0.912759 0.284681
O14   O     O_3   0.559134 0.631803 0.079402 -0.493295
C36   C     C_3   0.571086 0.776413 0.029964 0.163048
H16   H     H_    0.531062 0.837162 0.020704 0.142147
H17   H     H_    0.591422 0.756114 0.899292 0.183909
C37   C     C_3   0.614038 0.885856 0.177876 -0.444697
H18   H     H_    0.598624 0.895586 0.315895 0.237392
H19   H     H_    0.656159 0.834932 0.177890 0.251519
C38   C     C_3   0.622728 0.051957 0.142380 -0.767551
H20   H     H_    0.640103 0.044986 0.007554 0.286218
H21   H     H_    0.653707 0.128669 0.252632 0.275056
H22   H     H_    0.581453 0.107283 0.141914 0.256105

loop_
_geom_bond_atom_site_label_1
_geom_bond_atom_site_label_2
_ccdc_geom_bond_type
C33   H10   S    
C16   H8    S    
C20   O10   S    
C17   O5    A    
N4    O14   S    
C18   O6    A    
C36   H16   S    
C23   C29   A    
C24   C26   A    
C11   Br5   S    
C35   H15   S    
C12   Br6   S    
C33   C34   S    
C15   C16   D    
C9    H5    S    
C10   H6    S    
C34   H12   S    
C2    O4    A    
C21   N1    A    
C22   N2    A    
C7    C17   S    
C1    C15   S    
C32   H4    S    
C19   C27   A    
C3    C13   A    
C35   H13   S    
C33   H9    S    
Cu1   N4    S    
C37   C38   S    
C20   N2    A    
C19   N1    A    
C36   H17   S    
O14   C36   S    
C15   H7    S    
C35   H14   S    
C5    C7    A    
C1    O1    A    
C6    C8    A    
C20   C28   A    
C2    O2    A    
C25   C26   A    
N3    N4    D    
C8    C18   S    
C31   H3    S    
C34   C35   S    
C21   O11   S    
C38   H20   S    
C4    Br2   S    
Cu1   Cu2   S    
C5    Br3   S    
Cu2   N3    S    
C9    C11   A    
C10   C12   A    
C37   H19   S    
C38   H21   S    
C12   C14   A    
C21   C23   A    
N3    O13   S    
C25   C27   A    
Cu1   O1    S    
C22   C24   A    
C4    C6    A    
Cu2   O2    S    
C17   O7    A    
C2    C16   S    
C36   C37   S    
C19   O9    S    
Cu1   O8    S    
C7    C9    A    
Cu2   O3    S    
C27   C32   A    
Cu2   O6    S    
C28   C31   A    
C37   H18   S    
C3    C5    A    
C22   O12   S    
Cu1   O5    S    
C29   H1    S    
C26   C28   A    
C30   H2    S    
C6    Br4   S    
Cu1   O4    S    
C29   C31   A    
C30   C32   A    
C11   C13   A    
C23   C25   A    
C4    C14   A    
C34   H11   S    
C24   C30   A    
C18   O8    A    
C38   H22   S    
Cu2   O7    S    
C8    C10   A    
O13   C33   S    
C1    O3    A    
C13   N2    S    
C14   N1    S    
C3    Br1   S    
