data_mof_unit_42448.cif
_audit_creation_date              2012-12-11T17:25:07-0500
_audit_creation_method            fapswitch 2.2
_symmetry_space_group_name_H-M    P1
_symmetry_Int_Tables_number       1
_space_group_crystal_system       triclinic
_cell_length_a                    6.950973
_cell_length_b                    20.507619
_cell_length_c                    24.473989
_cell_angle_alpha                 90.203805
_cell_angle_beta                  90.667384
_cell_angle_gamma                 89.586675
_cell_volume                      3488.36740345

loop_
_atom_site_label
_atom_site_type_symbol
_atom_type_description
_atom_site_fract_x
_atom_site_fract_y
_atom_site_fract_z
_atom_type_partial_charge
O1    O     O_R   0.507280 0.423750 0.460310 -0.520844
O2    O     O_R   0.171030 0.555650 0.437630 -0.536575
O3    O     O_R   0.004080 0.576250 0.539690 -0.536468
C1    C     C_R   0.338900 0.575660 0.421769 0.728320
O4    O     O_R   0.177330 0.422980 0.453960 -0.544378
O5    O     O_R   0.010420 0.442640 0.556140 -0.537543
C2    C     C_R   0.345817 0.398812 0.443600 0.731715
O6    O     O_R   0.500930 0.557360 0.443860 -0.532324
O7    O     O_3   0.340310 0.506600 0.533500 -0.371777
V1    V     V_3+5 0.064140 0.498780 0.493780 1.430611
O8    O     O_R   0.680890 0.444350 0.562370 -0.539617
C3    C     C_R   0.850673 0.424552 0.578211 0.720799
O9    O     O_R   0.674590 0.577020 0.546040 -0.539340
C4    C     C_R   0.843511 0.600730 0.557233 0.702248
V2    V     V_3+5 0.564550 0.501220 0.506220 1.436870
O10   O     O_3   0.838250 0.493400 0.466500 -0.358538
C5    C     C_R   0.974642 0.836545 0.912299 -0.069801
C6    C     C_R   0.853847 0.661318 0.590108 -0.066132
C7    C     C_R   0.982084 0.718513 0.910301 -0.201285
C8    C     C_R   0.991050 0.776833 0.940114 0.083990
C9    C     C_R   0.960076 0.836310 0.854931 -0.259041
C10   C     C_R   0.971535 0.777759 0.823776 0.080292
C11   C     C_R   0.967180 0.717720 0.852609 0.072892
C12   C     C_R   0.976283 0.777365 0.764919 -0.015207
C13   C     C_R   0.934549 0.718195 0.736327 0.011249
C14   C     C_R   0.914314 0.660502 0.766844 -0.167508
C15   C     C_R   0.942854 0.658263 0.823680 0.064191
C16   C     C_R   0.030684 0.832699 0.733470 0.003114
C17   C     C_R   0.979000 0.835105 0.677152 0.174222
C18   C     C_R   0.911774 0.778536 0.649607 0.094858
C19   C     C_R   0.912394 0.718091 0.677918 -0.006513
C20   C     C_R   0.857747 0.779539 0.593120 0.245345
C21   C     C_R   0.829012 0.721139 0.564471 -0.251112
C22   C     C_R   0.892711 0.659653 0.646421 -0.200973
H1    H     H_    0.912874 0.611877 0.663833 0.095631
H2    H     H_    0.792957 0.722645 0.521267 0.110460
H3    H     H_    0.986028 0.673684 0.933393 0.111798
H4    H     H_    0.936166 0.882344 0.835119 0.136636
H5    H     H_    0.873345 0.616331 0.746664 0.117008
C23   C     C_R   0.729595 0.252231 0.718194 0.090335
C24   C     C_R   0.883966 0.294659 0.706393 0.064613
C25   C     C_R   0.052348 0.291672 0.738360 -0.206366
H6    H     H_    0.170423 0.324251 0.730094 0.131401
C26   C     C_R   0.070928 0.246979 0.781224 -0.189352
H7    H     H_    0.203043 0.245849 0.805157 0.143159
C27   C     C_R   0.921342 0.204139 0.793198 0.073640
C28   C     C_R   0.749574 0.206589 0.761588 0.172407
C29   C     C_1   0.872830 0.341388 0.661574 -0.049201
C30   C     C_1   0.944161 0.158508 0.838467 -0.046780
C31   C     C_1   0.959796 0.120594 0.876351 -0.197953
C32   C     C_1   0.862740 0.379614 0.623798 -0.199438
C33   C     C_R   0.595519 0.759314 0.227108 -0.143526
H8    H     H_    0.736590 0.766148 0.209739 0.132380
C34   C     C_R   0.437656 0.795300 0.206836 0.075446
C35   C     C_R   0.256424 0.785850 0.230183 -0.157814
H9    H     H_    0.132468 0.812994 0.215194 0.124424
C36   C     C_R   0.233340 0.741399 0.273192 -0.182362
H10   H     H_    0.092481 0.735588 0.290800 0.160875
C37   C     C_R   0.390426 0.704942 0.293388 0.079238
C38   C     C_R   0.573225 0.714129 0.269802 0.204360
C39   C     C_1   0.460465 0.841280 0.161897 -0.050655
C40   C     C_1   0.364173 0.659052 0.338368 -0.051195
C41   C     C_1   0.348398 0.620908 0.376119 -0.190843
C42   C     C_1   0.475520 0.879335 0.124053 -0.190100
C43   C     C_R   0.470534 0.162653 0.087695 -0.093376
C44   C     C_R   0.350183 0.338820 0.410245 -0.033466
C45   C     C_R   0.474533 0.280596 0.090851 -0.133195
C46   C     C_R   0.484720 0.222857 0.060772 0.184867
C47   C     C_R   0.448080 0.161129 0.144655 -0.252044
C48   C     C_R   0.435826 0.219558 0.175942 0.088342
C49   C     C_R   0.449799 0.279531 0.147658 0.078721
C50   C     C_R   0.407461 0.220716 0.233981 0.076873
C51   C     C_R   0.407287 0.281682 0.263034 0.056061
C52   C     C_R   0.408170 0.339429 0.232036 -0.198215
C53   C     C_R   0.432678 0.338381 0.175863 -0.187161
C54   C     C_R   0.368610 0.163418 0.263418 -0.188846
C55   C     C_R   0.323268 0.165758 0.318414 -0.187482
C56   C     C_R   0.328099 0.224385 0.347390 0.115767
C57   C     C_R   0.386224 0.282853 0.321506 0.036180
C58   C     C_R   0.273263 0.224604 0.402288 -0.162238
C59   C     C_R   0.275747 0.281947 0.432524 -0.228542
C60   C     C_R   0.416683 0.339099 0.355900 0.132407
H11   H     H_    0.434373 0.384322 0.154086 0.122949
H12   H     H_    0.225022 0.281522 0.474231 0.120765
H13   H     H_    0.283918 0.120873 0.338593 0.123540
H14   H     H_    0.484418 0.326692 0.069520 0.132231
H15   H     H_    0.442805 0.113591 0.163163 0.105750
H16   H     H_    0.378882 0.386344 0.249866 0.133886
H17   H     H_    0.360898 0.116042 0.244472 0.122965
H18   H     H_    0.223422 0.180420 0.421574 0.122368
O11   O     O_R   0.323320 0.942780 0.056240 -0.535501
O12   O     O_R   0.647300 0.077050 0.046060 -0.538474
O13   O     O_R   0.813840 0.057330 0.943840 -0.534475
C61   C     C_R   0.478679 0.101221 0.056437 0.704658
O14   O     O_R   0.653250 0.944380 0.062400 -0.534996
O15   O     O_R   0.819830 0.923720 0.960300 -0.534123
C62   C     C_R   0.485296 0.924411 0.078287 0.721411
O16   O     O_R   0.317330 0.076390 0.039790 -0.534791
O17   O     O_3   0.483830 0.993470 0.966560 -0.366590
V3    V     V_3+5 0.760140 0.001210 0.006210 1.415678
O18   O     O_R   0.149290 0.922840 0.953850 -0.543831
C63   C     C_R   0.980561 0.899209 0.942651 0.687537
O19   O     O_R   0.143340 0.055500 0.937510 -0.538752
C64   C     C_R   0.973458 0.075557 0.921857 0.726557
V4    V     V_3+5 0.259690 0.998600 0.993650 1.402576
O20   O     O_3   0.986130 0.006520 0.033440 -0.363233
C65   C     C_3   0.939426 0.593230 0.854362 -0.363602
C66   C     C_3   0.919692 0.531001 0.819388 -0.323510
C67   C     C_3   0.933103 0.469793 0.854604 -0.749612
H19   H     H_    0.075014 0.467179 0.875861 0.227909
H20   H     H_    0.816926 0.469894 0.885393 0.228957
H21   H     H_    0.917132 0.425862 0.828302 0.224201
H22   H     H_    0.777744 0.530966 0.797979 0.193946
H23   H     H_    0.036477 0.528862 0.788749 0.196582
H24   H     H_    0.076408 0.588788 0.878037 0.176354
H25   H     H_    0.818008 0.594558 0.883546 0.173465
N1    N     N_3   0.829441 0.839552 0.564167 -0.623954
H26   H     H_    0.922744 0.839915 0.530956 0.229483
H27   H     H_    0.688359 0.840652 0.548867 0.222051
N2    N     N_3   0.595249 0.162684 0.772929 -0.692620
H28   H     H_    0.551910 0.170164 0.813250 0.233165
H29   H     H_    0.647005 0.114881 0.769310 0.233227
C68   C     C_3   0.543047 0.256463 0.685444 -0.338654
C69   C     C_3   0.559147 0.220207 0.630799 -0.290327
C70   C     C_3   0.374165 0.227370 0.597020 -0.770856
H30   H     H_    0.250299 0.207265 0.619606 0.235842
H31   H     H_    0.345610 0.279562 0.587688 0.225667
H32   H     H_    0.388894 0.200291 0.557902 0.216797
H33   H     H_    0.680558 0.239752 0.606852 0.196130
H34   H     H_    0.587216 0.167581 0.638536 0.204766
H35   H     H_    0.422099 0.235602 0.708661 0.212517
H36   H     H_    0.504422 0.308475 0.678335 0.164500
N3    N     N_3   0.738284 0.678051 0.288484 -0.690261
H37   H     H_    0.758490 0.687640 0.330138 0.227685
H38   H     H_    0.709713 0.628350 0.283788 0.237276
N4    N     N_3   0.535792 0.392787 0.340373 -0.678276
H39   H     H_    0.635667 0.378986 0.310855 0.243768
H40   H     H_    0.449413 0.431849 0.327503 0.208133
N5    N     N_3   0.508376 0.226533 0.002770 -0.672366
H41   H     H_    0.392330 0.203009 0.983836 0.222885
H42   H     H_    0.634482 0.201449 0.992542 0.227422
N6    N     N_3   0.009065 0.893563 0.646441 -0.625156
H43   H     H_    0.154873 0.905464 0.646626 0.228800
H44   H     H_    0.926468 0.931264 0.663126 0.232523
C71   C     C_3   0.011828 0.773140 0.001738 -0.371255
C72   C     C_3   0.817726 0.758623 0.027939 -0.298498
C73   C     C_3   0.837683 0.753133 0.089870 -0.762101
H45   H     H_    0.943596 0.714446 0.100990 0.231608
H46   H     H_    0.884936 0.800329 0.107757 0.229062
H47   H     H_    0.696376 0.740137 0.107257 0.221764
H48   H     H_    0.713318 0.798299 0.017984 0.196678
H49   H     H_    0.759902 0.711986 0.011551 0.191155
H50   H     H_    0.117445 0.734099 0.012481 0.170500
H51   H     H_    0.070597 0.818999 0.019202 0.173824
C74   C     C_3   0.186079 0.879271 0.754970 -0.335838
C75   C     C_3   0.121832 0.951275 0.760108 -0.342843
C76   C     C_3   0.236240 0.986835 0.804604 -0.736041
H52   H     H_    0.206184 0.965734 0.845290 0.226968
H53   H     H_    0.392913 0.983047 0.796557 0.223521
H54   H     H_    0.194757 0.039183 0.805015 0.223146
H55   H     H_    0.147967 0.977206 0.721228 0.196212
H56   H     H_    0.965777 0.955453 0.768804 0.188564
H57   H     H_    0.247298 0.861513 0.794306 0.191105
H58   H     H_    0.311222 0.876732 0.727162 0.160884

loop_
_geom_bond_atom_site_label_1
_geom_bond_atom_site_label_2
_ccdc_geom_bond_type
C13   C19   A    
C23   C28   A    
C49   C53   A    
C35   H9    S    
C31   C64   S    
C76   H52   S    
O15   C63   A    
C68   H36   S    
C51   C52   A    
C4    C6    S    
O2    C1    A    
C73   H45   S    
C20   N1    S    
C1    O6    A    
C3    C32   S    
C21   H2    S    
C71   C72   S    
C68   C69   S    
C55   C56   A    
C33   H8    S    
C1    C41   S    
C14   C15   A    
O18   C63   A    
O16   V4    S    
C16   C17   A    
C73   H46   S    
C67   H20   S    
O5    C3    A    
C18   C19   A    
C56   C58   A    
C14   H5    S    
C36   C37   A    
C61   O16   A    
V2    O10   S    
C5    C8    A    
C66   C67   S    
C22   H1    S    
C24   C25   A    
C66   H23   S    
O11   V4    S    
C7    H3    S    
O9    C4    A    
C27   C28   A    
O8    V2    S    
C29   C32   T    
C9    H4    S    
C7    C8    A    
N2    H29   S    
C37   C40   S    
C16   C74   S    
C65   C66   S    
C48   C49   A    
O1    V2    S    
C11   C15   A    
C17   C18   A    
C33   C38   A    
O7    V1    S    
C45   C49   A    
C47   H15   S    
C50   C54   A    
C54   H17   S    
C71   H50   S    
C33   C34   A    
C55   H13   S    
C37   C38   A    
C76   H53   S    
O1    C2    A    
C9    C10   A    
C58   H18   S    
C25   C26   A    
O13   C64   A    
C26   C27   A    
C54   C55   A    
O18   V4    S    
O17   V4    S    
C52   C53   A    
C45   C46   A    
C73   H47   S    
C12   C13   A    
N4    H40   S    
C67   H21   S    
O4    C2    A    
C56   C57   A    
C58   C59   A    
C74   H57   S    
C13   C14   A    
C5    C9    A    
C66   H22   S    
C39   C42   T    
C7    C11   A    
C5    C63   S    
C40   C41   T    
C44   C60   A    
O17   V3    S    
C27   C30   S    
O9    V2    S    
C15   C65   S    
N5    H41   S    
C43   C46   A    
O12   C61   A    
C51   C57   A    
C19   C22   A    
C69   H34   S    
O19   V4    S    
O11   C62   A    
C6    C22   A    
O13   V3    S    
C65   H24   S    
O3    C4    A    
C72   H49   S    
C71   H51   S    
C43   C61   S    
C75   H55   S    
O6    V2    S    
C35   C36   A    
N3    H37   S    
C10   C12   A    
C25   H6    S    
O2    V1    S    
C74   C75   S    
C59   H12   S    
N2    H28   S    
O12   V3    S    
C70   H31   S    
C72   C73   S    
C23   C68   S    
C34   C35   A    
C75   C76   S    
C45   H14   S    
C68   H35   S    
O14   V3    S    
C42   C62   S    
C26   H7    S    
C12   C16   A    
C50   C51   A    
O5    V1    S    
C57   C60   A    
C48   C50   A    
O8    C3    A    
O14   C62   A    
C34   C39   S    
C74   H58   S    
C76   H54   S    
V4    O20   S    
V3    O20   S    
C8    C71   S    
C20   C21   A    
N1    H27   S    
O7    V2    S    
O4    V1    S    
O3    V1    S    
V1    O10   S    
N1    H26   S    
C44   C59   A    
C18   C20   A    
N5    H42   S    
C53   H11   S    
C36   H10   S    
C70   H30   S    
C70   H32   S    
C43   C47   A    
C17   N6    S    
O15   V3    S    
C24   C29   S    
C69   H33   S    
N6    H44   S    
C60   N4    S    
C47   C48   A    
C6    C21   A    
C65   H25   S    
C75   H56   S    
C72   H48   S    
C30   C31   T    
O19   C64   A    
N6    H43   S    
N3    H38   S    
C28   N2    S    
C10   C11   A    
N4    H39   S    
C46   N5    S    
C23   C24   A    
C52   H16   S    
C67   H19   S    
C38   N3    S    
C69   C70   S    
C2    C44   S    
