data_mof_unit_54970.cif
_audit_creation_date              2012-12-11T16:07:25-0500
_audit_creation_method            fapswitch 2.2
_symmetry_space_group_name_H-M    P1
_symmetry_Int_Tables_number       1
_space_group_crystal_system       triclinic
_cell_length_a                    17.107375
_cell_length_b                    17.109162
_cell_length_c                    17.233176
_cell_angle_alpha                 90.11098
_cell_angle_beta                  90.002321
_cell_angle_gamma                 90.000165
_cell_volume                      5044.01793629

loop_
_atom_site_label
_atom_site_type_symbol
_atom_type_description
_atom_site_fract_x
_atom_site_fract_y
_atom_site_fract_z
_atom_type_partial_charge
C1    C     C_R   0.422446 0.670690 0.645692 -0.129707
C2    C     C_R   0.605412 0.698111 0.607515 -0.141191
C3    C     C_3   0.720815 0.249347 0.720326 -0.137522
C4    C     C_3   0.776697 0.807221 0.364942 -0.150478
C5    C     C_3   0.223282 0.192793 0.635053 -0.150486
C6    C     C_3   0.749823 0.278966 0.279263 -0.137023
C7    C     C_3   0.250174 0.721033 0.720736 -0.137028
C8    C     C_3   0.750556 0.778527 0.779455 -0.136804
C9    C     C_3   0.249553 0.221327 0.220621 -0.136884
C10   C     C_3   0.723073 0.307051 0.865008 -0.150402
C11   C     C_3   0.276905 0.692928 0.134994 -0.150414
C12   C     C_3   0.220621 0.250823 0.779594 -0.137620
C13   C     C_R   0.669732 0.422324 0.353686 -0.142191
C14   C     C_3   0.779398 0.749161 0.220411 -0.137627
C15   C     C_3   0.306903 0.722197 0.865705 -0.150434
C16   C     C_3   0.693096 0.277804 0.134293 -0.150432
C17   C     C_R   0.330267 0.577676 0.646313 -0.142191
C18   C     C_R   0.606297 0.697982 0.392938 -0.151699
C19   C     C_R   0.393703 0.302017 0.607062 -0.151693
C20   C     C_R   0.329169 0.577631 0.354468 -0.129896
C21   C     C_R   0.670830 0.422368 0.645532 -0.129893
C22   C     C_R   0.894579 0.198129 0.107459 -0.141058
C23   C     C_R   0.105420 0.801871 0.892540 -0.141064
C24   C     C_R   0.169715 0.077652 0.146326 -0.142072
C25   C     C_R   0.577552 0.329311 0.354307 -0.129716
C26   C     C_R   0.830290 0.922355 0.853670 -0.142016
C27   C     C_R   0.106291 0.802019 0.107071 -0.151622
C28   C     C_R   0.893710 0.197980 0.892926 -0.151619
C29   C     C_R   0.829154 0.922359 0.145518 -0.129872
C30   C     C_R   0.170845 0.077641 0.854481 -0.129877
C31   C     C_R   0.922471 0.829353 0.854280 -0.129863
C32   C     C_R   0.077533 0.170656 0.145714 -0.129821
C33   C     C_R   0.198114 0.893572 0.893203 -0.151618
C34   C     C_R   0.801885 0.106428 0.106797 -0.151616
C35   C     C_R   0.077796 0.169901 0.853864 -0.142606
C36   C     C_R   0.698103 0.606404 0.606849 -0.151530
C37   C     C_R   0.922204 0.830099 0.146136 -0.142618
C38   C     C_R   0.801986 0.105260 0.892273 -0.140963
C39   C     C_R   0.198015 0.894739 0.107725 -0.140946
C40   C     C_3   0.265900 0.264534 0.335613 0.189204
C41   C     C_3   0.734091 0.735449 0.664427 0.189219
C42   C     C_3   0.321483 0.677018 0.250952 0.189514
C43   C     C_3   0.678516 0.322980 0.749046 0.189512
C44   C     C_3   0.735217 0.733772 0.335093 0.189123
C45   C     C_3   0.264783 0.266227 0.664907 0.189122
C46   C     C_3   0.676657 0.321872 0.250471 0.189367
C47   C     C_R   0.301891 0.393587 0.393169 -0.151567
C48   C     C_3   0.323341 0.678129 0.749527 0.189370
C49   C     C_3   0.823352 0.821920 0.750471 0.189334
C50   C     C_3   0.176647 0.178090 0.249534 0.189337
C51   C     C_3   0.764793 0.233775 0.835065 0.189133
C52   C     C_3   0.235210 0.766224 0.164929 0.189132
C53   C     C_3   0.178541 0.177031 0.750964 0.189510
C54   C     C_3   0.821457 0.822968 0.249035 0.189508
C55   C     C_3   0.234099 0.764513 0.835671 0.189200
C56   C     C_3   0.765899 0.235488 0.164328 0.189200
C57   C     C_R   0.364644 0.636353 0.689505 0.028700
C58   C     C_R   0.577780 0.330114 0.646145 -0.142543
C59   C     C_R   0.635354 0.363648 0.310493 0.028700
C60   C     C_R   0.681557 0.682429 0.625703 0.038106
C61   C     C_R   0.318432 0.317555 0.374334 0.038095
C62   C     C_R   0.636666 0.364340 0.689201 0.028104
C63   C     C_R   0.363332 0.635660 0.310799 0.028103
C64   C     C_R   0.317734 0.318667 0.626087 0.037273
C65   C     C_R   0.682266 0.681331 0.373913 0.037268
C66   C     C_R   0.818423 0.182468 0.125602 0.038055
C67   C     C_R   0.181575 0.817533 0.874397 0.038057
C68   C     C_R   0.135318 0.136296 0.189541 0.028657
C69   C     C_R   0.422219 0.669886 0.353855 -0.142547
C70   C     C_R   0.864695 0.863722 0.810447 0.028637
C71   C     C_R   0.182258 0.818668 0.126107 0.037297
C72   C     C_R   0.817744 0.181331 0.873888 0.037304
C73   C     C_R   0.863299 0.864312 0.189176 0.028147
C74   C     C_R   0.136699 0.135687 0.810822 0.028144
C75   C     C_3   0.778466 0.705801 0.735539 -0.154848
C76   C     C_3   0.221692 0.294147 0.264396 -0.154766
C77   C     C_3   0.648341 0.280143 0.820895 -0.160640
C78   C     C_3   0.351654 0.719829 0.179084 -0.160632
C79   C     C_3   0.191181 0.293975 0.707290 -0.168153
C80   C     C_R   0.301982 0.394740 0.607712 -0.140860
C81   C     C_3   0.808834 0.706030 0.292730 -0.168153
C82   C     C_3   0.351561 0.751080 0.792911 -0.165919
C83   C     C_3   0.648436 0.248921 0.207086 -0.165921
C84   C     C_3   0.720182 0.352136 0.179048 -0.160503
C85   C     C_3   0.279818 0.647865 0.820951 -0.160502
C86   C     C_3   0.705785 0.776680 0.263044 -0.154124
C87   C     C_3   0.294218 0.223297 0.736941 -0.154134
C88   C     C_3   0.248103 0.648995 0.208214 -0.165302
C89   C     C_3   0.751879 0.351010 0.791807 -0.165302
C90   C     C_3   0.293968 0.191704 0.292087 -0.168034
C91   C     C_R   0.698018 0.605259 0.392288 -0.140854
C92   C     C_3   0.705974 0.808184 0.708095 -0.167988
C93   C     C_3   0.220528 0.147783 0.320712 -0.160674
C94   C     C_3   0.779302 0.852259 0.679398 -0.160730
C95   C     C_3   0.205734 0.723086 0.236829 -0.154255
C96   C     C_3   0.794274 0.276938 0.763183 -0.154276
C97   C     C_3   0.747938 0.850923 0.291574 -0.165302
C98   C     C_3   0.252045 0.149071 0.708406 -0.165306
C99   C     C_3   0.793886 0.308545 0.207550 -0.168080
C100  C     C_3   0.206113 0.691455 0.792450 -0.168084
C101  C     C_3   0.277954 0.794078 0.764210 -0.154545
C102  C     C_R   0.394582 0.301880 0.392508 -0.141144
C103  C     C_3   0.722043 0.205922 0.235788 -0.154545
C104  C     C_3   0.148408 0.219631 0.678961 -0.160560
C105  C     C_3   0.851586 0.780389 0.321053 -0.160547
C106  C     C_3   0.691332 0.205961 0.792475 -0.168119
C107  C     C_3   0.308689 0.794031 0.207496 -0.168118
C108  C     C_3   0.851710 0.749293 0.706650 -0.165933
C109  C     C_3   0.148341 0.250813 0.293216 -0.165947
C110  C     C_3   0.193358 0.221885 0.365768 -0.150307
C111  C     C_3   0.806523 0.778254 0.634202 -0.150220
C112  C     C_3   0.279209 0.750671 0.279664 -0.137527
H1    H     H_    0.456620 0.721659 0.660358 0.093106
H2    H     H_    0.577442 0.754771 0.606472 0.083897
H3    H     H_    0.720408 0.456516 0.338154 0.099270
H4    H     H_    0.279591 0.543484 0.661845 0.099269
H5    H     H_    0.578808 0.754912 0.393473 0.090716
H6    H     H_    0.421192 0.245088 0.606526 0.090712
H7    H     H_    0.278319 0.543236 0.339857 0.092734
H8    H     H_    0.721683 0.456760 0.660143 0.092733
H9    H     H_    0.922563 0.254782 0.106409 0.083839
H10   H     H_    0.077435 0.745219 0.893590 0.083841
H11   H     H_    0.220396 0.043465 0.161855 0.099240
H12   H     H_    0.543375 0.278344 0.339640 0.093116
H13   H     H_    0.779608 0.956540 0.838144 0.099230
H14   H     H_    0.078799 0.745090 0.106534 0.090678
H15   H     H_    0.921202 0.254909 0.893463 0.090674
H16   H     H_    0.778308 0.956762 0.160121 0.092702
H17   H     H_    0.221691 0.043238 0.839878 0.092705
H18   H     H_    0.956640 0.778384 0.839599 0.093238
H19   H     H_    0.043360 0.221622 0.160392 0.093204
H20   H     H_    0.255068 0.921015 0.893885 0.090165
H21   H     H_    0.744932 0.078985 0.106114 0.090165
H22   H     H_    0.043414 0.220478 0.838396 0.098943
H23   H     H_    0.755057 0.578963 0.606163 0.090104
H24   H     H_    0.956586 0.779522 0.161604 0.098946
H25   H     H_    0.745355 0.077214 0.893173 0.084192
H26   H     H_    0.254646 0.922787 0.106824 0.084187
H27   H     H_    0.776969 0.645043 0.758060 0.105996
H28   H     H_    0.223322 0.354867 0.241804 0.106042
H29   H     H_    0.587514 0.283165 0.843102 0.107166
H30   H     H_    0.412477 0.716785 0.156864 0.107166
H31   H     H_    0.166875 0.354120 0.706765 0.101704
H32   H     H_    0.833153 0.645889 0.293272 0.101700
H33   H     H_    0.412172 0.774233 0.792444 0.102970
H34   H     H_    0.244937 0.421029 0.393854 0.090123
H35   H     H_    0.587825 0.225769 0.207553 0.102976
H36   H     H_    0.717690 0.413088 0.157253 0.108101
H37   H     H_    0.282310 0.586913 0.842746 0.108101
H38   H     H_    0.645300 0.774002 0.239777 0.106398
H39   H     H_    0.354708 0.225959 0.760197 0.106396
H40   H     H_    0.224519 0.588561 0.209121 0.101868
H41   H     H_    0.775446 0.411450 0.790918 0.101874
H42   H     H_    0.354408 0.168139 0.291677 0.101161
H43   H     H_    0.645489 0.831654 0.708640 0.101152
H44   H     H_    0.218323 0.086768 0.342336 0.108100
H45   H     H_    0.543397 0.279537 0.661610 0.098943
H46   H     H_    0.781373 0.913312 0.657845 0.108075
H47   H     H_    0.145198 0.725580 0.259990 0.106372
H48   H     H_    0.854814 0.274466 0.740035 0.106371
H49   H     H_    0.724214 0.911295 0.290497 0.101840
H50   H     H_    0.275754 0.088693 0.709468 0.101846
H51   H     H_    0.854252 0.332330 0.207688 0.101114
H52   H     H_    0.145747 0.667669 0.792312 0.101115
H53   H     H_    0.276036 0.854735 0.741444 0.106085
H54   H     H_    0.723959 0.145265 0.258553 0.106086
H55   H     H_    0.087632 0.216420 0.656645 0.107200
H56   H     H_    0.456602 0.720462 0.338389 0.098945
H57   H     H_    0.912359 0.783617 0.343381 0.107199
H58   H     H_    0.667162 0.145756 0.792812 0.101709
H59   H     H_    0.332875 0.854230 0.207138 0.101707
H60   H     H_    0.912444 0.726464 0.706738 0.103096
H61   H     H_    0.087654 0.273740 0.293006 0.103083
H62   H     H_    0.172353 0.223790 0.426682 0.105480
H63   H     H_    0.827435 0.776465 0.573245 0.105447
H64   H     H_    0.280573 0.773810 0.339932 0.109672
H65   H     H_    0.719470 0.226224 0.660051 0.109675
H66   H     H_    0.773941 0.829011 0.425598 0.105228
H67   H     H_    0.245354 0.422793 0.606810 0.084160
H68   H     H_    0.226021 0.171016 0.574392 0.105261
H69   H     H_    0.772548 0.279855 0.339655 0.109931
H70   H     H_    0.227448 0.720143 0.660344 0.109930
H71   H     H_    0.728152 0.779059 0.839966 0.109981
H72   H     H_    0.272054 0.220681 0.160156 0.109985
H73   H     H_    0.725647 0.328693 0.925726 0.105297
H74   H     H_    0.274312 0.671271 0.074282 0.105298
H75   H     H_    0.219113 0.274084 0.839810 0.109659
H76   H     H_    0.780922 0.725887 0.160199 0.109653
H77   H     H_    0.328125 0.724345 0.926549 0.105464
H78   H     H_    0.754645 0.577205 0.393190 0.084161
H79   H     H_    0.671875 0.275657 0.073448 0.105459
H80   H     H_    0.422556 0.245223 0.393555 0.083873
N1    N     N_R   0.424590 0.632770 0.578330 -0.042150
N2    N     N_R   0.575410 0.632770 0.578330 -0.033203
N3    N     N_R   0.632770 0.424590 0.421670 -0.041960
N4    N     N_R   0.367230 0.575410 0.578330 -0.041959
N5    N     N_R   0.575410 0.632770 0.421670 -0.032704
N6    N     N_R   0.424590 0.367230 0.578330 -0.032703
N7    N     N_R   0.367230 0.575410 0.421670 -0.041840
N8    N     N_R   0.632770 0.424590 0.578330 -0.041841
N9    N     N_R   0.924590 0.132770 0.078330 -0.033215
N10   N     N_R   0.075410 0.867230 0.921670 -0.033212
N11   N     N_R   0.132770 0.075410 0.078330 -0.041969
N12   N     N_R   0.575410 0.367230 0.421670 -0.042151
N13   N     N_R   0.867230 0.924590 0.921670 -0.041976
N14   N     N_R   0.075410 0.867230 0.078330 -0.032699
N15   N     N_R   0.924590 0.132770 0.921670 -0.032698
N16   N     N_R   0.867230 0.924590 0.078330 -0.041832
N17   N     N_R   0.132770 0.075410 0.921670 -0.041832
N18   N     N_R   0.924590 0.867230 0.921670 -0.042165
N19   N     N_R   0.075410 0.132770 0.078330 -0.042162
N20   N     N_R   0.132770 0.924590 0.921670 -0.033039
N21   N     N_R   0.867230 0.075410 0.078330 -0.033040
N22   N     N_R   0.075410 0.132770 0.921670 -0.041618
N23   N     N_R   0.632770 0.575410 0.578330 -0.033036
N24   N     N_R   0.924590 0.867230 0.078330 -0.041618
N25   N     N_R   0.867230 0.075410 0.921670 -0.032889
N26   N     N_R   0.132770 0.924590 0.078330 -0.032890
N27   N     N_R   0.367230 0.424590 0.421670 -0.033037
N28   N     N_R   0.575410 0.367230 0.578330 -0.041625
N29   N     N_R   0.424590 0.632770 0.421670 -0.041624
N30   N     N_R   0.367230 0.424590 0.578330 -0.032898
N31   N     N_R   0.632770 0.575410 0.421670 -0.032901
N32   N     N_R   0.424590 0.367230 0.421670 -0.033207
Ni1   Ni    Ni4+2 0.500000 0.631570 0.500000 0.206855
Ni2   Ni    Ni4+2 0.500000 0.368430 0.500000 0.206852
Ni3   Ni    Ni4+2 0.631570 0.500000 0.500000 0.206871
Ni4   Ni    Ni4+2 0.368430 0.500000 0.500000 0.206870
Ni5   Ni    Ni4+2 0.000000 0.131570 0.000000 0.206843
Ni6   Ni    Ni4+2 0.000000 0.868430 0.000000 0.206839
Ni7   Ni    Ni4+2 0.131570 0.000000 0.000000 0.206875
Ni8   Ni    Ni4+2 0.868430 0.000000 0.000000 0.206874

loop_
_geom_bond_atom_site_label_1
_geom_bond_atom_site_label_2
_ccdc_geom_bond_type
C58   C62   A    
N4    Ni4   S    
C24   N11   A    
C46   C59   S    
N14   Ni6   S    
C11   H74   S    
C88   H40   S    
C107  C112  S    
C39   N26   A    
C53   C74   S    
C25   N12   A    
N25   Ni8   S    
C34   C66   A    
C30   N17   A    
N20   Ni7   S    
C24   H11   S    
C102  N32   A    
C48   C57   S    
C35   C74   A    
C107  H59   S    
C32   C68   A    
N14   N26   A    
C18   C65   A    
C3    C43   S    
C43   C89   S    
C29   N16   A    
C83   C103  S    
C22   H9    S    
C95   H47   S    
N2    Ni1   S    
C77   C106  S    
N6    N30   A    
C21   H8    S    
C7    C101  S    
C95   C112  S    
C78   H30   S    
C36   N23   A    
C43   C77   S    
C30   C74   A    
C33   N20   A    
C109  H61   S    
C8    C49   S    
C29   C73   A    
C99   H51   S    
C53   C104  S    
C12   C79   S    
N29   Ni1   S    
C94   C111  S    
C16   C84   S    
C10   H73   S    
C52   C95   S    
N17   Ni7   S    
C23   C67   A    
C86   C97   S    
C42   C112  S    
C22   C66   A    
C11   C52   S    
C41   C60   S    
C50   C68   S    
N27   N32   A    
C20   N7    A    
C58   N28   A    
C82   C101  S    
C81   H32   S    
C79   H31   S    
C63   C69   A    
C10   C89   S    
C76   C109  S    
C55   C100  S    
N24   Ni6   S    
C56   C66   S    
C54   C97   S    
C3    C96   S    
C8    C92   S    
C9    C76   S    
C49   C94   S    
C23   H10   S    
N19   Ni5   S    
N7    Ni4   S    
C11   C88   S    
C37   N24   A    
N23   Ni3   S    
C12   C53   S    
C7    H70   S    
C28   H15   S    
C51   C96   S    
N10   Ni6   S    
C87   C98   S    
C76   H28   S    
C15   H77   S    
C5    C104  S    
C75   C108  S    
C94   H46   S    
C87   H39   S    
C4    C97   S    
C8    H71   S    
C64   C80   A    
C38   N25   A    
N11   N19   A    
C44   C65   S    
C28   C72   A    
C2    C60   A    
C1    H1    S    
C44   C86   S    
C10   C51   S    
C35   H22   S    
N13   Ni8   S    
C98   H50   S    
C10   C77   S    
C15   C82   S    
C81   C105  S    
C110  H62   S    
C3    C106  S    
C103  H54   S    
N26   Ni7   S    
C91   H78   S    
C38   C72   A    
N15   N25   A    
C7    C100  S    
C23   N10   A    
C80   H67   S    
C52   C107  S    
C100  H52   S    
C44   C81   S    
C4    H66   S    
N2    N23   A    
C32   N19   A    
N15   Ni5   S    
C40   C110  S    
N3    N12   A    
C6    H69   S    
C34   H21   S    
C36   C60   A    
C83   H35   S    
C12   H75   S    
C5    C45   S    
C22   N9    A    
C50   C109  S    
C40   C61   S    
C40   C76   S    
C78   C107  S    
C2    N2    A    
C26   H13   S    
C15   C55   S    
N27   Ni4   S    
C1    N1    A    
C16   C56   S    
C5    H68   S    
C16   H79   S    
C1    C57   A    
C41   C75   S    
C54   C73   S    
C14   H76   S    
C102  H80   S    
N31   Ni3   S    
C52   C71   S    
N30   Ni4   S    
C19   C64   A    
N1    N4    A    
N9    N21   A    
C93   C110  S    
C18   N5    A    
C92   C94   S    
N18   Ni6   S    
C37   H24   S    
N28   Ni2   S    
C106  H58   S    
C45   C79   S    
C6    C103  S    
C101  H53   S    
C18   H5    S    
C14   C86   S    
C21   C62   A    
C13   H3    S    
N21   Ni8   S    
C105  H57   S    
N16   Ni8   S    
N7    N29   A    
C11   C78   S    
C112  H64   S    
C42   C78   S    
C97   H49   S    
C49   C70   S    
C108  H60   S    
C41   C111  S    
C26   C70   A    
C111  H63   S    
C79   C104  S    
C26   N13   A    
C42   C88   S    
C51   C72   S    
C21   N8    A    
C91   N31   A    
C14   C54   S    
C36   H23   S    
C82   H33   S    
C27   C71   A    
C33   C67   A    
C90   C93   S    
C65   C91   A    
C37   C73   A    
C33   H20   S    
C19   N6    A    
C84   H36   S    
C6    C46   S    
C54   C105  S    
C45   C87   S    
C84   C99   S    
C93   H44   S    
C9    C50   S    
C56   C103  S    
N10   N20   A    
N5    N31   A    
C34   N21   A    
N32   Ni2   S    
C9    C90   S    
C47   C61   A    
C55   C67   S    
C50   C93   S    
C88   C95   S    
C13   C59   A    
N3    Ni3   S    
C53   C98   S    
C31   H18   S    
C30   H17   S    
C4    C44   S    
C4    C105  S    
C55   C101  S    
C45   C64   S    
N17   N22   A    
C14   C81   S    
C108  C111  S    
C15   C85   S    
C39   H26   S    
C27   N14   A    
C6    C99   S    
C31   C70   A    
C89   C96   S    
C86   H38   S    
C96   H48   S    
C3    H65   S    
C69   H56   S    
N1    Ni1   S    
C12   C87   S    
C85   C100  S    
C75   H27   S    
C109  C110  S    
C7    C48   S    
C49   C108  S    
N11   Ni7   S    
C2    H2    S    
C90   H42   S    
C31   N18   A    
C47   N27   A    
N13   N18   A    
C20   C63   A    
C51   C106  S    
N8    N28   A    
C58   H45   S    
C19   H6    S    
N9    Ni5   S    
C27   H14   S    
C38   H25   S    
C48   C82   S    
C61   C102  A    
C92   H43   S    
C69   N29   A    
C8    C75   S    
C35   N22   A    
C85   H37   S    
C25   H12   S    
C47   H34   S    
C89   H41   S    
C46   C84   S    
C24   C68   A    
C80   N30   A    
C46   C83   S    
N6    Ni2   S    
C41   C92   S    
C5    C98   S    
C43   C62   S    
C77   H29   S    
N16   N24   A    
C13   N3    A    
C29   H16   S    
C9    H72   S    
C28   N15   A    
C39   C71   A    
C48   C85   S    
C17   N4    A    
C16   C83   S    
C25   C59   A    
C56   C99   S    
C40   C90   S    
N22   Ni5   S    
N12   Ni2   S    
C42   C63   S    
N8    Ni3   S    
C20   H7    S    
C32   H19   S    
C17   H4    S    
C17   C57   A    
C104  H55   S    
N5    Ni1   S    
