data_mof_unit_50296.cif
_audit_creation_date              2012-12-10T16:59:25-0500
_audit_creation_method            fapswitch 2.2
_symmetry_space_group_name_H-M    P1
_symmetry_Int_Tables_number       1
_space_group_crystal_system       triclinic
_cell_length_a                    13.140783
_cell_length_b                    13.169782
_cell_length_c                    17.869836
_cell_angle_alpha                 110.576593
_cell_angle_beta                  73.085712
_cell_angle_gamma                 91.296583
_cell_volume                      2759.06566778

loop_
_atom_site_label
_atom_site_type_symbol
_atom_type_description
_atom_site_fract_x
_atom_site_fract_y
_atom_site_fract_z
_atom_type_partial_charge
C1    C     C_R   0.217254 0.543966 0.530866 0.517534
C2    C     C_R   0.556279 0.377628 0.903048 -0.129471
C3    C     C_R   0.593289 0.304607 0.932170 0.257520
C4    C     C_R   0.781650 0.454922 0.467723 0.483200
C5    C     C_R   0.584707 0.337036 0.017420 -0.026306
C6    C     C_R   0.549725 0.446558 0.071907 -0.032663
C7    C     C_R   0.608290 0.260220 0.049550 -0.112705
C8    C     C_R   0.598831 0.290418 0.134293 0.200336
C9    C     C_R   0.559247 0.479417 0.154027 0.191496
C10   C     C_2   0.896273 0.431696 0.451115 0.295201
C11   C     C_2   0.944045 0.507370 0.498651 -0.103874
C12   C     C_R   0.372597 0.697326 0.874156 0.265732
C13   C     C_2   0.103491 0.562405 0.541774 -0.130205
C14   C     C_2   0.057747 0.491689 0.489525 -0.126371
C15   C     C_2   0.536352 0.895943 0.534178 -0.116509
C16   C     C_R   0.470703 0.217224 0.475381 0.511420
C17   C     C_2   0.479354 0.942031 0.501761 -0.133206
C18   C     C_2   0.461579 0.100272 0.462129 0.268850
C19   C     C_2   0.480478 0.059740 0.517161 0.245669
C20   C     C_R   0.528516 0.782306 0.524596 0.492350
C21   C     C_R   0.552142 0.432038 0.276671 0.567910
C22   C     C_R   0.449948 0.567783 0.723818 0.502948
C23   C     C_R   0.483848 0.533849 0.842220 -0.192872
C24   C     C_R   0.433880 0.600529 0.814787 0.013139
C25   C     C_R   0.573306 0.400350 0.186551 0.047730
C26   C     C_R   0.358007 0.721638 0.959438 -0.114355
C27   C     C_3   0.895053 0.256613 0.351076 0.015965
C28   C     C_3   0.853032 0.182898 0.401480 -0.251467
C29   C     C_3   0.774352 0.107972 0.366490 -0.478937
C30   C     C_3   0.423334 0.141044 0.660804 -0.001991
C31   C     C_3   0.406457 0.261207 0.717389 -0.240053
C32   C     C_3   0.333649 0.278748 0.805543 -0.494778
C33   C     C_3   0.502746 0.020326 0.319332 -0.001680
C34   C     C_R   0.467897 0.555836 0.927904 0.015973
C35   C     C_3   0.462721 0.945544 0.248408 -0.246155
C36   C     C_3   0.543315 0.926349 0.162657 -0.488376
C37   C     C_3   0.654670 0.627938 0.178008 0.011421
C38   C     C_3   0.667376 0.725720 0.251320 -0.246274
C39   C     C_3   0.771074 0.777057 0.226534 -0.496793
C40   C     C_3   0.709776 0.206935 0.177812 -0.001793
C41   C     C_3   0.788702 0.125025 0.099347 -0.271120
C42   C     C_3   0.895532 0.110503 0.113626 -0.484739
C43   C     C_3   0.712737 0.189746 0.807379 -0.004322
C44   C     C_3   0.680460 0.126544 0.729080 -0.260684
C45   C     C_R   0.405938 0.652837 0.986484 0.004881
C46   C     C_3   0.767143 0.120298 0.648919 -0.465718
C47   C     C_3   0.395634 0.842394 0.830131 0.030772
C48   C     C_3   0.373702 0.951057 0.904075 -0.295579
C49   C     C_3   0.444720 0.035571 0.881275 -0.455375
C50   C     C_R   0.511364 0.483949 0.956896 -0.007354
C51   C     C_R   0.503115 0.516838 0.043382 0.031775
C52   C     C_R   0.438685 0.613367 0.099815 -0.106051
C53   C     C_R   0.390977 0.679692 0.071753 -0.155533
H1    H     H_    0.629774 0.175271 0.009923 0.173206
H2    H     H_    0.812689 0.232403 0.468204 0.200106
H3    H     H_    0.704956 0.156723 0.368698 0.136073
H4    H     H_    0.744729 0.056708 0.404789 0.156003
H5    H     H_    0.813916 0.053863 0.300723 0.127716
H6    H     H_    0.446580 0.091224 0.693098 0.131296
H7    H     H_    0.345375 0.115653 0.650129 0.120660
H8    H     H_    0.484688 0.292019 0.721324 0.182064
H9    H     H_    0.370549 0.308783 0.689426 0.173965
H10   H     H_    0.255073 0.247368 0.803036 0.147041
H11   H     H_    0.320699 0.367119 0.843800 0.162148
H12   H     H_    0.057184 0.633895 0.592347 0.106828
H13   H     H_    0.370979 0.236580 0.836244 0.154688
H14   H     H_    0.432731 0.892535 0.463370 0.146323
H15   H     H_    0.580038 0.982984 0.315847 0.111114
H16   H     H_    0.516175 0.099388 0.310098 0.170504
H17   H     H_    0.447570 0.866015 0.256318 0.172574
H18   H     H_    0.386148 0.983154 0.251239 0.183466
H19   H     H_    0.556771 0.004556 0.152402 0.197191
H20   H     H_    0.512259 0.871359 0.112730 0.149475
H21   H     H_    0.620403 0.888042 0.157888 0.140371
H22   H     H_    0.586576 0.942608 0.570254 0.117283
H23   H     H_    0.537539 0.466244 0.795076 0.129026
H24   H     H_    0.657009 0.654024 0.124721 0.140606
H25   H     H_    0.723478 0.566157 0.158275 0.126495
H26   H     H_    0.598791 0.787464 0.273790 0.169039
H27   H     H_    0.667368 0.699087 0.303772 0.215229
H28   H     H_    0.840836 0.717276 0.206759 0.154954
H29   H     H_    0.776689 0.848248 0.281146 0.145930
H30   H     H_    0.773261 0.805061 0.174345 0.139393
H31   H     H_    0.700722 0.179150 0.231158 0.131787
H32   H     H_    0.742659 0.287982 0.195130 0.116154
H33   H     H_    0.754712 0.044978 0.082374 0.167238
H34   H     H_    0.341387 0.752364 0.117368 0.103872
H35   H     H_    0.802479 0.154060 0.046177 0.155274
H36   H     H_    0.930713 0.189743 0.131364 0.147964
H37   H     H_    0.951719 0.052926 0.055085 0.153878
H38   H     H_    0.884732 0.076784 0.164007 0.136249
H39   H     H_    0.782515 0.143507 0.807235 0.145176
H40   H     H_    0.740174 0.269683 0.804838 0.120107
H41   H     H_    0.664558 0.042700 0.727589 0.155988
H42   H     H_    0.606015 0.167146 0.731601 0.177766
H43   H     H_    0.781936 0.203352 0.648111 0.155200
H44   H     H_    0.740977 0.073654 0.593625 0.166410
H45   H     H_    0.105003 0.420380 0.439415 0.212269
H46   H     H_    0.842465 0.078560 0.644285 0.140996
H47   H     H_    0.309021 0.794843 0.004684 0.114481
H48   H     H_    0.381860 0.856750 0.776026 0.173024
H49   H     H_    0.481611 0.811702 0.809704 0.105307
H50   H     H_    0.288596 0.981890 0.922665 0.174537
H51   H     H_    0.389350 0.939312 0.958425 0.155718
H52   H     H_    0.530098 0.007467 0.865015 0.180136
H53   H     H_    0.426173 0.113809 0.935559 0.181914
H54   H     H_    0.430798 0.049455 0.827109 0.134935
H55   H     H_    0.417351 0.636108 0.166854 0.179413
H56   H     H_    0.897820 0.581346 0.546310 0.075970
H57   H     H_    0.556463 0.345275 0.838853 0.104511
H58   H     H_    0.949220 0.204616 0.289059 0.147051
H59   H     H_    0.830516 0.292057 0.336447 0.114579
H60   H     H_    0.921359 0.132631 0.399362 0.160080
O1    O     O_3   0.500000 0.500000 0.500000 -0.441406
O2    O     O_R   0.474570 0.394560 0.317400 -0.517717
O3    O     O_R   0.403380 0.624270 0.695980 -0.506922
O4    O     O_R   0.609140 0.497770 0.314440 -0.545148
O5    O     O_R   0.512900 0.483390 0.672170 -0.564020
O6    O     O_3   0.956121 0.335761 0.390945 -0.592855
O7    O     O_3   0.507507 0.127747 0.586551 -0.573884
O8    O     O_3   0.425600 0.033950 0.396931 -0.603909
O9    O     O_3   0.554998 0.587724 0.204051 -0.588106
O10   O     O_3   0.607934 0.210583 0.166353 -0.581689
O11   O     O_3   0.627564 0.197185 0.879809 -0.603394
O12   O     O_R   0.526170 0.271940 0.521690 -0.514058
O13   O     O_3   0.323578 0.767375 0.850190 -0.548715
O14   O     O_R   0.451880 0.756290 0.574830 -0.545637
O15   O     O_R   0.271960 0.460780 0.472050 -0.536569
O16   O     O_R   0.749980 0.510990 0.431420 -0.558780
O17   O     O_R   0.262540 0.611050 0.579000 -0.530544
O18   O     O_R   0.715520 0.417170 0.517520 -0.560241
O19   O     O_R   0.426070 0.262540 0.438550 -0.538660
O20   O     O_R   0.595870 0.709230 0.464930 -0.542292
Zn1   Zn    Zn3+2 0.562560 0.419520 0.551940 0.910784
Zn2   Zn    Zn3+2 0.419550 0.406100 0.433160 0.956583
Zn3   Zn    Zn3+2 0.611810 0.553570 0.428930 0.915949
Zn4   Zn    Zn3+2 0.406080 0.620810 0.585960 0.943967

loop_
_geom_bond_atom_site_label_1
_geom_bond_atom_site_label_2
_ccdc_geom_bond_type
O12   Zn1   S    
C15   H22   S    
C46   H46   S    
C47   H48   S    
C11   H56   S    
C41   C42   S    
C40   H31   S    
C35   C36   S    
C1    O15   A    
C23   H23   S    
C21   O2    A    
O18   Zn1   S    
C6    C9    A    
C9    C25   A    
C7    C8    A    
C49   H54   S    
C13   H12   S    
C3    O11   S    
C41   H33   S    
C38   H27   S    
C28   C29   S    
C18   C19   D    
C28   H60   S    
C30   C31   S    
C11   C14   S    
C12   O13   S    
C38   H26   S    
C48   H51   S    
C15   C17   D    
C42   H38   S    
O1    Zn4   S    
C41   H35   S    
C31   H8    S    
C21   O4    A    
C10   O6    S    
C2    C50   A    
C26   C45   A    
C43   H40   S    
C31   C32   S    
C35   H17   S    
C30   H7    S    
O20   Zn3   S    
O1    Zn2   S    
C6    C51   A    
C16   O12   A    
O5    Zn1   S    
C33   H16   S    
C22   O3    A    
C27   H58   S    
C47   H49   S    
C13   C14   D    
C33   O8    S    
C8    C25   A    
C31   H9    S    
C30   O7    S    
C28   H2    S    
C44   C46   S    
C14   H45   S    
C4    O18   A    
C15   C20   S    
C34   C50   A    
C17   H14   S    
C51   C52   A    
C38   C39   S    
C39   H28   S    
C20   O14   A    
C1    O17   A    
C36   H20   S    
O15   Zn2   S    
C5    C7    A    
C17   C19   S    
C49   H52   S    
C50   C51   A    
C48   H50   S    
C37   H24   S    
C12   C26   A    
C42   H37   S    
C40   H32   S    
C43   C44   S    
C37   C38   S    
O16   Zn3   S    
C47   C48   S    
C23   C24   A    
C23   C34   A    
C30   H6    S    
C9    O9    S    
O1    Zn1   S    
C53   H34   S    
C34   C45   A    
C32   H11   S    
C49   H53   S    
C36   H21   S    
C40   C41   S    
C46   H44   S    
C29   H4    S    
C19   O7    S    
C20   O20   A    
C22   C24   S    
C1    C13   S    
C4    C10   S    
C52   C53   A    
C47   O13   S    
C32   H13   S    
O3    Zn4   S    
C22   O5    A    
C40   O10   S    
C21   C25   S    
C2    H57   S    
C39   H29   S    
C3    C5    A    
C27   H59   S    
C8    O10   S    
C4    O16   A    
C29   H3    S    
C27   O6    S    
C32   H10   S    
C37   H25   S    
C12   C24   A    
C43   H39   S    
C42   H36   S    
C2    C3    A    
C39   H30   S    
C35   H18   S    
C44   H42   S    
O17   Zn4   S    
C5    C6    A    
O2    Zn2   S    
O19   Zn2   S    
C48   C49   S    
C33   C35   S    
C16   O19   A    
C44   H41   S    
C10   C11   D    
C18   O8    S    
C45   C53   A    
C37   O9    S    
C46   H43   S    
C29   H5    S    
C52   H55   S    
C16   C18   S    
C27   C28   S    
O1    Zn3   S    
O14   Zn4   S    
C7    H1    S    
O4    Zn3   S    
C43   O11   S    
C36   H19   S    
C33   H15   S    
C26   H47   S    
