data_mof_unit_48704.cif
_audit_creation_date              2012-12-10T19:03:07-0500
_audit_creation_method            fapswitch 2.2
_symmetry_space_group_name_H-M    P1
_symmetry_Int_Tables_number       1
_space_group_crystal_system       triclinic
_cell_length_a                    10.759495
_cell_length_b                    10.864812
_cell_length_c                    9.567718
_cell_angle_alpha                 91.070797
_cell_angle_beta                  90.32015
_cell_angle_gamma                 90.997591
_cell_volume                      1118.08080683

loop_
_atom_site_label
_atom_site_type_symbol
_atom_type_description
_atom_site_fract_x
_atom_site_fract_y
_atom_site_fract_z
_atom_type_partial_charge
C1    C     C_R   0.496987 0.262321 0.498288 0.864732
C2    C     C_R   0.478663 0.940540 0.624976 0.031268
C3    C     C_3   0.561476 0.943331 0.750963 1.080960
C4    C     C_R   0.260064 0.496567 0.499295 0.969223
C5    C     C_3   0.561849 0.082488 0.746563 -0.422144
C6    C     C_R   0.603376 0.535871 0.075241 0.076339
C7    C     C_R   0.403712 0.449894 0.073060 -0.072439
C8    C     C_R   0.403622 0.449519 0.924590 0.721931
C9    C     C_R   0.605470 0.531472 0.927959 0.017159
C10   C     C_3   0.676511 0.650672 0.925244 0.210653
C11   C     C_3   0.668405 0.657896 0.083661 0.395639
C12   C     C_3   0.877962 0.492515 0.498264 -0.229942
C13   C     C_R   0.496092 0.737614 0.500999 0.867502
C14   C     C_R   0.739914 0.496464 0.499780 0.928526
C15   C     C_3   0.071619 0.388044 0.591216 0.108712
C16   C     C_3   0.927154 0.393716 0.601161 0.845229
C17   C     C_3   0.073808 0.619783 0.555066 0.764366
C18   C     C_3   0.071055 0.472837 0.345296 0.392935
C19   C     C_3   0.121988 0.493857 0.497433 -0.241536
C20   C     C_3   0.930107 0.621123 0.544582 -0.560971
C21   C     C_3   0.927421 0.467131 0.346504 0.123540
C22   C     C_R   0.479860 0.067249 0.621204 -0.085743
C23   C     C_R   0.483270 0.128929 0.494878 -0.146171
C24   C     C_R   0.465181 0.059023 0.369273 0.413197
C25   C     C_R   0.460531 0.930677 0.374470 -0.115180
C26   C     C_R   0.480363 0.870367 0.501262 -0.192853
Cu1   Cu    Cu3+1 0.499990 0.499980 0.640670 1.095594
Cu2   Cu    Cu3+1 0.500010 0.500020 0.359330 1.056874
F1    F     F_    0.502570 0.898778 0.868362 -0.624800
F2    F     F_    0.677449 0.894393 0.725977 -0.672817
F3    F     F_    0.306266 0.395841 0.855683 -0.639438
F4    F     F_    0.590851 0.750884 0.127300 -0.614286
F5    F     F_    0.896859 0.428271 0.737123 -0.652164
F6    F     F_    0.109050 0.635317 0.694526 -0.597074
F7    F     F_    0.119821 0.367591 0.283736 -0.576583
H1    H     H_    0.110905 0.402008 0.698623 0.234160
H2    H     H_    0.890905 0.650459 0.646279 0.317771
H3    H     H_    0.101142 0.551387 0.279637 0.128086
H4    H     H_    0.106391 0.794518 0.529346 0.375359
H5    H     H_    0.539561 0.152320 0.224258 0.346618
H6    H     H_    0.113193 0.216244 0.617940 0.350770
H7    H     H_    0.839990 0.573276 0.932853 0.371428
H8    H     H_    0.885264 0.225670 0.653422 0.355984
H9    H     H_    0.920235 0.286329 0.328502 0.429418
H10   H     H_    0.895612 0.542610 0.278783 0.124658
H11   H     H_    0.900193 0.691129 0.468311 0.176444
H12   H     H_    0.449632 0.879053 0.277293 0.260720
H13   H     H_    0.512934 0.126519 0.835996 0.222347
H14   H     H_    0.654139 0.124021 0.721661 0.200529
H15   H     H_    0.325225 0.410372 0.127298 0.223200
H16   H     H_    0.625844 0.721781 0.869572 0.259981
H17   H     H_    0.758650 0.656949 0.140295 0.079966
N1    N     N_R   0.500800 0.500930 0.147930 -0.204853
N2    N     N_R   0.500800 0.500890 0.852020 -0.248894
O1    O     O_R   0.500000 0.319640 0.618810 -0.564701
O2    O     O_3   0.457686 0.111864 0.240189 -0.650791
O3    O     O_3   0.110081 0.273178 0.538065 -0.651560
O4    O     O_3   0.798912 0.637706 0.877559 -0.652455
O5    O     O_3   0.870587 0.278295 0.571446 -0.730633
O6    O     O_3   0.878187 0.357079 0.286361 -0.629516
O7    O     O_R   0.500010 0.319680 0.381230 -0.571652
O8    O     O_R   0.317690 0.499960 0.618790 -0.510306
O9    O     O_R   0.317700 0.500000 0.381210 -0.576420
O10   O     O_R   0.499990 0.680320 0.618770 -0.570442
O11   O     O_R   0.500000 0.680360 0.381190 -0.543926
O12   O     O_R   0.682300 0.500000 0.618790 -0.524228
O13   O     O_R   0.682310 0.500040 0.381210 -0.588441
O14   O     O_3   0.125287 0.716975 0.477811 -0.758862

loop_
_geom_bond_atom_site_label_1
_geom_bond_atom_site_label_2
_ccdc_geom_bond_type
C2    C22   A    
C3    F2    S    
C14   O13   A    
H4    O14   S    
C11   H17   S    
Cu1   O8    S    
C16   F5    S    
C24   O2    S    
C18   C21   S    
H5    O2    S    
C9    C10   S    
C25   H12   S    
H8    O5    S    
Cu2   N1    S    
Cu2   O7    S    
H7    O4    S    
C6    C9    A    
C2    C3    S    
C1    O1    A    
Cu1   N2    S    
H6    O3    S    
C7    C8    A    
C2    C26   A    
Cu1   O12   S    
C13   O11   A    
C15   C19   S    
C20   H2    S    
C15   O3    S    
C4    O9    A    
C5    H14   S    
C17   C20   S    
C13   O10   A    
C12   C20   S    
H9    O6    S    
C10   H16   S    
C5    C22   S    
C10   O4    S    
C12   C14   S    
C11   F4    S    
C1    C23   S    
C21   H10   S    
C10   C11   S    
C18   H3    S    
C5    H13   S    
Cu1   O1    S    
C13   C26   S    
C17   F6    S    
C7    N1    A    
C6    N1    A    
C15   C16   S    
Cu2   O9    S    
C4    O8    A    
C15   H1    S    
Cu1   Cu2   S    
Cu2   O13   S    
C24   C25   A    
C14   O12   A    
C21   O6    S    
C3    F1    S    
C18   C19   S    
C18   F7    S    
C8    N2    A    
C6    C11   S    
Cu1   O10   S    
C22   C23   A    
C17   O14   S    
C9    N2    A    
C23   C24   A    
C17   C19   S    
C25   C26   A    
C4    C19   S    
Cu2   O11   S    
C12   C21   S    
C20   H11   S    
C8    F3    S    
C12   C16   S    
C7    H15   S    
C3    C5    S    
C16   O5    S    
C1    O7    A    
