data_mof_unit_11203.cif
_audit_creation_date              2012-10-26T19:48:06-0400
_audit_creation_method            fapswitch 2.2
_symmetry_space_group_name_H-M    P1
_symmetry_Int_Tables_number       1
_space_group_crystal_system       triclinic
_cell_length_a                    10.731634
_cell_length_b                    9.419788
_cell_length_c                    10.619812
_cell_angle_alpha                 89.805888
_cell_angle_beta                  89.846758
_cell_angle_gamma                 90.067193
_cell_volume                      1073.54304106

loop_
_atom_site_label
_atom_site_type_symbol
_atom_type_description
_atom_site_fract_x
_atom_site_fract_y
_atom_site_fract_z
_atom_type_partial_charge
C1    C     C_R   0.259767 0.500113 0.503088 0.549490
C2    C     C_3   0.926474 0.463054 0.379237 -0.265925
C3    C     C_3   0.612200 0.083718 0.566258 -0.104342
C4    C     C_3   0.612213 0.916222 0.566129 -0.105266
C5    C     C_3   0.389987 0.083400 0.569779 -0.104496
C6    C     C_3   0.389998 0.915881 0.569802 -0.104215
C7    C     C_3   0.498560 0.083973 0.373208 -0.101419
C8    C     C_3   0.498484 0.916859 0.373212 -0.103584
C9    C     C_R   0.500238 0.500310 0.259284 0.557834
C10   C     C_R   0.739682 0.500269 0.506743 0.551059
C11   C     C_R   0.500190 0.499684 0.740771 0.545058
C12   C     C_3   0.500678 0.501010 0.122367 0.047766
C13   C     C_3   0.500789 0.635119 0.040064 -0.114737
C14   C     C_3   0.398262 0.432903 0.042533 -0.128059
C15   C     C_3   0.398330 0.566881 0.957987 -0.125614
C16   C     C_3   0.500663 0.498923 0.877602 0.047832
C17   C     C_3   0.603151 0.566997 0.957362 -0.129079
C18   C     C_3   0.500634 0.364806 0.959865 -0.118368
C19   C     C_3   0.603078 0.433037 0.041985 -0.128964
C20   C     C_3   0.888765 0.714506 0.673943 -0.422762
C21   C     C_3   0.868867 0.375404 0.736897 -0.432151
C22   C     C_3   0.073163 0.653507 0.533427 -0.211472
C23   C     C_3   0.073594 0.401348 0.614280 -0.212340
C24   C     C_3   0.929898 0.653425 0.545467 -0.089000
C25   C     C_3   0.930147 0.385130 0.605509 -0.095162
C26   C     C_3   0.069752 0.450859 0.379473 -0.252715
C27   C     C_3   0.121906 0.501001 0.507568 0.033978
C28   C     C_3   0.877670 0.501331 0.513224 0.084271
Cu1   Cu    Cu3+1 0.499860 0.642410 0.500060 0.859944
Cu2   Cu    Cu3+1 0.499860 0.357590 0.500060 0.858935
H1    H     H_    0.314644 0.621452 0.920270 0.090282
H2    H     H_    0.414757 0.122784 0.322170 0.112934
H3    H     H_    0.414626 0.878203 0.322276 0.111061
H4    H     H_    0.581122 0.122801 0.319584 0.112733
H5    H     H_    0.580936 0.878477 0.319524 0.110190
H6    H     H_    0.302751 0.120638 0.524331 0.109944
H7    H     H_    0.302751 0.878842 0.524389 0.109048
H8    H     H_    0.500859 0.745851 0.075579 0.096787
H9    H     H_    0.314513 0.378211 0.080673 0.091956
H10   H     H_    0.686967 0.621549 0.919245 0.088692
H11   H     H_    0.500649 0.254113 0.924250 0.099659
H12   H     H_    0.897573 0.545841 0.310167 0.104197
H13   H     H_    0.686812 0.378455 0.079574 0.092992
H14   H     H_    0.100652 0.725187 0.454402 0.102306
H15   H     H_    0.116807 0.294337 0.606937 0.103279
H16   H     H_    0.118353 0.696751 0.619481 0.116016
H17   H     H_    0.101536 0.445798 0.707042 0.113027
H18   H     H_    0.894102 0.728604 0.472798 0.124847
H19   H     H_    0.911436 0.279887 0.561575 0.124822
H20   H     H_    0.109164 0.516156 0.301348 0.107409
H21   H     H_    0.097232 0.338622 0.362374 0.115380
H22   H     H_    0.893806 0.832258 0.670338 0.096408
H23   H     H_    0.885807 0.360784 0.346633 0.109027
H24   H     H_    0.791843 0.684496 0.698620 0.154375
H25   H     H_    0.951018 0.679887 0.751248 0.121116
H26   H     H_    0.765881 0.371320 0.730370 0.156344
H27   H     H_    0.899582 0.275914 0.783850 0.107242
H28   H     H_    0.895518 0.463824 0.799199 0.127519
H29   H     H_    0.617378 0.123066 0.664753 0.109062
H30   H     H_    0.617561 0.876081 0.664568 0.110967
H31   H     H_    0.698261 0.121154 0.518082 0.110930
H32   H     H_    0.698053 0.879680 0.517527 0.113945
H33   H     H_    0.387357 0.122738 0.668385 0.109790
H34   H     H_    0.387352 0.875838 0.668419 0.111480
N1    N     N_3   0.500250 0.143650 0.502780 -0.220143
N2    N     N_3   0.500250 0.856350 0.502780 -0.219682
O1    O     O_R   0.317570 0.620260 0.500070 -0.516201
O2    O     O_R   0.317570 0.379740 0.500070 -0.513949
O3    O     O_R   0.499850 0.620240 0.316900 -0.513771
O4    O     O_R   0.499850 0.379760 0.316900 -0.512099
O5    O     O_R   0.682190 0.620260 0.500030 -0.517245
O6    O     O_R   0.682190 0.379740 0.500030 -0.519626
O7    O     O_R   0.499910 0.620280 0.683200 -0.512690
O8    O     O_R   0.499910 0.379720 0.683200 -0.516866

loop_
_geom_bond_atom_site_label_1
_geom_bond_atom_site_label_2
_ccdc_geom_bond_type
C8    N2    S    
C23   H15   S    
C14   C18   S    
C7    C8    S    
C25   C28   S    
C26   C27   S    
C9    O3    A    
C26   H20   S    
C5    C6    S    
Cu2   O8    S    
Cu1   O7    S    
C15   C16   S    
C5    H6    S    
C4    H32   S    
C1    O2    A    
C5    H33   S    
C18   C19   S    
C6    H34   S    
C17   C19   S    
C14   H9    S    
Cu1   O1    S    
C22   H14   S    
C20   C24   S    
C16   C17   S    
C23   C27   S    
C10   O5    A    
C3    N1    S    
C20   H25   S    
Cu2   O4    S    
C19   H13   S    
Cu1   O3    S    
C3    H31   S    
C23   H17   S    
C24   H18   S    
C9    O4    A    
C5    N1    S    
C11   O7    A    
C18   H11   S    
C2    H23   S    
C17   H10   S    
C21   H27   S    
Cu1   Cu2   S    
C7    N1    S    
C11   C16   S    
C4    H30   S    
C6    H7    S    
C2    C26   S    
C13   H8    S    
C20   H24   S    
C22   H16   S    
C12   C14   S    
C22   C27   S    
C13   C15   S    
C7    H4    S    
C22   C24   S    
C3    C4    S    
C10   C28   S    
C21   C25   S    
C7    H2    S    
C24   C28   S    
C11   O8    A    
C21   H26   S    
Cu2   O6    S    
C15   H1    S    
C13   C17   S    
C21   H28   S    
C20   H22   S    
C26   H21   S    
C4    N2    S    
C2    H12   S    
C12   C19   S    
C1    O1    A    
C8    H3    S    
C23   C25   S    
C9    C12   S    
C25   H19   S    
Cu2   N1    S    
Cu1   N2    S    
C6    N2    S    
C12   C13   S    
C16   C18   S    
C1    C27   S    
C14   C15   S    
C2    C28   S    
C8    H5    S    
Cu2   O2    S    
C3    H29   S    
Cu1   O5    S    
C10   O6    A    
