data_mof_unit_40206.cif
_audit_creation_date              2012-12-10T19:05:20-0500
_audit_creation_method            fapswitch 2.2
_symmetry_space_group_name_H-M    P1
_symmetry_Int_Tables_number       1
_space_group_crystal_system       triclinic
_cell_length_a                    9.560412
_cell_length_b                    10.843374
_cell_length_c                    17.381028
_cell_angle_alpha                 90.906687
_cell_angle_beta                  86.388678
_cell_angle_gamma                 90.500751
_cell_volume                      1797.98396811

loop_
_atom_site_label
_atom_site_type_symbol
_atom_type_description
_atom_site_fract_x
_atom_site_fract_y
_atom_site_fract_z
_atom_type_partial_charge
C1    C     C_R   0.500207 0.737420 0.502730 0.832345
C2    C     C_R   0.372108 0.580569 0.770962 -0.250790
C3    C     C_R   0.414102 0.483152 0.146156 -0.129845
C4    C     C_R   0.406692 0.481669 0.225981 -0.196615
C5    C     C_R   0.656486 0.522917 0.225196 -0.195472
C6    C     C_R   0.663610 0.526228 0.145037 -0.143274
C7    C     C_R   0.542258 0.508085 0.105037 0.178145
C8    C     C_2   0.442833 0.530096 0.978713 -0.120963
C9    C     C_2   0.553627 0.510722 0.020455 -0.219894
C10   C     C_R   0.527492 0.501595 0.266108 -0.026165
C11   C     C_R   0.375126 0.934601 0.511366 0.147102
C12   C     C_R   0.482051 0.499292 0.649466 0.889710
C13   C     C_R   0.499437 0.869926 0.513702 -0.179229
C14   C     C_R   0.620653 0.934756 0.532224 -0.215437
C15   C     C_R   0.621327 0.063870 0.534927 0.380216
C16   C     C_R   0.499290 0.128997 0.516461 -0.198831
C17   C     C_R   0.374556 0.061283 0.512870 0.112876
C18   C     C_3   0.259419 0.064566 0.458699 -0.463415
C19   C     C_3   0.262037 0.924770 0.456501 -0.433803
C20   C     C_R   0.933285 0.463520 0.435900 0.179495
C21   C     C_R   0.921490 0.558511 0.557179 0.471305
C22   C     C_R   0.069678 0.555130 0.557930 -0.084880
C23   C     C_R   0.499610 0.262223 0.504251 0.838837
C24   C     C_R   0.080206 0.465132 0.435420 0.230287
C25   C     C_3   0.089267 0.345079 0.392847 -0.481172
C26   C     C_3   0.930127 0.343459 0.393628 -0.446533
C27   C     C_R   0.518020 0.500240 0.350265 0.773814
C28   C     C_R   0.471877 0.503224 0.733221 -0.170816
C29   C     C_R   0.560409 0.432200 0.776039 0.397431
C30   C     C_R   0.549396 0.440877 0.855962 -0.218171
C31   C     C_R   0.453015 0.521832 0.894100 0.020822
C32   C     C_R   0.362398 0.590642 0.850990 0.422710
Cu1   Cu    Cu3+1 0.359330 0.500020 0.500000 0.967847
Cu2   Cu    Cu3+1 0.640670 0.499980 0.500000 1.047800
H1    H     H_    0.763725 0.543689 0.114241 0.143178
H2    H     H_    0.716153 0.885860 0.541924 0.224084
H3    H     H_    0.160670 0.099522 0.487987 0.234143
H4    H     H_    0.292649 0.106680 0.402471 0.190206
H5    H     H_    0.165051 0.881746 0.483100 0.220091
H6    H     H_    0.299352 0.885513 0.399431 0.194434
H7    H     H_    0.121496 0.599125 0.604766 0.179163
H8    H     H_    0.140473 0.353559 0.334081 0.183235
H9    H     H_    0.306341 0.463853 0.256108 0.145600
H10   H     H_    0.131780 0.272946 0.428169 0.220587
H11   H     H_    0.890143 0.352852 0.335344 0.187376
H12   H     H_    0.880926 0.268298 0.428672 0.256170
H13   H     H_    0.751399 0.538183 0.255012 0.151618
H14   H     H_    0.657091 0.498792 0.991895 0.168605
H15   H     H_    0.319429 0.462658 0.117409 0.132044
H16   H     H_    0.303551 0.635342 0.737999 0.197816
H17   H     H_    0.342489 0.554757 0.006925 0.189813
H18   H     H_    0.614859 0.382055 0.888037 0.186431
N1    N     N_R   0.852130 0.499070 0.499500 -0.209336
N2    N     N_R   0.148040 0.499110 0.499500 -0.214602
O1    O     O_R   0.381190 0.680360 0.500000 -0.589363
O2    O     O_R   0.618770 0.680320 0.499990 -0.565417
O3    O     O_R   0.367430 0.500040 0.613600 -0.602253
O4    O     O_R   0.605020 0.500000 0.613590 -0.481710
O5    O     O_R   0.381230 0.319680 0.500010 -0.581269
O6    O     O_R   0.618810 0.319640 0.500000 -0.530236
O7    O     O_R   0.394980 0.500000 0.386410 -0.590762
O8    O     O_R   0.632570 0.499960 0.386400 -0.597737
Cl1   Cl    Cl    0.681200 0.326512 0.732379 -0.483695
Cl2   Cl    Cl    0.778331 0.135642 0.560623 -0.547377
Cl3   Cl    Cl    0.834626 0.650891 0.628630 -0.554056
Cl4   Cl    Cl    0.238218 0.693270 0.894649 -0.572223

loop_
_geom_bond_atom_site_label_1
_geom_bond_atom_site_label_2
_ccdc_geom_bond_type
C10   C27   S    
Cu1   O1    S    
C23   O5    A    
C15   Cl2   S    
C29   Cl1   S    
Cu2   O2    S    
C29   C30   A    
C27   O8    A    
Cu1   O3    S    
C21   N1    A    
C5    H13   S    
C32   Cl4   S    
C31   C32   A    
C30   C31   A    
C12   O4    A    
C17   C18   S    
C18   H4    S    
C5    C10   A    
C22   N2    A    
C25   C26   S    
C21   C22   A    
C6    H1    S    
Cu2   O6    S    
C11   C13   A    
C8    H17   S    
C11   C19   S    
C6    C7    A    
C25   H8    S    
C19   H5    S    
C12   C28   S    
C5    C6    A    
C27   O7    A    
C25   H10   S    
C2    C32   A    
C28   C29   A    
C4    H9    S    
C18   H3    S    
Cu1   Cu2   S    
C16   C23   S    
C3    C7    A    
C14   H2    S    
C23   O6    A    
C20   C24   A    
C1    O1    A    
C22   H7    S    
C1    C13   S    
C19   H6    S    
C12   O3    A    
C24   N2    A    
C15   C16   A    
C3    H15   S    
C7    C9    S    
C9    H14   S    
Cu2   O8    S    
C24   C25   S    
Cu2   N1    S    
Cu1   O7    S    
C18   C19   S    
Cu1   N2    S    
Cu2   O4    S    
C26   H12   S    
C14   C15   A    
C20   N1    A    
C2    C28   A    
C2    H16   S    
C26   H11   S    
C21   Cl3   S    
Cu1   O5    S    
C13   C14   A    
C8    C31   S    
C4    C10   A    
C1    O2    A    
C30   H18   S    
C3    C4    A    
C16   C17   A    
C8    C9    D    
C20   C26   S    
C11   C17   A    
