data_mof_unit_21234.cif
_audit_creation_date              2012-12-10T17:14:27-0500
_audit_creation_method            fapswitch 2.2
_symmetry_space_group_name_H-M    P1
_symmetry_Int_Tables_number       1
_space_group_crystal_system       triclinic
_cell_length_a                    15.348405
_cell_length_b                    14.690829
_cell_length_c                    10.18196
_cell_angle_alpha                 89.614645
_cell_angle_beta                  84.866062
_cell_angle_gamma                 89.943285
_cell_volume                      2286.57417253

loop_
_atom_site_label
_atom_site_type_symbol
_atom_type_description
_atom_site_fract_x
_atom_site_fract_y
_atom_site_fract_z
_atom_type_partial_charge
C1    C     C_R   0.391203 0.125390 0.548982 1.044043
C2    C     C_R   0.616352 0.882817 0.446881 0.951228
C3    C     C_R   0.608634 0.125383 0.450419 1.007257
C4    C     C_R   0.383258 0.883363 0.553620 0.954189
C5    C     C_R   0.891203 0.625390 0.548982 1.044038
C6    C     C_R   0.116352 0.382817 0.446881 0.951226
C7    C     C_R   0.108634 0.625383 0.450419 1.007254
C8    C     C_R   0.883258 0.383364 0.553621 0.954186
C9    C     C_2   0.489134 0.994066 0.929208 0.400833
C10   C     C_2   0.511443 0.994395 0.071363 0.388772
C11   C     C_2   0.989134 0.494065 0.929208 0.400835
C12   C     C_2   0.011442 0.494395 0.071363 0.388771
C13   C     C_2   0.307696 0.825629 0.581980 -0.464876
C14   C     C_2   0.662438 0.206486 0.433181 -0.363644
C15   C     C_2   0.691242 0.824109 0.419316 -0.399494
C16   C     C_2   0.337720 0.206995 0.564479 -0.412575
C17   C     C_2   0.807696 0.325629 0.581980 -0.464875
C18   C     C_2   0.162438 0.706487 0.433181 -0.363643
C19   C     C_2   0.191242 0.324109 0.419315 -0.399493
C20   C     C_2   0.837720 0.706995 0.564479 -0.412579
C21   C     C_2   0.236003 0.834840 0.515129 0.371579
C22   C     C_2   0.670149 0.265473 0.533210 0.413835
C23   C     C_2   0.765091 0.836326 0.479576 0.343104
C24   C     C_2   0.330957 0.266644 0.463711 0.373518
C25   C     C_2   0.736003 0.334840 0.515128 0.371582
C26   C     C_2   0.170149 0.765474 0.533210 0.413835
C27   C     C_2   0.265091 0.336325 0.479577 0.343106
C28   C     C_2   0.830957 0.766644 0.463711 0.373519
H1    H     H_    0.388275 0.015136 0.145211 0.222759
H2    H     H_    0.613431 0.996496 0.852503 0.206399
H3    H     H_    0.888275 0.515136 0.145211 0.222760
H4    H     H_    0.113431 0.496497 0.852503 0.206399
H5    H     H_    0.700206 0.216625 0.338683 0.132699
H6    H     H_    0.312388 0.770318 0.652544 0.166283
H7    H     H_    0.299567 0.217174 0.658440 0.158355
H8    H     H_    0.684185 0.765671 0.356125 0.167572
H9    H     H_    0.200206 0.716626 0.338683 0.132698
H10   H     H_    0.812387 0.270320 0.652547 0.166283
H11   H     H_    0.799567 0.717175 0.658440 0.158353
H12   H     H_    0.184186 0.265672 0.356124 0.167571
N1    N     N_2   0.549450 1.000000 0.831550 -0.185242
N2    N     N_2   0.450550 0.000000 0.168450 -0.179082
N3    N     N_2   0.049450 0.500000 0.831550 -0.185240
N4    N     N_2   0.950550 0.500000 0.168450 -0.179080
O1    O     O_R   0.398960 0.091100 0.433300 -0.539207
O2    O     O_R   0.601040 0.908900 0.566700 -0.576651
O3    O     O_R   0.601040 0.091100 0.566700 -0.521124
O4    O     O_R   0.398960 0.908900 0.433300 -0.563049
O5    O     O_R   0.898960 0.591100 0.433300 -0.539206
O6    O     O_R   0.101040 0.408900 0.566700 -0.576650
O7    O     O_R   0.101040 0.591100 0.566700 -0.521123
O8    O     O_R   0.898960 0.408900 0.433300 -0.563046
O9    O     O_R   0.430710 0.091090 0.646210 -0.547040
O10   O     O_R   0.569290 0.908910 0.353790 -0.563042
O11   O     O_R   0.569290 0.091090 0.353790 -0.600287
O12   O     O_R   0.430710 0.908910 0.646210 -0.604694
O13   O     O_R   0.930710 0.591090 0.646210 -0.547041
O14   O     O_R   0.069290 0.408910 0.353790 -0.563042
O15   O     O_R   0.069290 0.591090 0.353790 -0.600288
O16   O     O_R   0.930710 0.408910 0.646210 -0.604693
Zn1   Zn    Zn3+2 0.478810 1.000000 0.357840 1.104653
Zn2   Zn    Zn3+2 0.521190 1.000000 0.642160 1.102974
Zn3   Zn    Zn3+2 0.978810 0.500000 0.357840 1.104655
Zn4   Zn    Zn3+2 0.021190 0.500000 0.642160 1.102975
S1    S     S_3+6 0.604611 0.268869 0.686102 0.064265
O17   O     O_2   0.616654 0.358958 0.751358 -0.269630
O18   O     O_2   0.510088 0.258014 0.663594 -0.308730
O19   O     O_3   0.635151 0.185645 0.786203 -0.564950
H13   H     H_    0.595093 0.191604 0.867505 0.360727
S2    S     S_3+6 0.209656 0.930827 0.419488 0.071036
O20   O     O_2   0.230774 0.016835 0.488771 -0.307642
O21   O     O_2   0.260102 0.927457 0.286216 -0.327879
O22   O     O_3   0.102044 0.929362 0.399508 -0.455499
H14   H     H_    0.092002 0.983877 0.345104 0.397885
S3    S     S_3+6 0.396767 0.269972 0.310996 0.082767
O23   O     O_2   0.491439 0.261166 0.334250 -0.281854
O24   O     O_2   0.371072 0.194590 0.223235 -0.300909
O25   O     O_3   0.381607 0.370162 0.235308 -0.497445
H15   H     H_    0.421310 0.368304 0.153131 0.392181
S4    S     S_3+6 0.794373 0.937934 0.558028 0.086852
O26   O     O_2   0.772580 0.018812 0.476287 -0.288389
O27   O     O_2   0.746097 0.944845 0.692605 -0.317420
O28   O     O_3   0.902632 0.938418 0.573294 -0.443559
H16   H     H_    0.909539 0.907273 0.658279 0.395025
S5    S     S_3+6 0.104611 0.768869 0.686102 0.064264
O29   O     O_2   0.116655 0.858958 0.751359 -0.269629
O30   O     O_2   0.010088 0.758013 0.663595 -0.308732
O31   O     O_3   0.135152 0.685644 0.786203 -0.564950
H17   H     H_    0.095095 0.691604 0.867506 0.360727
S6    S     S_3+6 0.709658 0.430825 0.419481 0.071035
O32   O     O_2   0.730776 0.516835 0.488759 -0.307623
O33   O     O_2   0.760104 0.427450 0.286210 -0.327900
O34   O     O_3   0.602045 0.429360 0.399501 -0.455504
H18   H     H_    0.592008 0.483858 0.345062 0.397882
S7    S     S_3+6 0.896766 0.769972 0.310995 0.082770
O35   O     O_2   0.991439 0.761166 0.334248 -0.281840
O36   O     O_2   0.871071 0.694589 0.223236 -0.300920
O37   O     O_3   0.881607 0.870161 0.235307 -0.497439
H19   H     H_    0.921298 0.868296 0.153117 0.392180
S8    S     S_3+6 0.294372 0.437934 0.558030 0.086853
O38   O     O_2   0.272579 0.518812 0.476291 -0.288389
O39   O     O_2   0.246096 0.444842 0.692608 -0.317421
O40   O     O_3   0.402632 0.438417 0.573296 -0.443552
H20   H     H_    0.409538 0.407274 0.658282 0.395026
O41   O     O_3   0.597275 0.981209 0.099683 -0.587125
C29   C     C_3   0.643348 0.064777 0.089686 -0.192245
H21   H     H_    0.600954 0.126368 0.103581 0.159863
H22   H     H_    0.683676 0.069996 0.994187 0.170794
H23   H     H_    0.690199 0.065656 0.166545 0.210575
O42   O     O_3   0.402538 0.990324 0.901220 -0.578713
C30   C     C_3   0.370447 0.901159 0.926978 -0.199418
H24   H     H_    0.355836 0.888331 0.034117 0.158028
H25   H     H_    0.416239 0.847879 0.884575 0.156087
H26   H     H_    0.308155 0.893566 0.880608 0.225270
O43   O     O_3   0.097275 0.481208 0.099683 -0.587124
C31   C     C_3   0.143348 0.564775 0.089687 -0.192243
H27   H     H_    0.100955 0.626367 0.103581 0.159861
H28   H     H_    0.183677 0.569994 0.994188 0.170794
H29   H     H_    0.190199 0.565655 0.166546 0.210575
O44   O     O_3   0.902538 0.490322 0.901220 -0.578714
C32   C     C_3   0.870448 0.401157 0.926979 -0.199422
H30   H     H_    0.855838 0.388330 0.034118 0.158030
H31   H     H_    0.916240 0.347878 0.884575 0.156089
H32   H     H_    0.808155 0.393564 0.880610 0.225268

loop_
_geom_bond_atom_site_label_1
_geom_bond_atom_site_label_2
_ccdc_geom_bond_type
C21   C26   S    
O34   H18   S    
O5    Zn3   S    
H1    N2    S    
C10   N2    D    
O6    Zn4   S    
O22   H14   S    
C6    O14   A    
C30   H24   S    
C18   C26   D    
C24   C27   S    
C14   H5    S    
S6    O32   D    
S7    O37   S    
C5    C20   S    
S5    O29   D    
C2    O2    A    
C6    C19   S    
C25   S6    S    
O2    Zn2   S    
C28   S7    S    
C18   H9    S    
C16   H7    S    
C29   H21   S    
O43   C31   S    
C9    O42   S    
C31   H27   S    
C3    O3    A    
C4    C13   S    
C1    O9    A    
O42   C30   S    
C32   H32   S    
C3    O11   A    
S7    O35   D    
O19   H13   S    
S1    O18   D    
C22   C25   S    
H2    N1    S    
C11   N3    D    
S2    O20   D    
C23   S4    S    
C19   C27   D    
C9    C10   S    
C8    O8    A    
C12   O43   S    
S1    O19   S    
C15   C23   D    
C16   C24   D    
C4    O12   A    
C5    O5    A    
N1    Zn2   S    
O3    Zn2   S    
S4    O28   S    
C11   O44   S    
C7    O15   A    
N3    Zn4   S    
S5    O30   D    
N4    Zn3   S    
C27   S8    S    
H3    N4    S    
S4    O27   D    
C2    O10   A    
C20   H11   S    
O25   H15   S    
C20   C28   D    
S8    O40   S    
O13   Zn4   S    
S3    O23   D    
C22   S1    S    
O9    Zn2   S    
S6    O33   D    
O28   H16   S    
C7    C18   S    
S2    O22   S    
S8    O39   D    
C13   C21   D    
C30   H25   S    
C1    C16   S    
C23   C28   S    
C6    O6    A    
C2    C15   S    
S3    O24   D    
N2    Zn1   S    
C32   H30   S    
C3    C14   S    
S1    O17   D    
O12   Zn2   S    
C15   H8    S    
O44   C32   S    
S6    O34   S    
C4    O4    A    
S5    O31   S    
O14   Zn3   S    
C9    N1    D    
O7    Zn4   S    
S4    O26   D    
O8    Zn3   S    
C11   C12   S    
S7    O36   D    
C24   S3    S    
O10   Zn1   S    
O41   C29   S    
O15   Zn3   S    
C8    C17   S    
C31   H29   S    
C5    O13   A    
C21   S2    S    
O16   Zn4   S    
C17   C25   D    
C14   C22   D    
C7    O7    A    
C13   H6    S    
C12   N4    D    
C8    O16   A    
C1    O1    A    
O4    Zn1   S    
C29   H22   S    
C26   S5    S    
O11   Zn1   S    
O1    Zn1   S    
S8    O38   D    
H4    N3    S    
C31   H28   S    
C30   H26   S    
C17   H10   S    
S3    O25   S    
C32   H31   S    
C19   H12   S    
O31   H17   S    
O37   H19   S    
O40   H20   S    
C10   O41   S    
S2    O21   D    
C29   H23   S    
