data_mof_unit_15713.cif
_audit_creation_date              2012-12-10T16:54:55-0500
_audit_creation_method            fapswitch 2.2
_symmetry_space_group_name_H-M    P1
_symmetry_Int_Tables_number       1
_space_group_crystal_system       triclinic
_cell_length_a                    7.902144
_cell_length_b                    8.559523
_cell_length_c                    15.71347
_cell_angle_alpha                 92.845244
_cell_angle_beta                  84.844734
_cell_angle_gamma                 92.967626
_cell_volume                      1056.03611806

loop_
_atom_site_label
_atom_site_type_symbol
_atom_type_description
_atom_site_fract_x
_atom_site_fract_y
_atom_site_fract_z
_atom_type_partial_charge
C1    C     C_R   0.544599 0.794032 0.499016 0.962346
C2    C     C_3   0.299163 0.493399 0.059380 -0.007844
C3    C     C_3   0.486827 0.491948 0.083471 0.234098
C4    C     C_3   0.570945 0.344794 0.041209 -0.424582
C5    C     C_3   0.583113 0.352272 0.943298 -0.384281
C6    C     C_1   0.494320 0.493946 0.174790 -0.098026
C7    C     C_1   0.496006 0.498060 0.825532 -0.103002
C8    C     C_1   0.499346 0.499118 0.750097 -0.158875
C9    C     C_2   0.567605 0.957463 0.501314 -0.371190
C10   C     C_2   0.431256 0.042582 0.502634 -0.367520
C11   C     C_R   0.500172 0.500312 0.661272 0.911055
C12   C     C_R   0.455209 0.205971 0.502218 0.927066
C13   C     C_R   0.499630 0.499213 0.338746 0.867661
C14   C     C_3   0.301963 0.496739 0.958809 -0.003018
C15   C     C_3   0.587579 0.648940 0.952413 -0.047383
C16   C     C_3   0.587085 0.641300 0.050840 -0.454707
C17   C     C_1   0.498105 0.496504 0.249963 -0.180384
C18   C     C_3   0.491878 0.496993 0.917338 0.248826
H1    H     H_    0.253167 0.608803 0.085562 0.137530
H2    H     H_    0.700282 0.335381 0.062124 0.182077
H3    H     H_    0.696437 0.007117 0.502643 0.187548
H4    H     H_    0.301757 0.992715 0.502715 0.199499
H5    H     H_    0.258316 0.615499 0.947888 0.074913
H6    H     H_    0.513683 0.750968 0.938809 0.147398
H7    H     H_    0.529124 0.748001 0.081885 0.150163
H8    H     H_    0.718794 0.642451 0.070574 0.198439
H9    H     H_    0.532123 0.241012 0.914796 0.182388
H10   H     H_    0.719151 0.358934 0.918186 0.164773
H11   H     H_    0.495764 0.237070 0.060914 0.169622
N1    N     N_2   0.950340 0.457950 0.477370 0.011551
N2    N     N_2   0.049660 0.542050 0.522630 0.107952
O1    O     O_R   0.389240 0.738570 0.505550 -0.598041
O2    O     O_R   0.678400 0.711630 0.491050 -0.579976
O3    O     O_R   0.355360 0.513470 0.630110 -0.588753
O4    O     O_R   0.644510 0.486530 0.615610 -0.559421
O5    O     O_R   0.321600 0.288370 0.508950 -0.652447
O6    O     O_R   0.610760 0.261430 0.494450 -0.613686
O7    O     O_R   0.355490 0.513470 0.384390 -0.666206
O8    O     O_R   0.644640 0.486530 0.369890 -0.623377
Zn1   Zn    Zn3+2 0.306930 0.517990 0.509680 1.003929
Zn2   Zn    Zn3+2 0.693070 0.482010 0.490320 1.011702
C19   C     C_3   0.166433 0.390350 0.913309 -0.363815
C20   C     C_3   0.210156 0.221165 0.887746 -0.855454
H12   H     H_    0.305912 0.217568 0.831665 0.260649
H13   H     H_    0.256759 0.159763 0.940737 0.239630
H14   H     H_    0.093917 0.155428 0.868337 0.248825
H15   H     H_    0.043230 0.388973 0.952936 0.199915
H16   H     H_    0.140615 0.446076 0.853591 0.212885
C21   C     C_3   0.177774 0.365540 0.104208 -0.379256
C22   C     C_3   0.008235 0.431290 0.139662 -0.937369
H17   H     H_    0.028773 0.520394 0.191995 0.265913
H18   H     H_    0.948300 0.487257 0.088683 0.251200
H19   H     H_    0.921395 0.335702 0.165776 0.259949
H20   H     H_    0.153057 0.261999 0.061981 0.226798
H21   H     H_    0.233829 0.317715 0.159065 0.209397
C23   C     C_3   0.023897 0.376905 0.400422 -0.175045
C24   C     C_3   0.921281 0.228342 0.376410 -0.874605
H22   H     H_    0.907412 0.149947 0.430846 0.258385
H23   H     H_    0.795761 0.252801 0.356038 0.288880
H24   H     H_    0.990986 0.165582 0.321527 0.214564
H25   H     H_    0.035560 0.456834 0.346459 0.175737
H26   H     H_    0.146565 0.332743 0.409790 0.229273
Cl1   Cl    Cl    0.959034 0.663015 0.603196 -0.506423
C25   C     C_3   0.771285 0.680236 0.909991 -0.356638
C26   C     C_3   0.840246 0.847017 0.930298 -0.901681
H27   H     H_    0.758162 0.933823 0.906472 0.259962
H28   H     H_    0.846711 0.868681 0.000181 0.255684
H29   H     H_    0.970616 0.863884 0.898327 0.256970
H30   H     H_    0.859406 0.597030 0.931898 0.198429
H31   H     H_    0.774426 0.664784 0.839344 0.239427

loop_
_geom_bond_atom_site_label_1
_geom_bond_atom_site_label_2
_ccdc_geom_bond_type
C14   H5    S    
C15   C18   S    
C22   H18   S    
C20   H12   S    
N1    Zn2   S    
C16   H7    S    
C2    C21   S    
C25   H31   S    
C12   O5    A    
C5    H10   S    
C9    C10   D    
C14   C18   S    
C4    H11   S    
C11   O3    A    
C13   C17   S    
C14   C19   S    
C3    C6    S    
O2    Zn2   S    
C25   C26   S    
C7    C18   S    
C11   O4    A    
C22   H17   S    
C13   O7    A    
C15   C25   S    
C1    O2    A    
C7    C8    T    
O8    Zn2   S    
C19   H16   S    
C25   H30   S    
N2    Zn1   S    
O7    Zn1   S    
C20   H13   S    
C5    H9    S    
C9    H3    S    
C24   H22   S    
C10   C12   S    
C8    C11   S    
C2    C14   S    
C15   H6    S    
C2    C3    S    
C19   H15   S    
O1    Zn1   S    
O6    Zn2   S    
N1    N2    D    
O4    Zn2   S    
C20   H14   S    
C23   H26   S    
C13   O8    A    
C22   H19   S    
C24   H23   S    
C19   C20   S    
C15   C16   S    
C4    H2    S    
N2    Cl1   S    
O5    Zn1   S    
C26   H29   S    
C1    C9    S    
C23   C24   S    
C3    C4    S    
C26   H27   S    
C12   O6    A    
C21   C22   S    
C6    C17   T    
C23   H25   S    
O3    Zn1   S    
C24   H24   S    
C5    C18   S    
C2    H1    S    
C21   H21   S    
N1    C23   S    
C1    O1    A    
C10   H4    S    
C3    C16   S    
C21   H20   S    
C4    C5    S    
C26   H28   S    
C16   H8    S    
