data_mof_unit_48007.cif
_audit_creation_date              2012-12-11T15:37:30-0500
_audit_creation_method            fapswitch 2.2
_symmetry_space_group_name_H-M    P1
_symmetry_Int_Tables_number       1
_space_group_crystal_system       triclinic
_cell_length_a                    17.405683
_cell_length_b                    24.318527
_cell_length_c                    14.859576
_cell_angle_alpha                 90.159358
_cell_angle_beta                  125.955033
_cell_angle_gamma                 89.951026
_cell_volume                      5091.40858274

loop_
_atom_site_label
_atom_site_type_symbol
_atom_type_description
_atom_site_fract_x
_atom_site_fract_y
_atom_site_fract_z
_atom_type_partial_charge
C1    C     C_R   0.809419 0.625425 0.907438 -0.126988
C2    C     C_3   0.590397 0.498959 0.563507 0.068731
C3    C     C_3   0.069782 0.000688 0.471065 0.270005
C4    C     C_3   0.495662 0.383804 0.652684 -0.968959
C5    C     C_3   0.499984 0.616704 0.350240 -0.965047
C6    C     C_3   0.884546 0.992710 0.620253 -0.929803
C7    C     C_3   0.122307 0.998757 0.350908 -0.924031
C8    C     C_3   0.920886 0.000139 0.385985 0.074041
C9    C     C_3   0.082123 0.999869 0.581665 0.071610
C10   C     C_R   0.662289 0.310210 0.899009 -0.177384
C11   C     C_R   0.336149 0.693121 0.103449 -0.179066
C12   C     C_R   0.339635 0.310197 0.102878 -0.171341
C13   C     C_R   0.658579 0.686215 0.899957 -0.168831
C14   C     C_R   0.293618 0.731587 0.902574 -0.170875
C15   C     C_R   0.710378 0.267531 0.099384 -0.169735
C16   C     C_R   0.712849 0.733403 0.100194 -0.169001
C17   C     C_R   0.189615 0.372935 0.093922 -0.131550
C18   C     C_R   0.292262 0.267830 0.901847 -0.170445
C19   C     C_R   0.241472 0.688631 0.902485 -0.167924
C20   C     C_R   0.759223 0.312633 0.100030 -0.169879
C21   C     C_R   0.760579 0.687665 0.101128 -0.169687
C22   C     C_R   0.241103 0.311428 0.901605 -0.168705
C23   C     C_R   0.613318 0.265436 0.898193 -0.167173
C24   C     C_R   0.388718 0.735453 0.103677 -0.168270
C25   C     C_R   0.390429 0.266459 0.103150 -0.172606
C26   C     C_R   0.611437 0.732392 0.898904 -0.171134
C27   C     C_R   0.256298 0.673416 0.002379 0.148023
C28   C     C_R   0.189082 0.627710 0.094073 -0.135095
C29   C     C_R   0.741678 0.330452 0.000079 0.145814
C30   C     C_R   0.740394 0.667773 0.000943 0.143015
C31   C     C_R   0.257881 0.328371 0.001811 0.145828
C32   C     C_R   0.643814 0.240489 0.998636 0.143193
C33   C     C_R   0.360399 0.758862 0.002696 0.143072
C34   C     C_R   0.359871 0.241362 0.002365 0.143067
C35   C     C_R   0.644719 0.759304 0.998973 0.142621
C36   C     C_R   0.085637 0.450243 0.608141 -0.168808
C37   C     C_R   0.110540 0.549911 0.536084 -0.172916
C38   C     C_R   0.110916 0.450359 0.535895 -0.175390
C39   C     C_R   0.809904 0.374012 0.907241 -0.131225
C40   C     C_R   0.085380 0.549905 0.608423 -0.170022
C41   C     C_R   0.390819 0.950139 0.461091 -0.172406
C42   C     C_R   0.391881 0.049708 0.369236 -0.168487
C43   C     C_R   0.391810 0.950215 0.368666 -0.172549
C44   C     C_R   0.390723 0.049687 0.461544 -0.181666
C45   C     C_R   0.109826 0.500145 0.488072 0.133720
C46   C     C_R   0.062208 0.500030 0.634138 0.151311
C47   C     C_R   0.403985 0.999991 0.331068 0.144001
C48   C     C_R   0.400628 0.999897 0.514807 0.140992
C49   C     C_R   0.904562 0.375342 0.093983 -0.125866
C50   C     C_R   0.350760 0.152562 0.908141 -0.128466
C51   C     C_R   0.092529 0.630590 0.908095 -0.121664
C52   C     C_R   0.093278 0.370158 0.907996 -0.121807
C53   C     C_R   0.903920 0.623794 0.094042 -0.126272
C54   C     C_R   0.446430 0.848460 0.093158 -0.141768
C55   C     C_R   0.556494 0.150715 0.906430 -0.121604
C56   C     C_R   0.556955 0.849180 0.906235 -0.121870
C57   C     C_R   0.445936 0.151626 0.093354 -0.141045
C58   C     C_R   0.056338 0.545928 0.307793 -0.138517
C59   C     C_R   0.992429 0.453976 0.722753 -0.133117
C60   C     C_R   0.992457 0.545977 0.722980 -0.131926
C61   C     C_R   0.650394 0.847778 0.091740 -0.137489
C62   C     C_R   0.056230 0.454208 0.307599 -0.137557
C63   C     C_R   0.480215 0.046319 0.248348 -0.129086
C64   C     C_R   0.451101 0.953869 0.695157 -0.120775
C65   C     C_R   0.451153 0.045997 0.695347 -0.134463
C66   C     C_R   0.480367 0.953735 0.248378 -0.121511
C67   C     C_R   0.740651 0.454212 0.699060 -0.120829
C68   C     C_R   0.258018 0.545835 0.302116 -0.118794
C69   C     C_R   0.258354 0.455031 0.302861 -0.146580
C70   C     C_R   0.740387 0.545114 0.698561 -0.148252
C71   C     C_R   0.230163 0.953940 0.727228 -0.124244
C72   C     C_R   0.650185 0.152377 0.091994 -0.133010
C73   C     C_R   0.769312 0.045839 0.254572 -0.157449
C74   C     C_R   0.769355 0.954202 0.255052 -0.114906
C75   C     C_R   0.230145 0.045940 0.727543 -0.155912
C76   C     C_R   0.813248 0.637643 0.001172 0.040309
C77   C     C_R   0.184327 0.357642 0.000917 0.041124
C78   C     C_R   0.183215 0.643621 0.001130 0.041901
C79   C     C_R   0.814213 0.361080 0.000924 0.041270
C80   C     C_R   0.383950 0.184050 0.001532 0.047872
C81   C     C_R   0.619670 0.816767 0.998416 0.043641
C82   C     C_R   0.618953 0.183244 0.998710 0.041952
C83   C     C_R   0.350982 0.847274 0.907931 -0.131470
C84   C     C_R   0.384612 0.815923 0.001280 0.048952
C85   C     C_R   0.077432 0.500110 0.373138 0.054416
C86   C     C_R   0.014417 0.499971 0.687615 0.041814
C87   C     C_R   0.448887 0.000031 0.273239 0.042951
C88   C     C_R   0.434785 0.999898 0.631157 0.046031
C89   C     C_R   0.690708 0.499391 0.639669 0.043997
C90   C     C_R   0.306969 0.500787 0.362825 0.043030
C91   C     C_R   0.173554 0.999898 0.686182 0.064969
C92   C     C_R   0.826016 0.000030 0.285982 0.058627
C93   C     C_3   0.528064 0.450182 0.491232 -0.226705
C94   C     C_3   0.407078 0.501389 0.440091 0.068554
C95   C     C_3   0.469323 0.550158 0.512369 -0.225533
C96   C     C_3   0.466796 0.491594 0.395349 -0.217017
C97   C     C_3   0.530713 0.508758 0.608345 -0.217544
C98   C     C_3   0.008177 0.953715 0.539182 -0.217567
C99   C     C_3   0.995033 0.046345 0.428524 -0.252813
C100  C     C_3   0.995608 0.954494 0.426549 -0.221721
C101  C     C_3   0.007616 0.045487 0.541221 -0.256411
C102  C     C_3   0.467454 0.461084 0.533608 0.259078
C103  C     C_3   0.529882 0.539288 0.469930 0.257599
C104  C     C_3   0.933985 0.999365 0.497326 0.273288
H1    H     H_    0.751357 0.631895 0.821727 0.092622
H2    H     H_    0.061479 0.643792 0.824542 0.083377
H3    H     H_    0.062497 0.357116 0.824331 0.082894
H4    H     H_    0.931966 0.628571 0.180421 0.093728
H5    H     H_    0.495181 0.834928 0.178129 0.084696
H6    H     H_    0.509904 0.163816 0.820878 0.081469
H7    H     H_    0.510808 0.835841 0.820626 0.081856
H8    H     H_    0.494234 0.165375 0.178416 0.083139
H9    H     H_    0.075274 0.588045 0.335547 0.082569
H10   H     H_    0.985996 0.412469 0.694109 0.081953
H11   H     H_    0.986193 0.587484 0.694853 0.082674
H12   H     H_    0.247878 0.367758 0.179996 0.092626
H13   H     H_    0.075052 0.412120 0.335061 0.083439
H14   H     H_    0.469385 0.088890 0.258405 0.094525
H15   H     H_    0.434086 0.911642 0.667533 0.084153
H16   H     H_    0.434176 0.088190 0.668023 0.084009
H17   H     H_    0.469776 0.911173 0.258466 0.093569
H18   H     H_    0.723934 0.411756 0.672781 0.087248
H19   H     H_    0.274078 0.588319 0.328406 0.085616
H20   H     H_    0.275396 0.412739 0.329783 0.103304
H21   H     H_    0.722915 0.587423 0.671932 0.105260
H22   H     H_    0.209781 0.911629 0.701529 0.095802
H23   H     H_    0.247331 0.632811 0.180182 0.092986
H24   H     H_    0.791693 0.088238 0.275622 0.103241
H25   H     H_    0.791753 0.911864 0.276402 0.098457
H26   H     H_    0.209711 0.088197 0.701976 0.098501
H27   H     H_    0.554226 0.409794 0.484710 0.122747
H28   H     H_    0.443020 0.590504 0.518845 0.122275
H29   H     H_    0.437602 0.485715 0.306478 0.137623
H30   H     H_    0.559998 0.514624 0.697240 0.137083
H31   H     H_    0.014848 0.916879 0.587248 0.124511
H32   H     H_    0.988835 0.082980 0.380272 0.131082
H33   H     H_    0.989498 0.918418 0.376788 0.125734
H34   H     H_    0.751964 0.367792 0.821393 0.092169
H35   H     H_    0.013363 0.081412 0.591110 0.131159
H36   H     H_    0.643763 0.324252 0.820011 0.122130
H37   H     H_    0.352821 0.680648 0.182552 0.121395
H38   H     H_    0.359445 0.325372 0.182245 0.107755
H39   H     H_    0.636243 0.669043 0.820891 0.107810
H40   H     H_    0.274492 0.746396 0.823381 0.104384
H41   H     H_    0.731753 0.251404 0.178610 0.104436
H42   H     H_    0.736544 0.750840 0.179493 0.105448
H43   H     H_    0.271500 0.251963 0.822514 0.104160
H44   H     H_    0.184552 0.671223 0.823555 0.104345
H45   H     H_    0.311242 0.166203 0.822929 0.080060
H46   H     H_    0.816388 0.329540 0.179330 0.107325
H47   H     H_    0.819210 0.672009 0.180636 0.107462
H48   H     H_    0.183232 0.327883 0.822426 0.104145
H49   H     H_    0.558801 0.247503 0.818696 0.106621
H50   H     H_    0.443567 0.753415 0.182948 0.106849
H51   H     H_    0.446490 0.249270 0.182469 0.105193
H52   H     H_    0.555118 0.749320 0.819395 0.105284
H53   H     H_    0.077607 0.411012 0.635772 0.102471
H54   H     H_    0.117771 0.589134 0.507727 0.104362
H55   H     H_    0.118545 0.411170 0.507460 0.105269
H56   H     H_    0.688787 0.833842 0.176637 0.084165
H57   H     H_    0.077199 0.589117 0.636282 0.102505
H58   H     H_    0.391638 0.910864 0.495412 0.109744
H59   H     H_    0.393678 0.088944 0.336567 0.109144
H60   H     H_    0.393444 0.911000 0.335477 0.109696
H61   H     H_    0.391411 0.088948 0.496167 0.109056
H62   H     H_    0.378999 0.435802 0.576562 0.166903
H63   H     H_    0.458191 0.351994 0.666950 0.255169
H64   H     H_    0.543138 0.407650 0.730713 0.256178
H65   H     H_    0.538561 0.362774 0.629683 0.248417
H66   H     H_    0.616994 0.564949 0.425311 0.166053
H67   H     H_    0.689037 0.166474 0.177007 0.081540
H68   H     H_    0.536807 0.648606 0.335190 0.255402
H69   H     H_    0.457562 0.637649 0.374001 0.247764
H70   H     H_    0.452020 0.592862 0.272335 0.255924
H71   H     H_    0.809476 0.030906 0.466481 0.169191
H72   H     H_    0.820322 0.990986 0.619289 0.253628
H73   H     H_    0.928985 0.028152 0.672373 0.248302
H74   H     H_    0.924759 0.953885 0.657092 0.255693
H75   H     H_    0.196944 0.032315 0.509624 0.165702
H76   H     H_    0.187257 0.997009 0.353418 0.263062
H77   H     H_    0.080746 0.035755 0.303312 0.247001
H78   H     H_    0.311065 0.833459 0.822628 0.081408
H79   H     H_    0.079761 0.961170 0.308146 0.254929
H80   H     H_    0.932869 0.370082 0.180316 0.093177
N1    N     N_R   0.892620 0.603790 0.941800 -0.041629
N2    N     N_R   0.047790 0.602400 0.942090 -0.039411
N3    N     N_R   0.047790 0.397600 0.942090 -0.040133
N4    N     N_R   0.952210 0.602400 0.057910 -0.041709
N5    N     N_R   0.452210 0.897600 0.057910 -0.036251
N6    N     N_R   0.547790 0.102400 0.942090 -0.036652
N7    N     N_R   0.547790 0.897600 0.942090 -0.037470
N8    N     N_R   0.452210 0.102400 0.057910 -0.035862
N9    N     N_R   0.026300 0.529110 0.206760 -0.037308
N10   N     N_R   0.973700 0.470890 0.793240 -0.036618
N11   N     N_R   0.973700 0.529110 0.793240 -0.036123
N12   N     N_R   0.107380 0.396210 0.058200 -0.041025
N13   N     N_R   0.026300 0.470890 0.206760 -0.036736
N14   N     N_R   0.526300 0.029110 0.206760 -0.042946
N15   N     N_R   0.473700 0.970890 0.793240 -0.040073
N16   N     N_R   0.473700 0.029110 0.793240 -0.038876
N17   N     N_R   0.526300 0.970890 0.206760 -0.041510
N18   N     N_R   0.818530 0.472270 0.792960 -0.039303
N19   N     N_R   0.181470 0.527730 0.207040 -0.037744
N20   N     N_R   0.181470 0.472270 0.207040 -0.036917
N21   N     N_R   0.818530 0.527730 0.792960 -0.038432
N22   N     N_R   0.318530 0.972270 0.792960 -0.040761
N23   N     N_R   0.107380 0.603790 0.058200 -0.041180
N24   N     N_R   0.681470 0.027730 0.207040 -0.043630
N25   N     N_R   0.681470 0.972270 0.207040 -0.042555
N26   N     N_R   0.318530 0.027730 0.792960 -0.039813
N27   N     N_2   0.427124 0.419818 0.564352 -0.115334
N28   N     N_2   0.569267 0.580759 0.438318 -0.114741
N29   N     N_2   0.856406 0.998934 0.507979 -0.111211
N30   N     N_2   0.148700 0.001483 0.462919 -0.113587
N31   N     N_R   0.892620 0.396210 0.941800 -0.041898
N32   N     N_R   0.392620 0.103790 0.941800 -0.035629
N33   N     N_R   0.607380 0.896210 0.058200 -0.037139
N34   N     N_R   0.607380 0.103790 0.058200 -0.035499
N35   N     N_R   0.392620 0.896210 0.941800 -0.037031
N36   N     N_R   0.952210 0.397600 0.057910 -0.041063
Ni1   Ni    Ni4+2 0.934150 0.565840 0.869060 0.214554
Ni2   Ni    Ni4+2 0.065850 0.434160 0.130940 0.210361
Ni3   Ni    Ni4+2 0.065850 0.565840 0.130940 0.208737
Ni4   Ni    Ni4+2 0.934150 0.434160 0.869060 0.212059
Ni5   Ni    Ni4+2 0.434150 0.065840 0.869060 0.205139
Ni6   Ni    Ni4+2 0.565850 0.934160 0.130940 0.212227
Ni7   Ni    Ni4+2 0.565850 0.065840 0.130940 0.205598
Ni8   Ni    Ni4+2 0.434150 0.934160 0.869060 0.208508

loop_
_geom_bond_atom_site_label_1
_geom_bond_atom_site_label_2
_ccdc_geom_bond_type
C44   C48   A    
N19   N20   A    
C67   H18   S    
C75   N26   A    
N23   Ni3   S    
C9    C98   S    
C54   N5    A    
N3    N12   A    
C25   H51   S    
N6    Ni5   S    
C5    H70   S    
C26   H52   S    
N5    Ni6   S    
C8    C104  S    
C69   C90   A    
C27   C78   S    
N31   Ni4   S    
N7    N33   A    
C14   C33   A    
C54   C84   A    
C35   C81   S    
C15   C32   A    
C12   C31   A    
C3    N30   S    
C40   C46   A    
C16   C21   A    
C4    N27   S    
C42   C44   A    
N2    N23   A    
H71   N29   S    
N10   Ni4   S    
C53   N4    A    
C61   N33   A    
C38   H55   S    
C37   C40   A    
C51   H2    S    
C16   C35   A    
N9    N13   A    
C102  N27   S    
C57   H8    S    
N3    Ni4   S    
C63   N14   A    
C65   N16   A    
C11   C24   A    
C67   C89   A    
C30   C76   S    
C16   H42   S    
C74   C92   A    
C32   C82   S    
C38   C45   A    
C60   N11   A    
C73   C92   A    
C34   C80   S    
C66   N17   A    
C3    C100  S    
C65   H16   S    
C71   N22   A    
C2    C97   S    
C95   C103  S    
N24   N25   A    
C62   H13   S    
N18   N21   A    
C7    H76   S    
C58   H9    S    
C68   C90   A    
C8    C99   S    
C48   C88   S    
C71   H22   S    
C31   C77   S    
C8    C92   S    
C52   N3    A    
C50   N32   A    
N35   Ni8   S    
C28   C78   A    
N15   Ni8   S    
C56   H7    S    
C97   C102  S    
C75   H26   S    
C75   C91   A    
N33   Ni6   S    
C44   H61   S    
C63   C87   A    
C43   H60   S    
C21   H47   S    
N10   N11   A    
C56   N7    A    
N15   N16   A    
N1    Ni1   S    
C41   H58   S    
C6    H74   S    
C68   N19   A    
C41   C43   A    
C57   C80   A    
C9    C91   S    
N17   Ni6   S    
C10   H36   S    
C97   H30   S    
N6    N34   A    
C68   H19   S    
N36   Ni2   S    
C24   H50   S    
C90   C94   S    
C22   H48   S    
C20   C29   A    
N8    Ni7   S    
C59   N10   A    
C101  H35   S    
C15   C20   A    
C62   C85   A    
C14   H40   S    
C4    H65   S    
C7    H77   S    
C49   N36   A    
N7    Ni8   S    
N18   Ni4   S    
C13   C30   A    
C56   C81   A    
C52   H3    S    
C57   N8    A    
N13   Ni2   S    
C22   C31   A    
C61   H56   S    
C66   C87   A    
C15   H41   S    
C63   H14   S    
C60   C86   A    
C42   H59   S    
N1    N4    A    
C74   N25   A    
C69   H20   S    
C12   H38   S    
C98   H31   S    
C4    H64   S    
C83   H78   S    
C70   N21   A    
H66   N28   S    
C39   C79   A    
C37   H54   S    
C93   C102  S    
C2    C89   S    
C45   C85   S    
C72   H67   S    
C3    C9    S    
C24   C33   A    
C3    C99   S    
H62   N27   S    
C49   H80   S    
C83   N35   A    
N22   N26   A    
C83   C84   A    
C29   C79   S    
C11   C27   A    
N14   N17   A    
C17   C77   A    
C66   H17   S    
N19   Ni3   S    
C55   C82   A    
C94   C96   S    
C64   H15   S    
C28   H23   S    
C10   C29   A    
C64   N15   A    
C36   H53   S    
C39   H34   S    
C70   H21   S    
N24   Ni7   S    
C99   C101  S    
C73   N24   A    
C18   H43   S    
C101  C104  S    
C98   C100  S    
C23   H49   S    
C55   H6    S    
N22   Ni8   S    
C95   H28   S    
N26   Ni5   S    
C13   C26   A    
C74   H25   S    
C53   C76   A    
C55   N6    A    
C37   C45   A    
C52   C77   A    
C73   H24   S    
C58   C85   A    
N34   Ni7   S    
C19   C27   A    
N14   Ni7   S    
C65   C88   A    
N11   Ni1   S    
C5    N28   S    
N20   Ni2   S    
C18   C22   A    
C1    C76   A    
C5    H69   S    
C14   C19   A    
N2    Ni1   S    
C2    C93   S    
N32   Ni5   S    
C62   N13   A    
N16   Ni5   S    
C17   N12   A    
C50   C80   A    
C103  N28   S    
C104  N29   S    
C95   C97   S    
C96   H29   S    
C54   H5    S    
C1    N1    A    
C10   C23   A    
C93   C96   S    
C11   H37   S    
C72   N34   A    
C21   C30   A    
C25   C34   A    
C58   N9    A    
C19   H44   S    
C4    H63   S    
C7    H79   S    
C12   C25   A    
C39   N31   A    
C23   C32   A    
N8    N32   A    
C36   C38   A    
C8    C100  S    
C59   C86   A    
C40   H57   S    
C6    H73   S    
C67   N18   A    
C61   C81   A    
N31   N36   A    
C36   C46   A    
C50   H45   S    
C6    N29   S    
C6    H72   S    
C2    C103  S    
C18   C34   A    
C59   H10   S    
C98   C104  S    
H75   N30   S    
N21   Ni1   S    
C41   C48   A    
C20   H46   S    
C99   H32   S    
C42   C47   A    
C13   H39   S    
C94   C95   S    
C53   H4    S    
C33   C84   S    
C72   C82   A    
C51   C78   A    
C7    N30   S    
C100  H33   S    
C70   C89   A    
N4    Ni3   S    
C49   C79   A    
C26   C35   A    
N9    Ni3   S    
C71   C91   A    
C94   C102  S    
C69   N20   A    
C9    C101  S    
N25   Ni6   S    
C96   C103  S    
C51   N2    A    
C28   N23   A    
C5    H68   S    
C60   H11   S    
C93   H27   S    
C43   C47   A    
C64   C88   A    
N12   Ni2   S    
N5    N35   A    
C17   H12   S    
C1    H1    S    
C46   C86   S    
C47   C87   S    
