data_mof_unit_38626.cif
_audit_creation_date              2012-10-26T21:12:35-0400
_audit_creation_method            fapswitch 2.2
_symmetry_space_group_name_H-M    P1
_symmetry_Int_Tables_number       1
_space_group_crystal_system       triclinic
_cell_length_a                    23.549066
_cell_length_b                    10.824802
_cell_length_c                    9.579584
_cell_angle_alpha                 90.339186
_cell_angle_beta                  89.012665
_cell_angle_gamma                 92.626104
_cell_volume                      2439.01093494

loop_
_atom_site_label
_atom_site_type_symbol
_atom_type_description
_atom_site_fract_x
_atom_site_fract_y
_atom_site_fract_z
_atom_type_partial_charge
C1    C     C_R   0.504021 0.262743 0.499861 0.565938
C2    C     C_R   0.121360 0.602117 0.454444 0.445279
C3    C     C_R   0.240615 0.480700 0.368394 -0.087923
C4    C     C_R   0.390735 0.500232 0.501365 0.594633
C5    C     C_R   0.299605 0.482293 0.374598 -0.169674
C6    C     C_R   0.327579 0.499718 0.502512 -0.025714
C7    C     C_R   0.294298 0.516122 0.626143 0.266477
C8    C     C_R   0.234676 0.514319 0.618519 0.314866
C9    C     C_R   0.208101 0.496433 0.489627 0.197840
C10   C     C_R   0.761679 0.449860 0.378854 0.313953
C11   C     C_R   0.701978 0.447843 0.377884 0.232188
C12   C     C_R   0.965295 0.276242 0.546872 -0.101368
C13   C     C_R   0.671644 0.494017 0.494984 -0.031688
C14   C     C_R   0.701927 0.538346 0.611487 -0.180738
C15   C     C_R   0.761008 0.538858 0.612001 -0.093086
C16   C     C_R   0.495135 0.737089 0.501652 0.549292
C17   C     C_R   0.790995 0.495116 0.496265 0.201804
C18   C     C_R   0.539708 0.118081 0.746571 -0.044651
C19   C     C_R   0.534433 0.059947 0.875857 0.212568
C20   C     C_R   0.501394 0.950582 0.888452 -0.051303
C21   C     C_R   0.479554 0.891533 0.769396 0.224394
C22   C     C_R   0.493896 0.939408 0.634622 0.020159
C23   C     C_R   0.024523 0.275585 0.541851 -0.102851
C24   C     C_R   0.514337 0.063367 0.627103 -0.036838
C25   C     C_R   0.507412 0.128180 0.500944 0.016021
C26   C     C_R   0.495009 0.062446 0.378106 -0.103604
C27   C     C_R   0.489287 0.934850 0.380012 -0.133126
C28   C     C_R   0.608985 0.497453 0.498494 0.545612
C29   C     C_R   0.489495 0.871384 0.507011 0.023004
C30   C     C_R   0.575214 0.665290 0.142334 -0.053917
C31   C     C_R   0.611373 0.747511 0.069227 -0.127019
C32   C     C_R   0.611126 0.748279 0.925453 -0.156468
C33   C     C_R   0.574731 0.666820 0.853938 -0.086762
C34   C     C_R   0.057094 0.384469 0.511883 0.036315
C35   C     C_R   0.536682 0.582074 0.924140 0.148517
C36   C     C_R   0.536807 0.581655 0.073837 0.162821
C37   C     C_R   0.465427 0.421658 0.075850 0.082072
C38   C     C_R   0.465400 0.420939 0.928279 0.381299
C39   C     C_R   0.882504 0.603657 0.469393 0.432062
C40   C     C_R   0.877933 0.388533 0.525652 0.453236
C41   C     C_R   0.937422 0.385720 0.521665 0.036297
C42   C     C_R   0.969660 0.495327 0.490831 -0.022688
C43   C     C_R   0.942123 0.605570 0.465024 0.035523
C44   C     C_R   0.029576 0.494727 0.486043 -0.022197
C45   C     C_R   0.061838 0.604498 0.456044 0.036483
C46   C     C_R   0.033949 0.713862 0.430297 -0.101386
C47   C     C_R   0.974700 0.714379 0.434681 -0.105381
C48   C     C_R   0.116698 0.386594 0.508753 0.446262
Cl1   Cl    Cl    0.666853 0.381462 0.231675 -0.433181
Cl2   Cl    Cl    0.564552 0.130717 0.024070 -0.566290
Cl3   Cl    Cl    0.422779 0.782288 0.797544 -0.475179
Cl4   Cl    Cl    0.419041 0.312373 0.847017 -0.483793
Cl5   Cl    Cl    0.324714 0.541181 0.791829 -0.372377
Cl6   Cl    Cl    0.192352 0.535447 0.770223 -0.432925
Cl7   Cl    Cl    0.800469 0.396484 0.232794 -0.439061
Cu1   Cu    Cu3+1 0.500000 0.499990 0.640660 1.087119
Cu2   Cu    Cu3+1 0.500000 0.500010 0.359340 1.013119
H1    H     H_    0.679909 0.573938 0.702273 0.156019
H2    H     H_    0.783672 0.573577 0.702571 0.168537
H3    H     H_    0.491662 0.912769 0.990999 0.159381
H4    H     H_    0.484210 0.885994 0.281646 0.155634
H5    H     H_    0.044667 0.189675 0.562088 0.179283
H6    H     H_    0.579553 0.671212 0.252190 0.180224
H7    H     H_    0.640011 0.810743 0.124838 0.167016
H8    H     H_    0.639475 0.812307 0.868526 0.150617
H9    H     H_    0.578538 0.674732 0.743884 0.171429
H10   H     H_    0.490146 0.109438 0.279875 0.193967
H11   H     H_    0.564291 0.204814 0.740494 0.181697
H12   H     H_    0.437259 0.357585 0.133046 0.149476
H13   H     H_    0.057785 0.799441 0.407091 0.181800
H14   H     H_    0.954550 0.800271 0.414374 0.178046
H15   H     H_    0.220017 0.466988 0.268928 0.182961
H16   H     H_    0.323331 0.469207 0.278188 0.182566
H17   H     H_    0.941463 0.190740 0.570473 0.180204
N1    N     N_R   0.851864 0.496104 0.498524 -0.380865
N2    N     N_R   0.147358 0.494559 0.481808 -0.382093
N3    N     N_R   0.500540 0.501210 0.147910 -0.266183
N4    N     N_R   0.500560 0.501290 0.852040 -0.224789
O1    O     O_R   0.500000 0.319640 0.618810 -0.473907
O2    O     O_R   0.582120 0.500020 0.618760 -0.544228
O3    O     O_R   0.582120 0.500050 0.381190 -0.470508
O4    O     O_2   0.855291 0.707933 0.443603 -0.462383
O5    O     O_2   0.846286 0.284679 0.555597 -0.438078
O6    O     O_2   0.143902 0.282161 0.533848 -0.440503
O7    O     O_2   0.153075 0.706505 0.427467 -0.438146
O8    O     O_R   0.500000 0.319660 0.381240 -0.489779
O9    O     O_R   0.417880 0.499950 0.618810 -0.379017
O10   O     O_R   0.417880 0.499980 0.381240 -0.523191
O11   O     O_R   0.500000 0.680340 0.618760 -0.494116
O12   O     O_R   0.500000 0.680360 0.381190 -0.545040

loop_
_geom_bond_atom_site_label_1
_geom_bond_atom_site_label_2
_ccdc_geom_bond_type
C16   O12   A    
C22   C29   A    
C37   H12   S    
C27   C29   A    
C41   C42   A    
C48   N2    A    
C19   C20   A    
C7    C8    A    
C4    O9    A    
C45   C46   A    
Cu2   O8    S    
C12   C23   A    
C26   C27   A    
C37   C38   A    
Cu1   O1    S    
C3    C9    A    
C26   H10   S    
C22   C24   A    
C12   H17   S    
C36   N3    A    
C30   C31   A    
C38   Cl4   S    
C10   C17   A    
C18   H11   S    
Cu1   N4    S    
Cu1   Cu2   S    
C2    O7    S    
C18   C19   A    
C27   H4    S    
C23   H5    S    
C35   C36   A    
C8    C9    A    
C13   C28   S    
C9    N2    S    
C39   N1    A    
C20   H3    S    
C16   O11   A    
C21   C22   A    
C1    C25   S    
C40   O5    S    
C42   C44   A    
C33   H9    S    
C2    C45   A    
C14   H1    S    
Cu2   O12   S    
Cu2   N3    S    
C34   C44   A    
C24   C25   A    
C4    C6    S    
C8    Cl6   S    
Cu1   O9    S    
C39   C43   A    
C38   N4    A    
C16   C29   S    
C37   N3    A    
C48   O6    S    
C12   C41   A    
C11   Cl1   S    
C31   C32   A    
C23   C34   A    
C10   Cl7   S    
C47   H14   S    
Cu1   O11   S    
C1    O1    A    
C18   C24   A    
C34   C48   A    
C42   C43   A    
C7    Cl5   S    
C21   Cl3   S    
C2    N2    A    
C44   C45   A    
C1    O8    A    
C15   C17   A    
C46   C47   A    
C40   C41   A    
C28   O3    A    
C15   H2    S    
C31   H7    S    
C39   O4    S    
C3    C5    A    
Cu2   O10   S    
C6    C7    A    
C4    O10   A    
C35   N4    A    
Cu1   O2    S    
C40   N1    A    
C30   C36   A    
C32   C33   A    
C3    H15   S    
C25   C26   A    
C11   C13   A    
C19   Cl2   S    
C5    C6    A    
C30   H6    S    
C33   C35   A    
Cu2   O3    S    
C5    H16   S    
C28   O2    A    
C46   H13   S    
C10   C11   A    
C20   C21   A    
C17   N1    S    
C14   C15   A    
C13   C14   A    
C43   C47   A    
C32   H8    S    
