data_mof_unit_16834.cif
_audit_creation_date              2012-12-10T20:38:21-0500
_audit_creation_method            fapswitch 2.2
_symmetry_space_group_name_H-M    P1
_symmetry_Int_Tables_number       1
_space_group_crystal_system       triclinic
_cell_length_a                    9.882121
_cell_length_b                    10.965662
_cell_length_c                    17.544072
_cell_angle_alpha                 95.24044
_cell_angle_beta                  86.158192
_cell_angle_gamma                 86.182399
_cell_volume                      1883.88173522

loop_
_atom_site_label
_atom_site_type_symbol
_atom_type_description
_atom_site_fract_x
_atom_site_fract_y
_atom_site_fract_z
_atom_type_partial_charge
C1    C     C_R   0.497062 0.739796 0.499036 0.895994
C2    C     C_R   0.328844 0.479679 0.774374 -0.059267
C3    C     C_R   0.393195 0.510451 0.151376 -0.168823
C4    C     C_R   0.391447 0.485482 0.226871 0.133712
C5    C     C_R   0.638350 0.495514 0.221041 -0.227218
C6    C     C_R   0.638467 0.501733 0.142284 -0.134082
C7    C     C_R   0.514909 0.509980 0.107885 0.141101
C8    C     C_2   0.419834 0.523517 0.981713 -0.185858
C9    C     C_2   0.514662 0.481282 0.025974 -0.143036
C10   C     C_R   0.515526 0.488546 0.264674 -0.081711
C11   C     C_R   0.398326 0.944617 0.469307 -0.066444
C12   C     C_R   0.480126 0.495991 0.651915 0.904366
C13   C     C_R   0.499066 0.870983 0.496702 -0.148947
C14   C     C_R   0.617794 0.926926 0.515865 -0.131063
C15   C     C_R   0.630375 0.053300 0.513131 -0.037663
C16   C     C_R   0.514887 0.127691 0.494868 -0.159651
C17   C     C_R   0.403017 0.067672 0.472422 0.098292
C18   C     C_3   0.259243 0.091115 0.452713 -0.337701
C19   C     C_3   0.252552 0.949783 0.450735 0.035288
C20   C     C_R   0.917104 0.552283 0.563051 0.104510
C21   C     C_R   0.940774 0.423763 0.447934 0.014775
C22   C     C_R   0.084985 0.423446 0.449118 -0.072052
C23   C     C_R   0.504959 0.259972 0.499195 0.880141
C24   C     C_R   0.056017 0.562829 0.558122 0.179866
C25   C     C_3   0.040343 0.691782 0.597250 -0.488983
C26   C     C_3   0.890224 0.673755 0.613179 -0.209003
C27   C     C_R   0.516186 0.493913 0.348151 0.860718
C28   C     C_R   0.461685 0.484836 0.735581 -0.179418
C29   C     C_R   0.579716 0.472993 0.776060 0.046242
C30   C     C_R   0.567475 0.483953 0.856397 0.011225
C31   C     C_R   0.435426 0.494395 0.896910 0.049379
C32   C     C_R   0.316599 0.483146 0.855658 0.105938
H1    H     H_    0.734388 0.497648 0.107984 0.169117
H2    H     H_    0.703595 0.871566 0.531577 0.198115
H3    H     H_    0.253466 0.128929 0.396265 0.116611
H4    H     H_    0.150300 0.359475 0.410410 0.142836
H5    H     H_    0.100573 0.710058 0.648110 0.222872
H6    H     H_    0.039219 0.761350 0.557226 0.240035
H7    H     H_    0.820378 0.742298 0.590326 0.188574
H8    H     H_    0.734224 0.493832 0.247507 0.186551
H9    H     H_    0.590084 0.409338 0.003837 0.142782
H10   H     H_    0.297907 0.512918 0.124345 0.137464
H11   H     H_    0.332969 0.583456 0.007364 0.164836
N1    N     N_R   0.857140 0.500860 0.500530 -0.155214
N2    N     N_R   0.142780 0.500820 0.500530 -0.113883
O1    O     O_R   0.385310 0.683210 0.499990 -0.605846
O2    O     O_R   0.614650 0.683240 0.500000 -0.627406
O3    O     O_R   0.371780 0.500000 0.615800 -0.646702
O4    O     O_R   0.601120 0.500040 0.615800 -0.624744
O5    O     O_R   0.385350 0.316760 0.500000 -0.600596
O6    O     O_R   0.614690 0.316790 0.500010 -0.691051
O7    O     O_R   0.398880 0.499960 0.384200 -0.614695
O8    O     O_R   0.628220 0.500000 0.384200 -0.643209
Zn1   Zn    Zn3+2 0.346870 0.499980 0.499990 0.989348
Zn2   Zn    Zn3+2 0.653130 0.500020 0.500010 0.942683
N3    N     N_3   0.710216 0.427049 0.735961 -0.418835
H12   H     H_    0.791207 0.427781 0.768780 0.187435
H13   H     H_    0.744945 0.480544 0.695136 0.207796
C33   C     C_2   0.766254 0.098563 0.527312 0.430042
H14   H     H_    0.793839 0.188316 0.515356 0.093709
O9    O     O_2   0.855156 0.031825 0.551037 -0.565671
C34   C     C_2   0.167364 0.163702 0.516368 0.575268
H15   H     H_    0.069295 0.201833 0.503030 0.057539
O10   O     O_2   0.198671 0.176635 0.582959 -0.528676
N4    N     N_3   0.164119 0.916390 0.513590 -0.318574
H16   H     H_    0.208361 0.846993 0.540708 0.156575
H17   H     H_    0.202574 0.959727 0.559334 0.210282
C35   C     C_2   0.233784 0.886814 0.373149 0.504742
H18   H     H_    0.290027 0.913767 0.322792 0.036047
O11   O     O_2   0.156651 0.805085 0.365719 -0.525540
C36   C     C_2   0.883243 0.335089 0.392608 0.347454
H19   H     H_    0.775792 0.325536 0.394002 0.138235
O12   O     O_2   0.956567 0.268642 0.345274 -0.610533
N5    N     N_3   0.260489 0.459261 0.261230 -0.395773
H20   H     H_    0.212234 0.403472 0.221350 0.182843
H21   H     H_    0.266809 0.406623 0.307441 0.205863
C37   C     C_2   0.855893 0.664273 0.697130 0.272851
H22   H     H_    0.922239 0.601840 0.727998 0.249807
O13   O     O_2   0.924906 0.711569 0.750690 -0.573785
N6    N     N_3   0.181455 0.494483 0.896115 -0.413258
H23   H     H_    0.183834 0.473866 0.953092 0.172353
H24   H     H_    0.117132 0.433250 0.873508 0.250889
C38   C     C_2   0.200952 0.476865 0.732113 0.507783
H25   H     H_    0.180984 0.541419 0.690800 0.082401
O14   O     O_2   0.114572 0.405030 0.743107 -0.583764
C39   C     C_2   0.697910 0.475895 0.894555 0.371450
H26   H     H_    0.758056 0.388122 0.889606 0.066679
O15   O     O_2   0.738764 0.564944 0.930093 -0.522738

loop_
_geom_bond_atom_site_label_1
_geom_bond_atom_site_label_2
_ccdc_geom_bond_type
C10   C27   S    
C3    H10   S    
C8    H11   S    
C12   O3    A    
C12   O4    A    
C37   H22   S    
O3    Zn1   S    
C11   C19   S    
C29   C30   A    
N5    H21   S    
C21   C36   S    
C24   N2    A    
C28   C29   A    
C3    C7    A    
C5    C6    A    
C39   O15   D    
C1    O1    A    
C16   C17   A    
C15   C16   A    
N3    H12   S    
C2    C32   A    
C18   C19   S    
C34   O10   D    
C25   H5    S    
C35   H18   S    
C31   C32   A    
C8    C9    D    
N4    H17   S    
C30   C39   S    
C18   H3    S    
C4    N5    S    
C37   O13   D    
C33   H14   S    
C21   C22   A    
C2    C38   S    
C20   N1    A    
O7    Zn1   S    
O8    Zn2   S    
C33   O9    D    
C26   C37   S    
N5    H20   S    
C20   C24   A    
C24   C25   S    
N6    H24   S    
C36   O12   D    
C39   H26   S    
C18   C34   S    
C23   O5    A    
C25   C26   S    
O4    Zn2   S    
C34   H15   S    
C25   H6    S    
C32   N6    S    
C21   N1    A    
C23   O6    A    
C38   H25   S    
O1    Zn1   S    
C17   C18   S    
C19   C35   S    
O5    Zn1   S    
C38   O14   D    
C12   C28   S    
N2    Zn1   S    
C16   C23   S    
C1    C13   S    
C4    C10   A    
C3    C4    A    
C27   O7    A    
O2    Zn2   S    
C7    C9    S    
C11   C17   A    
C8    C31   S    
C15   C33   S    
C1    O2    A    
N6    H23   S    
C14   H2    S    
C27   O8    A    
C6    C7    A    
C29   N3    S    
C22   H4    S    
C9    H9    S    
C6    H1    S    
C5    C10   A    
C11   C13   A    
N1    Zn2   S    
C30   C31   A    
C20   C26   S    
N3    H13   S    
C19   N4    S    
O6    Zn2   S    
C26   H7    S    
C36   H19   S    
C22   N2    A    
C35   O11   D    
N4    H16   S    
C5    H8    S    
C14   C15   A    
C2    C28   A    
C13   C14   A    
