data_mof_unit_16778.cif
_audit_creation_date              2012-12-11T15:10:44-0500
_audit_creation_method            fapswitch 2.2
_symmetry_space_group_name_H-M    P1
_symmetry_Int_Tables_number       1
_space_group_crystal_system       triclinic
_cell_length_a                    21.171663
_cell_length_b                    7.233806
_cell_length_c                    18.390778
_cell_angle_alpha                 90.338867
_cell_angle_beta                  92.943185
_cell_angle_gamma                 90.176351
_cell_volume                      2812.79841063

loop_
_atom_site_label
_atom_site_type_symbol
_atom_type_description
_atom_site_fract_x
_atom_site_fract_y
_atom_site_fract_z
_atom_type_partial_charge
O1    O     O_R   0.448880 0.506250 0.415280 -0.514328
O2    O     O_R   0.551120 0.006250 0.584720 -0.539769
O3    O     O_R   0.434830 0.174000 0.557310 -0.529801
O4    O     O_R   0.565170 0.674000 0.442690 -0.504072
C1    C     C_R   0.417689 0.344377 0.580592 0.755979
C2    C     C_R   0.582240 0.844405 0.419328 0.758107
O5    O     O_R   0.441680 0.176440 0.414130 -0.539587
O6    O     O_R   0.558320 0.676440 0.585870 -0.515781
O7    O     O_R   0.558020 0.007570 0.440520 -0.529781
O8    O     O_R   0.441980 0.507570 0.559480 -0.501276
C3    C     C_R   0.426035 0.344844 0.390133 0.755447
C4    C     C_R   0.573568 0.845955 0.610181 0.758114
O9    O     O_3   0.538160 0.339670 0.508820 -0.364698
O10   O     O_3   0.461840 0.839670 0.491180 -0.354563
V1    V     V_3+5 0.492920 0.064260 0.498360 1.486622
V2    V     V_3+5 0.507080 0.564260 0.501640 1.550727
C5    C     C_R   0.883968 0.877946 0.690940 -0.130427
C6    C     C_R   0.121298 0.522373 0.307502 -0.132678
H1    H     H_    0.970312 0.909055 0.755530 0.107084
H2    H     H_    0.035106 0.546358 0.242491 0.108940
H3    H     H_    0.810532 0.797524 0.576669 0.167432
H4    H     H_    0.198593 0.556772 0.421710 0.168156
H5    H     H_    0.908857 0.855264 0.641617 0.118495
H6    H     H_    0.099293 0.571497 0.355898 0.118728
C7    C     C_R   0.888857 0.934750 0.820476 -0.035637
C8    C     C_R   0.111236 0.446402 0.179587 -0.038442
C9    C     C_R   0.583080 0.893061 0.741390 -0.179510
C10   C     C_R   0.411622 0.284940 0.260143 -0.175540
C11   C     C_R   0.615968 0.926445 0.807257 -0.113518
C12   C     C_R   0.376734 0.266496 0.194729 -0.114321
C13   C     C_R   0.681638 0.929604 0.811629 -0.129129
C14   C     C_R   0.312762 0.308659 0.190045 -0.129492
C15   C     C_R   0.716956 0.895188 0.749812 0.034566
C16   C     C_R   0.281409 0.374040 0.251137 0.034220
C17   C     C_R   0.683044 0.854497 0.681425 -0.005203
C18   C     C_R   0.317789 0.398457 0.319205 -0.007133
C19   C     C_R   0.784998 0.900882 0.754147 0.073184
C20   C     C_R   0.214877 0.415419 0.246270 0.072150
C21   C     C_R   0.817687 0.870946 0.689816 0.065982
C22   C     C_R   0.185892 0.479023 0.309438 0.065485
C23   C     C_R   0.784630 0.827376 0.624759 -0.201483
C24   C     C_R   0.221377 0.504215 0.374289 -0.205648
C25   C     C_R   0.719096 0.813026 0.620295 0.325536
C26   C     C_R   0.285860 0.468697 0.379746 0.324931
C27   C     C_R   0.822297 0.932467 0.819983 -0.194155
C28   C     C_R   0.175734 0.398717 0.180950 -0.195740
C29   C     C_R   0.919131 0.909026 0.755681 -0.157225
C30   C     C_R   0.084537 0.507603 0.243077 -0.156192
C31   C     C_R   0.614882 0.858427 0.677928 -0.062777
C32   C     C_R   0.383885 0.349214 0.322901 -0.065905
H7    H     H_    0.801576 0.950261 0.871839 0.089064
H8    H     H_    0.193852 0.354877 0.129999 0.091751
H9    H     H_    0.531833 0.897125 0.739687 0.097738
H10   H     H_    0.461147 0.246542 0.261993 0.098725
H11   H     H_    0.703337 0.961219 0.864463 0.104588
H12   H     H_    0.289125 0.287418 0.137447 0.104541
H13   H     H_    0.590148 0.953786 0.855470 0.115877
H14   H     H_    0.399441 0.216166 0.147067 0.115965
C33   C     C_1   0.864378 0.939229 0.131917 -0.206805
C34   C     C_1   0.135587 0.438638 0.868068 -0.207160
C35   C     C_1   0.821392 0.925136 0.175497 0.000384
C36   C     C_1   0.178556 0.424526 0.824464 -0.000167
C37   C     C_1   0.770649 0.905867 0.227366 0.003020
C38   C     C_1   0.229281 0.405388 0.772566 0.002187
C39   C     C_1   0.727924 0.889088 0.271139 0.005081
C40   C     C_1   0.271997 0.388752 0.728765 0.004408
C41   C     C_1   0.677212 0.869818 0.323040 0.018979
C42   C     C_1   0.322699 0.369637 0.676843 0.019284
C43   C     C_1   0.634320 0.855709 0.366730 -0.136596
C44   C     C_1   0.365592 0.355615 0.633147 -0.138687
O11   O     O_R   0.058070 0.289240 0.940580 -0.520266
O12   O     O_R   0.941930 0.789240 0.059420 -0.520153
O13   O     O_R   0.058330 0.616740 0.085880 -0.533961
O14   O     O_R   0.941670 0.116740 0.914120 -0.533426
C45   C     C_R   0.071954 0.449324 0.111238 0.682494
C46   C     C_R   0.927946 0.947760 0.888866 0.682219
O15   O     O_R   0.065180 0.619040 0.942700 -0.522921
O16   O     O_R   0.934820 0.119040 0.057300 -0.522896
O17   O     O_R   0.948870 0.787780 0.915270 -0.530449
O18   O     O_R   0.051130 0.287780 0.084730 -0.531120
C47   C     C_R   0.083230 0.450218 0.920243 0.705958
C48   C     C_R   0.916768 0.950435 0.079756 0.704873
O19   O     O_3   0.961870 0.453310 0.991210 -0.366000
O20   O     O_3   0.038130 0.953310 0.008790 -0.366678
V3    V     V_3+5 0.007070 0.728770 0.001630 1.419388
V4    V     V_3+5 0.992930 0.228770 0.998370 1.419306
Cl1   Cl    Cl    0.688310 0.723676 0.537097 -0.689415
Cl2   Cl    Cl    0.321487 0.529819 0.464494 -0.685201

loop_
_geom_bond_atom_site_label_1
_geom_bond_atom_site_label_2
_ccdc_geom_bond_type
C2    C43   S    
C40   C42   S    
C37   C39   T    
C9    C11   A    
C23   C25   A    
O1    C3    A    
C46   O17   A    
O2    C4    A    
C2    O7    A    
O12   V3    S    
O3    V1    S    
C21   C23   A    
O5    C3    A    
C5    H5    S    
O14   C46   A    
C6    H6    S    
H1    C29   S    
C27   H7    S    
C28   H8    S    
C34   C36   T    
C5    C21   A    
C35   C37   S    
C6    C22   A    
C36   C38   S    
C10   C32   A    
C39   C41   S    
C17   C31   A    
O18   V4    S    
C33   C48   S    
C12   C14   A    
C17   C25   A    
C45   O18   A    
C7    C29   A    
C8    C30   A    
O16   V4    S    
O5    V1    S    
O15   V3    S    
O6    V2    S    
O13   C45   A    
C24   C26   A    
C4    C31   S    
C33   C35   T    
O20   V3    S    
O4    C2    A    
C10   H10   S    
C15   C19   A    
C41   C43   T    
C14   C16   A    
O4    V2    S    
C1    C44   S    
O11   V4    S    
C34   C47   S    
O16   C48   A    
O15   C47   A    
O6    C4    A    
C13   C15   A    
C8    C45   S    
O1    V2    S    
O14   V4    S    
O2    V1    S    
O13   V3    S    
H2    C30   S    
H3    C23   S    
C42   C44   T    
C11   H13   S    
C18   C26   A    
C19   C27   A    
C7    C27   A    
O17   V3    S    
C18   C32   A    
C16   C20   A    
C5    C29   A    
O3    C1    A    
C6    C30   A    
C9    H9    S    
C7    C46   S    
C25   Cl1   S    
C10   C12   A    
O7    V1    S    
C1    O8    A    
C19   C21   A    
C3    C32   S    
O8    V2    S    
C20   C22   A    
H4    C24   S    
C12   H14   S    
C22   C24   A    
C15   C17   A    
C16   C18   A    
C20   C28   A    
C8    C28   A    
O19   V4    S    
C11   C13   A    
O9    V2    S    
O10   V1    S    
C13   H11   S    
C26   Cl2   S    
C14   H12   S    
O12   C48   A    
C9    C31   A    
C38   C40   T    
O11   C47   A    
