data_mof_unit_16647.cif
_audit_creation_date              2012-10-26T19:35:39-0400
_audit_creation_method            fapswitch 2.2
_symmetry_space_group_name_H-M    P1
_symmetry_Int_Tables_number       1
_space_group_crystal_system       triclinic
_cell_length_a                    15.863703
_cell_length_b                    10.827133
_cell_length_c                    9.579485
_cell_angle_alpha                 89.574345
_cell_angle_beta                  89.289416
_cell_angle_gamma                 91.118384
_cell_volume                      1644.86885535

loop_
_atom_site_label
_atom_site_type_symbol
_atom_type_description
_atom_site_fract_x
_atom_site_fract_y
_atom_site_fract_z
_atom_type_partial_charge
C1    C     C_R   0.503186 0.262495 0.500023 0.545391
C2    C     C_R   0.512785 0.129256 0.500496 0.018453
C3    C     C_R   0.549394 0.064651 0.386523 -0.031942
C4    C     C_R   0.339990 0.500093 0.500723 0.541134
C5    C     C_R   0.546733 0.935004 0.388493 -0.150521
C6    C     C_R   0.509339 0.870305 0.501071 -0.007368
C7    C     C_R   0.485929 0.935372 0.619610 0.024906
C8    C     C_3   0.407838 0.928415 0.709367 -0.125890
C9    C     C_3   0.411000 0.069166 0.710004 -0.257387
C10   C     C_R   0.563937 0.557245 0.071522 0.159804
C11   C     C_R   0.441702 0.434220 0.078205 0.000618
C12   C     C_3   0.083339 0.503150 0.501282 0.071706
C13   C     C_R   0.440240 0.434456 0.930068 0.090840
C14   C     C_R   0.563946 0.557289 0.924091 0.159930
C15   C     C_3   0.588381 0.691391 0.916048 -0.126727
C16   C     C_R   0.501611 0.737358 0.499779 0.539250
C17   C     C_3   0.588968 0.691030 0.076174 -0.130875
C18   C     C_R   0.660021 0.500521 0.499300 0.536807
C19   C     C_3   0.969287 0.392117 0.545343 -0.094578
C20   C     C_3   0.027467 0.414660 0.416202 0.022823
C21   C     C_1   0.250437 0.501229 0.502251 -0.051392
C22   C     C_1   0.749612 0.501773 0.497957 -0.047204
C23   C     C_3   0.971558 0.593302 0.585261 -0.096354
C24   C     C_3   0.025551 0.482373 0.629469 0.008030
C25   C     C_3   0.059553 0.313794 0.320795 -0.413168
C26   C     C_3   0.366057 0.368917 0.865791 -0.353882
C27   C     C_3   0.672800 0.715134 0.839620 -0.389535
C28   C     C_3   0.674313 0.712851 0.146697 -0.401641
C29   C     C_3   0.943326 0.548200 0.222278 -0.405489
C30   C     C_3   0.064655 0.737341 0.405183 -0.413140
C31   C     C_3   0.055475 0.458731 0.777254 -0.416141
C32   C     C_3   0.590007 0.129327 0.262043 -0.375678
C33   C     C_3   0.330099 0.874073 0.636652 -0.405715
C34   C     C_3   0.916663 0.503384 0.498913 0.031512
C35   C     C_3   0.029781 0.612789 0.455526 0.023120
C36   C     C_3   0.973789 0.524358 0.369923 0.049648
C37   C     C_1   0.174987 0.502267 0.502398 -0.063379
C38   C     C_1   0.825097 0.502751 0.498026 -0.069507
C39   C     C_R   0.488380 0.062192 0.619850 -0.003149
Cu1   Cu    Cu3+1 0.500000 0.499980 0.640670 0.917269
Cu2   Cu    Cu3+1 0.500000 0.500020 0.359330 0.915773
H1    H     H_    0.419286 0.886830 0.813719 0.133480
H2    H     H_    0.096800 0.247310 0.382135 0.126850
H3    H     H_    0.425492 0.106942 0.814747 0.121259
H4    H     H_    0.383771 0.318564 0.771253 0.182899
H5    H     H_    0.337891 0.298593 0.938444 0.058468
H6    H     H_    0.316231 0.436407 0.842978 0.141006
H7    H     H_    0.662980 0.712807 0.725265 0.163691
H8    H     H_    0.697853 0.808484 0.865514 0.120473
H9    H     H_    0.720027 0.644778 0.866924 0.135706
H10   H     H_    0.698716 0.807258 0.121460 0.115760
H11   H     H_    0.666176 0.706166 0.261604 0.161062
H12   H     H_    0.357870 0.114045 0.655852 0.125523
H13   H     H_    0.721412 0.643914 0.113770 0.137048
H14   H     H_    0.538116 0.748525 0.120575 0.138391
H15   H     H_    0.998341 0.559884 0.150374 0.124127
H16   H     H_    0.903697 0.468874 0.187618 0.128956
H17   H     H_    0.905487 0.633321 0.220229 0.125953
H18   H     H_    0.011812 0.798865 0.379536 0.124637
H19   H     H_    0.103270 0.780167 0.488371 0.126572
H20   H     H_    0.104563 0.724558 0.310621 0.133011
H21   H     H_    0.000227 0.447379 0.848731 0.125310
H22   H     H_    0.093152 0.373468 0.779825 0.128651
H23   H     H_    0.393552 0.384299 0.137966 0.126247
H24   H     H_    0.095119 0.538010 0.812036 0.129327
H25   H     H_    0.636227 0.200423 0.297486 0.149342
H26   H     H_    0.624599 0.063841 0.194583 0.104654
H27   H     H_    0.541175 0.172764 0.196961 0.157167
H28   H     H_    0.323423 0.913543 0.529979 0.139111
H29   H     H_    0.335344 0.772291 0.629022 0.159220
H30   H     H_    0.272637 0.894556 0.698922 0.123095
H31   H     H_    0.537167 0.748887 0.873878 0.140349
H32   H     H_    0.943754 0.301373 0.582626 0.102472
H33   H     H_    0.947830 0.666614 0.655104 0.099640
H34   H     H_    0.571721 0.884980 0.300663 0.120380
H35   H     H_    0.005333 0.264370 0.272994 0.125265
H36   H     H_    0.100114 0.355540 0.237088 0.131908
N1    N     N_R   0.500530 0.500930 0.147930 -0.252533
N2    N     N_R   0.500530 0.500890 0.852020 -0.228708
O1    O     O_R   0.500000 0.319640 0.618810 -0.507273
O2    O     O_R   0.500010 0.319680 0.381230 -0.507679
O3    O     O_R   0.379070 0.499970 0.618770 -0.513393
O4    O     O_R   0.379080 0.500010 0.381190 -0.495941
O5    O     O_R   0.499990 0.680320 0.618770 -0.505874
O6    O     O_R   0.500000 0.680360 0.381190 -0.508219
O7    O     O_R   0.620920 0.499990 0.618810 -0.494314
O8    O     O_R   0.620930 0.500030 0.381230 -0.499427

loop_
_geom_bond_atom_site_label_1
_geom_bond_atom_site_label_2
_ccdc_geom_bond_type
C27   H7    S    
C13   N2    A    
C28   H11   S    
Cu1   O5    S    
C35   C36   S    
C9    C39   S    
C25   H2    S    
C10   N1    A    
C7    C8    S    
C15   H31   S    
C29   C36   S    
C18   O7    A    
C30   C35   S    
C25   H36   S    
C8    H1    S    
C5    C6    A    
C28   H10   S    
C20   C25   S    
C10   C17   S    
C1    O2    A    
Cu2   O4    S    
C16   O5    A    
C31   H24   S    
C1    C2    S    
Cu1   O7    S    
C12   C37   S    
C26   H4    S    
C2    C39   A    
C19   C20   S    
C8    C9    S    
C30   H19   S    
C23   C24   S    
Cu1   O1    S    
C17   H14   S    
C27   H9    S    
C33   H28   S    
C32   H27   S    
C18   C22   S    
C31   H21   S    
Cu2   O8    S    
C31   H22   S    
C19   H32   S    
C11   H23   S    
C10   C14   A    
Cu2   N1    S    
C28   H13   S    
C5    H34   S    
C11   N1    A    
Cu1   O3    S    
C15   C27   S    
C23   C34   S    
Cu2   O2    S    
C30   H18   S    
C12   C20   S    
Cu1   N2    S    
C4    O3    A    
C14   N2    A    
C12   C35   S    
C33   H29   S    
C32   H26   S    
C26   H6    S    
Cu1   Cu2   S    
C29   H16   S    
C23   C35   S    
C16   O6    A    
C13   C26   S    
C9    H12   S    
C23   H33   S    
C32   H25   S    
C15   C17   S    
C9    H3    S    
C34   C38   S    
C17   C28   S    
C3    C5    A    
C19   C34   S    
C6    C7    A    
C29   H15   S    
Cu2   O6    S    
C12   C24   S    
C18   O8    A    
C25   H35   S    
C2    C3    A    
C24   C31   S    
C4    C21   S    
C11   C13   A    
C4    O4    A    
C19   C24   S    
C34   C36   S    
C8    C33   S    
C3    C32   S    
C33   H30   S    
C6    C16   S    
C20   C36   S    
C21   C37   T    
C29   H17   S    
C30   H20   S    
C1    O1    A    
C7    C39   A    
C14   C15   S    
C26   H5    S    
C27   H8    S    
C22   C38   T    
