data_mof_unit_36686.cif
_audit_creation_date              2012-12-10T18:14:18-0500
_audit_creation_method            fapswitch 2.2
_symmetry_space_group_name_H-M    P1
_symmetry_Int_Tables_number       1
_space_group_crystal_system       triclinic
_cell_length_a                    12.653489
_cell_length_b                    13.073395
_cell_length_c                    19.263306
_cell_angle_alpha                 92.506313
_cell_angle_beta                  101.81446
_cell_angle_gamma                 82.276893
_cell_volume                      3090.38314212

loop_
_atom_site_label
_atom_site_type_symbol
_atom_type_description
_atom_site_fract_x
_atom_site_fract_y
_atom_site_fract_z
_atom_type_partial_charge
C1    C     C_R   0.438979 0.691605 0.491269 0.814316
C2    C     C_R   0.491452 0.524198 0.144411 -0.297156
C3    C     C_R   0.731485 0.052089 0.538260 0.310214
C4    C     C_R   0.499721 0.501908 0.634253 0.911172
C5    C     C_R   0.598414 0.203137 0.540624 -0.372865
C6    C     C_R   0.307748 0.827692 0.528093 -0.281364
C7    C     C_R   0.299665 0.915776 0.570225 -0.283198
C8    C     C_R   0.383003 0.978163 0.582552 0.620521
C9    C     C_R   0.463704 0.965516 0.539812 -0.007134
C10   C     C_R   0.471349 0.874792 0.497433 0.007626
C11   C     C_R   0.542613 0.033930 0.541233 -0.046084
C12   C     C_R   0.500043 0.500474 0.710520 -0.354616
C13   C     C_R   0.640731 0.996735 0.518270 -0.071841
C14   C     C_R   0.640751 0.912544 0.471167 -0.240399
C15   C     C_R   0.554230 0.855488 0.458171 -0.156529
C16   C     C_R   0.560511 0.310288 0.517071 0.908602
C17   C     C_R   0.522702 0.140723 0.554434 0.410739
C18   C     C_R   0.708668 0.159980 0.549421 0.352998
C19   C     C_R   0.400361 0.801344 0.498599 -0.119001
C20   C     C_R   0.083800 0.380973 0.377107 0.379772
C21   C     C_R   0.801415 0.623158 0.590953 0.544128
C22   C     C_R   0.906988 0.651140 0.609580 0.373600
C23   C     C_R   0.495024 0.516051 0.069202 0.374562
C24   C     C_R   0.983534 0.612626 0.568993 -0.372017
C25   C     C_R   0.959029 0.540872 0.513277 -0.057939
C26   C     C_R   0.851645 0.513018 0.495884 -0.012719
C27   C     C_R   0.038957 0.492756 0.475986 -0.020541
C28   C     C_R   0.496955 0.508086 0.365828 0.942226
C29   C     C_R   0.006667 0.435185 0.413257 -0.130221
C30   C     C_R   0.898219 0.427133 0.389286 -0.289345
C31   C     C_R   0.825904 0.443779 0.436141 0.599265
C32   C     C_R   0.150477 0.498176 0.498700 -0.193635
C33   C     C_R   0.193306 0.384999 0.404951 0.566000
C34   C     C_R   0.503562 0.501102 0.930795 0.347473
C35   C     C_R   0.400166 0.509935 0.734443 0.353595
C36   C     C_R   0.401866 0.514551 0.807588 0.449445
C37   C     C_R   0.501666 0.499506 0.855588 -0.161774
C38   C     C_R   0.599664 0.487490 0.832135 -0.350252
C39   C     C_R   0.599997 0.486365 0.760029 0.480938
C40   C     C_3   0.235982 0.447031 0.693204 -0.221478
C41   C     C_3   0.881289 0.932818 0.525504 0.098084
C42   C     C_3   0.003447 0.913154 0.553938 -0.818258
C43   C     C_3   0.442048 0.236499 0.635374 -0.115467
C44   C     C_3   0.466380 0.982847 0.698245 -0.387987
C45   C     C_R   0.392781 0.521537 0.167197 0.351666
C46   C     C_3   0.299516 0.234687 0.386631 -0.203356
C47   C     C_3   0.029956 0.229600 0.325240 -0.350978
C48   C     C_3   0.279787 0.640448 0.841069 -0.329142
C49   C     C_3   0.701716 0.763653 0.635307 -0.144960
C50   C     C_3   0.012803 0.674051 0.719017 -0.277473
C51   C     C_3   0.725786 0.316956 0.369182 0.078851
C52   C     C_3   0.633292 0.253143 0.367584 -0.848380
C53   C     C_3   0.735114 0.369155 0.732814 -0.210866
C54   C     C_3   0.249478 0.603273 0.087778 0.115361
C55   C     C_3   0.171197 0.582822 0.018897 -0.770053
C56   C     C_R   0.392498 0.523249 0.239878 0.358002
C57   C     C_3   0.255933 0.623897 0.280603 0.139325
C58   C     C_3   0.138432 0.628481 0.288929 -0.738265
C59   C     C_3   0.687120 0.673960 0.309341 0.177042
C60   C     C_3   0.780468 0.702195 0.367094 -0.862567
C61   C     C_3   0.740026 0.443586 0.167969 -0.206915
C62   C     C_3   0.877042 0.214859 0.551747 0.180669
C63   C     C_3   0.951510 0.291396 0.588853 -0.859855
C64   C     C_R   0.491486 0.525273 0.289798 -0.444004
C65   C     C_R   0.585206 0.545722 0.265961 0.294356
C66   C     C_R   0.587379 0.536626 0.193807 0.366032
H1    H     H_    0.703699 0.893577 0.440949 0.126068
H2    H     H_    0.199037 0.419561 0.639623 0.167493
H3    H     H_    0.168657 0.480557 0.719377 0.192774
H4    H     H_    0.867842 0.963558 0.470855 0.102701
H5    H     H_    0.850751 0.856993 0.524752 0.167305
H6    H     H_    0.020308 0.885821 0.609385 0.292139
H7    H     H_    0.041019 0.853032 0.520711 0.204392
H8    H     H_    0.040933 0.984779 0.552472 0.228380
H9    H     H_    0.479787 0.306798 0.633208 0.103329
H10   H     H_    0.495784 0.187381 0.677590 0.150533
H11   H     H_    0.362745 0.258380 0.651242 0.177885
H12   H     H_    0.250224 0.773234 0.527815 0.190008
H13   H     H_    0.550097 0.970568 0.687109 0.161962
H14   H     H_    0.439610 0.907588 0.707206 0.173464
H15   H     H_    0.469504 0.028890 0.748204 0.197016
H16   H     H_    0.386466 0.211552 0.384601 0.178480
H17   H     H_    0.251941 0.186446 0.346594 0.154242
H18   H     H_    0.289029 0.216919 0.440761 0.157715
H19   H     H_    0.941392 0.226560 0.308075 0.156525
H20   H     H_    0.056858 0.203261 0.381212 0.124227
H21   H     H_    0.070329 0.173120 0.291199 0.194305
H22   H     H_    0.342014 0.672103 0.882851 0.169590
H23   H     H_    0.236737 0.927713 0.601316 0.177601
H24   H     H_    0.200866 0.655454 0.858628 0.180765
H25   H     H_    0.270612 0.681774 0.790444 0.174946
H26   H     H_    0.722529 0.803469 0.591099 0.150339
H27   H     H_    0.745325 0.792521 0.686836 0.197611
H28   H     H_    0.613311 0.784842 0.633400 0.151009
H29   H     H_    0.093805 0.665097 0.704093 0.181565
H30   H     H_    0.993054 0.598351 0.733728 0.171498
H31   H     H_    0.017665 0.724953 0.766856 0.184393
H32   H     H_    0.800039 0.260851 0.369464 0.097763
H33   H     H_    0.704390 0.362212 0.319864 0.165070
H34   H     H_    0.555300 0.792317 0.420068 0.140522
H35   H     H_    0.617113 0.211257 0.315865 0.207438
H36   H     H_    0.656363 0.194764 0.409616 0.213304
H37   H     H_    0.557597 0.302758 0.373526 0.265231
H38   H     H_    0.813119 0.360334 0.714030 0.211020
H39   H     H_    0.676208 0.329704 0.693221 0.147729
H40   H     H_    0.750620 0.330955 0.785085 0.135345
H41   H     H_    0.309975 0.650592 0.075208 0.109524
H42   H     H_    0.201922 0.648745 0.123592 0.142417
H43   H     H_    0.107677 0.538116 0.029524 0.262684
H44   H     H_    0.131195 0.657206 0.994482 0.188852
H45   H     H_    0.874644 0.393649 0.337373 0.177480
H46   H     H_    0.215958 0.538444 0.981054 0.280946
H47   H     H_    0.258930 0.681310 0.240281 0.070319
H48   H     H_    0.305083 0.647660 0.331948 0.130172
H49   H     H_    0.133527 0.577436 0.332316 0.247892
H50   H     H_    0.106654 0.708733 0.302207 0.180862
H51   H     H_    0.087292 0.603466 0.238737 0.260861
H52   H     H_    0.611040 0.723014 0.316725 0.088629
H53   H     H_    0.705226 0.692004 0.257464 0.183367
H54   H     H_    0.856619 0.651050 0.363264 0.273148
H55   H     H_    0.793622 0.783219 0.360735 0.189320
H56   H     H_    0.183147 0.543983 0.543794 0.200022
H57   H     H_    0.760951 0.694564 0.420071 0.243964
H58   H     H_    0.814887 0.449283 0.147615 0.197719
H59   H     H_    0.690741 0.392303 0.130792 0.139982
H60   H     H_    0.765587 0.408607 0.221149 0.147160
H61   H     H_    0.850758 0.233798 0.494940 0.145535
H62   H     H_    0.926541 0.138516 0.556263 0.181635
H63   H     H_    0.992968 0.263060 0.642334 0.248300
H64   H     H_    0.014072 0.300577 0.557494 0.205043
H65   H     H_    0.903597 0.367311 0.595434 0.267506
H66   H     H_    0.061016 0.641858 0.581306 0.187760
H67   H     H_    0.676448 0.477926 0.869933 0.197260
H68   H     H_    0.280635 0.378018 0.723248 0.134640
N1    N     N_R   0.563450 0.565269 0.974174 -0.185259
N2    N     N_R   0.558947 0.572781 0.042362 -0.131439
N3    N     N_R   0.435998 0.451010 0.025754 -0.128637
N4    N     N_R   0.439602 0.444189 0.957340 -0.136499
N5    N     N_R   0.222200 0.444680 0.463280 -0.177039
N6    N     N_R   0.776960 0.554780 0.536340 -0.185408
O1    O     O_R   0.366740 0.627160 0.482470 -0.631457
O2    O     O_3   0.832395 0.002278 0.571475 -0.587699
O3    O     O_3   0.423593 0.185015 0.568642 -0.582964
O4    O     O_3   0.392619 0.038355 0.643435 -0.593661
O5    O     O_3   0.271882 0.339961 0.368892 -0.526016
O6    O     O_3   0.053761 0.329308 0.313140 -0.563493
O7    O     O_3   0.305388 0.532979 0.832026 -0.597773
O8    O     O_3   0.723800 0.654978 0.631463 -0.550245
O9    O     O_3   0.931824 0.721531 0.664402 -0.608900
O10   O     O_3   0.740220 0.384372 0.429750 -0.552449
O11   O     O_3   0.698918 0.475402 0.738748 -0.554575
O12   O     O_R   0.544830 0.662520 0.505920 -0.603447
O13   O     O_3   0.297764 0.507932 0.119127 -0.540075
O14   O     O_3   0.294339 0.522137 0.260872 -0.506028
O15   O     O_3   0.677817 0.567860 0.313265 -0.571370
O16   O     O_3   0.683717 0.543673 0.171822 -0.586442
O17   O     O_3   0.787039 0.219139 0.585130 -0.580546
O18   O     O_R   0.410920 0.482320 0.590130 -0.587251
O19   O     O_R   0.589010 0.517690 0.613590 -0.517985
O20   O     O_R   0.455170 0.337480 0.494080 -0.574875
O21   O     O_R   0.633260 0.372840 0.517530 -0.515804
O22   O     O_R   0.410990 0.482310 0.386410 -0.540847
O23   O     O_R   0.589080 0.517680 0.409870 -0.525488
O24   O     O_3   0.301594 0.524218 0.686235 -0.600596
Zn1   Zn    Zn3+2 0.381090 0.476390 0.484340 0.996795
Zn2   Zn    Zn3+2 0.618910 0.523610 0.515660 1.042844

loop_
_geom_bond_atom_site_label_1
_geom_bond_atom_site_label_2
_ccdc_geom_bond_type
C66   O16   S    
C52   H37   S    
C55   H46   S    
C16   O20   A    
C34   C37   S    
C41   C42   S    
C43   O3    S    
C35   C36   A    
C15   H34   S    
C54   O13   S    
C28   O22   A    
N1    N2    A    
C6    C19   A    
C52   H36   S    
C29   C30   A    
C54   H41   S    
C1    O12   A    
C61   H58   S    
C47   H19   S    
C36   C37   A    
C40   O24   S    
C26   N6    A    
C10   C15   A    
C30   C31   A    
C50   H29   S    
C6    H12   S    
C4    O19   A    
C5    C17   A    
C53   H38   S    
C7    H23   S    
C48   O7    S    
C39   O11   S    
C27   C29   A    
C3    C18   A    
C38   H67   S    
N5    Zn1   S    
C5    C16   S    
C46   H16   S    
C53   H40   S    
C4    O18   A    
C51   O10   S    
C8    C9    A    
C50   H31   S    
C48   H25   S    
C14   H1    S    
C48   H22   S    
C61   H60   S    
C63   H65   S    
C49   H28   S    
C4    C12   S    
C9    C10   A    
O21   Zn2   S    
C3    C13   A    
C41   H5    S    
C51   H32   S    
C47   O6    S    
C59   C60   S    
C48   H24   S    
C13   C14   A    
C55   H43   S    
C58   H50   S    
C3    O2    S    
C20   C29   A    
C2    C45   A    
C43   H9    S    
C52   H35   S    
C1    C19   S    
C42   H8    S    
C40   H3    S    
C51   C52   S    
C63   H64   S    
C47   H20   S    
C32   H56   S    
C7    C8    A    
O23   Zn2   S    
C24   C25   A    
C45   C56   A    
C32   N5    A    
C56   O14   S    
C44   H15   S    
C56   C64   A    
C31   O10   S    
C59   O15   S    
C57   H47   S    
C5    C18   A    
C25   C26   A    
C40   H68   S    
C34   N4    A    
C58   H51   S    
C49   O8    S    
C47   H21   S    
C60   H57   S    
C21   O8    S    
C37   C38   A    
O22   Zn1   S    
C24   H66   S    
C36   O7    S    
C51   H33   S    
C44   H14   S    
C10   C19   A    
C44   O4    S    
C62   C63   S    
C42   H6    S    
C62   O17   S    
C8    O4    S    
O20   Zn1   S    
C12   C35   A    
C9    C11   A    
C57   H48   S    
C33   O5    S    
C46   H18   S    
C20   C33   A    
C23   N2    A    
N6    Zn2   S    
C59   H52   S    
C55   H44   S    
C58   H49   S    
C22   C24   A    
C45   O13   S    
C49   H26   S    
C61   O16   S    
C28   C64   S    
N3    N4    A    
C43   H10   S    
C54   C55   S    
C11   C17   A    
C42   H7    S    
C59   H53   S    
C27   C32   A    
C23   N3    A    
C44   H13   S    
C2    C66   A    
O12   Zn2   S    
C6    C7    A    
C16   O21   A    
C43   H11   S    
C57   O14   S    
O1    Zn1   S    
C35   O24   S    
O19   Zn2   S    
C54   H42   S    
C30   H45   S    
C17   O3    S    
C64   C65   A    
C12   C39   A    
C41   O2    S    
C65   O15   S    
C18   O17   S    
C62   H62   S    
C11   C13   A    
C50   O9    S    
C50   H30   S    
C57   C58   S    
C38   C39   A    
C34   N1    A    
C33   N5    A    
C60   H54   S    
C20   O6    S    
C63   H63   S    
C60   H55   S    
C22   O9    S    
C1    O1    A    
C46   H17   S    
C46   O5    S    
C53   H39   S    
C62   H61   S    
C26   C31   A    
C28   O23   A    
C65   C66   A    
C40   H2    S    
C2    C23   S    
C53   O11   S    
C14   C15   A    
C61   H59   S    
C21   N6    A    
C49   H27   S    
C21   C22   A    
O18   Zn1   S    
C41   H4    S    
C25   C27   A    
