data_mof_unit_9675.cif
_audit_creation_date              2012-12-11T15:49:56-0500
_audit_creation_method            fapswitch 2.2
_symmetry_space_group_name_H-M    P1
_symmetry_Int_Tables_number       1
_space_group_crystal_system       triclinic
_cell_length_a                    8.22892
_cell_length_b                    19.076273
_cell_length_c                    27.010083
_cell_angle_alpha                 95.029424
_cell_angle_beta                  93.041107
_cell_angle_gamma                 85.130406
_cell_volume                      4203.94952024

loop_
_atom_site_label
_atom_site_type_symbol
_atom_type_description
_atom_site_fract_x
_atom_site_fract_y
_atom_site_fract_z
_atom_type_partial_charge
Ba1   Ba    Ba6+2 0.854000 0.466860 0.523710 1.630509
Ba2   Ba    Ba6+2 0.335820 0.533080 0.476290 1.638165
C1    C     C_3   0.719114 0.205232 0.658614 -0.356866
C2    C     C_R   0.902294 0.569768 0.175913 0.574268
C3    C     C_2   0.756580 0.548406 0.271957 -0.086054
C4    C     C_3   0.137361 0.313796 0.659964 0.330275
C5    C     C_3   0.740660 0.571786 0.326307 -0.049019
C6    C     C_1   0.980982 0.490755 0.343243 0.033953
C7    C     C_2   0.020097 0.487556 0.295553 -0.104011
C8    C     C_2   0.899656 0.515717 0.256265 0.192077
C9    C     C_R   0.007389 0.503900 0.101148 -0.081160
C10   C     C_R   0.045196 0.445139 0.129082 -0.035371
C11   C     C_R   0.118791 0.383144 0.105353 -0.060988
C12   C     C_3   0.672372 0.277187 0.639497 0.349222
C13   C     C_R   0.934591 0.566370 0.124834 -0.023816
C14   C     C_2   0.849172 0.527836 0.360260 -0.291310
C15   C     C_2   0.348933 0.478045 0.640570 -0.283075
C16   C     C_3   0.130405 0.292002 0.712743 -0.253848
C17   C     C_R   0.166667 0.436466 0.975804 0.024174
C18   C     C_R   0.024842 0.554198 0.969293 0.002433
C19   C     C_R   0.115790 0.494444 0.947180 0.045689
C20   C     C_R   0.260860 0.378735 0.952559 -0.103621
C21   C     C_R   0.300211 0.377232 0.903081 -0.060897
C22   C     C_R   0.249155 0.433441 0.874313 -0.022654
C23   C     C_3   0.527844 0.628348 0.626699 0.314181
C24   C     C_R   0.156330 0.492511 0.896056 -0.093089
C25   C     C_R   0.103713 0.549024 0.866673 -0.039611
C26   C     C_R   0.162142 0.547479 0.817583 0.569200
C27   C     C_R   0.288394 0.430665 0.823970 0.574363
C28   C     C_3   0.186451 0.317701 0.418730 0.319861
C29   C     C_2   0.434817 0.453876 0.728170 -0.100733
C30   C     C_3   0.451830 0.430970 0.673730 -0.040040
C31   C     C_1   0.210817 0.510539 0.656628 0.029914
C32   C     C_2   0.167814 0.510708 0.703685 -0.119836
C33   C     C_2   0.288656 0.484130 0.743385 0.191708
C34   C     C_3   0.551417 0.639500 0.683533 -0.257949
C35   C     C_R   0.123121 0.438129 0.026548 0.020001
C36   C     C_R   0.042541 0.500316 0.049511 0.050894
C37   C     C_R   0.996820 0.559043 0.021364 0.023813
C38   C     C_R   0.157332 0.379660 0.055460 -0.101164
C39   C     C_R   0.897016 0.624959 0.097163 -0.061224
C40   C     C_3   0.184989 0.238235 0.407373 -0.398641
C41   C     C_R   0.959503 0.606344 0.938176 -0.104985
C42   C     C_R   0.993661 0.604229 0.887562 0.068032
C43   C     C_R   0.927286 0.621509 0.046744 -0.105828
C44   C     C_R   0.405771 0.297149 0.523198 -0.299401
C45   C     C_3   0.055763 0.686794 0.339622 0.338441
C46   C     C_R   0.540244 0.273621 0.495045 0.060297
C47   C     C_R   0.586245 0.200003 0.487215 -0.025501
C48   C     C_R   0.498689 0.152078 0.510890 -0.016779
C49   C     C_R   0.358159 0.177227 0.536567 -0.146980
C50   C     C_R   0.309144 0.249385 0.541118 0.010269
C51   C     C_R   0.697072 0.048823 0.527757 -0.084830
C52   C     C_3   0.004532 0.682068 0.581088 0.308391
C53   C     C_R   0.749337 0.977124 0.520069 -0.081772
C54   C     C_R   0.650574 0.930462 0.491995 0.050957
C55   C     C_R   0.498688 0.956472 0.471805 -0.069396
C56   C     C_3   0.066300 0.708342 0.287114 -0.328146
C57   C     C_R   0.446995 0.028242 0.479184 -0.084940
C58   C     C_R   0.546958 0.075131 0.506562 0.059915
C59   C     C_R   0.842174 0.827275 0.463028 -0.127186
C60   C     C_R   0.888461 0.754497 0.459039 0.016042
C61   C     C_R   0.655949 0.733810 0.505407 0.017510
C62   C     C_R   0.607507 0.806453 0.509795 -0.105615
C63   C     C_R   0.699064 0.853596 0.487380 -0.035809
C64   C     C_3   0.978299 0.761102 0.595117 -0.396919
C65   C     C_R   0.790482 0.708275 0.478029 -0.283001
C66   C     C_3   0.673099 0.382959 0.376350 0.300099
C67   C     C_3   0.518421 0.723203 0.361512 0.364654
C68   C     C_3   0.673647 0.365913 0.320293 -0.364466
C69   C     C_3   0.403361 0.678721 0.708945 -0.202106
C70   C     C_3   0.375114 0.755975 0.696862 -0.159031
C71   C     C_3   0.230251 0.793291 0.724146 -0.426815
C72   C     C_3   0.900086 0.659690 0.857227 -0.144885
C73   C     C_3   0.776755 0.627843 0.818443 -0.182331
C74   C     C_3   0.637350 0.597270 0.842484 -0.419639
C75   C     C_1   0.470439 0.832772 0.539516 0.311217
C76   C     C_3   0.713834 0.171637 0.449946 -0.169388
C77   C     C_3   0.632064 0.146638 0.399877 -0.225150
C78   C     C_3   0.476081 0.795146 0.341895 -0.371699
C79   C     C_3   0.758503 0.120683 0.361717 -0.415373
C80   C     C_1   0.259044 0.236282 0.722795 0.340488
C81   C     C_R   0.007184 0.449216 0.180004 0.596905
H1    H     H_    0.711413 0.275781 0.600616 0.071920
H2    H     H_    0.796054 0.396255 0.390293 0.013785
H3    H     H_    0.583460 0.428782 0.384455 0.083716
H4    H     H_    0.852160 0.191283 0.656085 0.146787
H5    H     H_    0.768298 0.322370 0.311016 0.131784
H6    H     H_    0.700176 0.412937 0.301789 0.071485
H7    H     H_    0.552206 0.349688 0.306015 0.133492
H8    H     H_    0.537215 0.286415 0.639862 -0.052788
H9    H     H_    0.652791 0.164461 0.635829 0.074111
H10   H     H_    0.400482 0.616597 0.616068 0.001332
H11   H     H_    0.611022 0.581974 0.614380 0.070512
H12   H     H_    0.254590 0.220882 0.373756 0.121069
H13   H     H_    0.571759 0.586867 0.698503 0.068066
H14   H     H_    0.663071 0.667538 0.693744 0.125657
H15   H     H_    0.686185 0.205720 0.697983 0.141809
H16   H     H_    0.146442 0.338519 0.739519 0.093566
H17   H     H_    0.133794 0.636795 0.343094 0.090199
H18   H     H_    0.926914 0.678349 0.345531 -0.052923
H19   H     H_    0.186201 0.728707 0.282214 0.146922
H20   H     H_    0.053608 0.661672 0.260272 0.126176
H21   H     H_    0.967868 0.749958 0.279265 0.115731
H22   H     H_    0.653606 0.713329 0.362262 -0.066818
H23   H     H_    0.240971 0.210273 0.439031 0.060831
H24   H     H_    0.476298 0.725130 0.400062 0.077014
H25   H     H_    0.540055 0.835794 0.365577 0.065835
H26   H     H_    0.342740 0.809477 0.342633 0.150035
H27   H     H_    0.055486 0.362804 0.656875 0.089721
H28   H     H_    0.515251 0.794415 0.303122 0.120846
H29   H     H_    0.140689 0.465879 0.284989 0.132903
H30   H     H_    0.147898 0.336633 0.125459 0.121117
H31   H     H_    0.530552 0.436784 0.754675 0.120692
H32   H     H_    0.372862 0.331378 0.887426 0.125354
H33   H     H_    0.309344 0.333925 0.971822 0.069346
H34   H     H_    0.057405 0.223864 0.400615 0.116177
H35   H     H_    0.211510 0.329468 0.040438 0.069123
H36   H     H_    0.662047 0.566992 0.245570 0.119961
H37   H     H_    0.843626 0.674346 0.114504 0.120969
H38   H     H_    0.873440 0.648172 0.952166 0.065213
H39   H     H_    0.264099 0.324952 0.653255 -0.073298
H40   H     H_    0.045162 0.530153 0.713639 0.128990
H41   H     H_    0.899306 0.669785 0.028961 0.067088
H42   H     H_    0.835629 0.539485 0.399941 0.085097
H43   H     H_    0.374254 0.473656 0.601358 0.083312
H44   H     H_    0.865337 0.957771 0.536718 0.077265
H45   H     H_    0.886926 0.661558 0.568301 0.002981
H46   H     H_    0.774932 0.084210 0.549460 0.076058
H47   H     H_    0.420073 0.920999 0.450509 0.072857
H48   H     H_    0.009891 0.272668 0.718363 0.120368
H49   H     H_    0.330767 0.047551 0.462655 0.062273
H50   H     H_    0.917945 0.863201 0.447939 0.078963
H51   H     H_    0.284723 0.140514 0.551800 0.086366
H52   H     H_    0.827073 0.652269 0.475091 0.062936
H53   H     H_    0.367669 0.352968 0.527497 0.069233
H54   H     H_    0.313523 0.331175 0.426365 0.000997
H55   H     H_    0.113350 0.333603 0.451858 0.063493
H56   H     H_    0.091436 0.672764 0.550783 0.074025
H57   H     H_    0.117399 0.766639 0.713029 0.157579
H58   H     H_    0.253371 0.793049 0.765029 0.141035
H59   H     H_    0.211540 0.848883 0.714493 0.129105
H60   H     H_    0.486104 0.783978 0.708013 0.122402
H61   H     H_    0.349449 0.758788 0.656325 0.164321
H62   H     H_    0.292427 0.650728 0.698083 0.142300
H63   H     H_    0.424731 0.677102 0.749845 0.132392
H64   H     H_    0.684820 0.552391 0.864103 0.140652
H65   H     H_    0.572371 0.638457 0.867492 0.137461
H66   H     H_    0.548955 0.577662 0.813052 0.134699
H67   H     H_    0.885139 0.771733 0.623698 0.123448
H68   H     H_    0.723823 0.670210 0.795259 0.104630
H69   H     H_    0.837445 0.585908 0.793094 0.149693
H70   H     H_    0.831195 0.700408 0.881710 0.071231
H71   H     H_    0.985648 0.690173 0.839145 0.140579
H72   H     H_    0.831475 0.164510 0.353942 0.140919
H73   H     H_    0.841186 0.076853 0.375612 0.131689
H74   H     H_    0.695598 0.101118 0.326450 0.132496
H75   H     H_    0.554754 0.103034 0.404651 0.123557
H76   H     H_    0.552478 0.190802 0.385228 0.143245
H77   H     H_    0.798453 0.211251 0.443393 0.143573
H78   H     H_    0.936456 0.789348 0.562141 0.072432
H79   H     H_    0.794490 0.127945 0.464469 0.102187
H80   H     H_    0.094416 0.781902 0.610128 0.134221
N1    N     N_R   0.937118 0.511341 0.203354 -0.421396
N2    N     N_R   0.247125 0.487712 0.795911 -0.418074
N3    N     N_1   0.360912 0.853768 0.563273 -0.309576
N4    N     N_1   0.360425 0.192327 0.730730 -0.290712
O1    O     O_2   0.913240 0.537010 0.617740 -0.459521
O2    O     O_2   0.226781 0.749801 0.464766 -0.481160
O3    O     O_3   0.110326 0.740391 0.373725 -0.603306
O4    O     O_3   0.145240 0.536960 0.557560 -0.489075
O5    O     O_3   0.557280 0.416300 0.475860 -0.484078
O6    O     O_2   0.376710 0.670070 0.522470 -0.453159
O7    O     O_3   0.565682 0.688829 0.604874 -0.655228
O8    O     O_2   0.411787 0.534231 0.322342 -0.497639
O9    O     O_3   0.441120 0.671081 0.330812 -0.593563
O10   O     O_2   0.034498 0.396989 0.203213 -0.598937
O11   O     O_2   0.358657 0.376711 0.805065 -0.616681
O12   O     O_3   0.631158 0.323547 0.398091 -0.643035
O13   O     O_2   0.843880 0.625427 0.195969 -0.620494
O14   O     O_2   0.142304 0.600085 0.794690 -0.633461
O15   O     O_3   0.669960 0.410470 0.588880 -0.480244
O16   O     O_2   0.781382 0.466058 0.677223 -0.505104
O17   O     O_3   0.066198 0.649407 0.623148 -0.640001
O18   O     O_3   0.749901 0.329511 0.669860 -0.593766
O19   O     O_2   0.812980 0.329910 0.477500 -0.468873
O20   O     O_3   0.078660 0.374870 0.564770 -0.487808
O21   O     O_2   0.970694 0.249398 0.534159 -0.493754
O22   O     O_3   0.084791 0.259703 0.625791 -0.604254
O23   O     O_2   0.276450 0.462960 0.382230 -0.461302
O24   O     O_3   0.044470 0.462980 0.442430 -0.495169
O25   O     O_3   0.519740 0.589470 0.411120 -0.475683
O26   O     O_3   0.121261 0.350482 0.376997 -0.624604
O27   O     O_3   0.632420 0.583650 0.524140 -0.476990
O28   O     O_3   0.111040 0.625070 0.435230 -0.490640
P1    P     P_3+3 0.082480 0.557670 0.610090 0.984058
P2    P     P_3+3 0.635220 0.340300 0.462910 0.974513
P3    P     P_3+3 0.110722 0.282963 0.565722 0.943509
P4    P     P_3+3 0.107220 0.442270 0.389900 0.993708
P5    P     P_3+3 0.084016 0.717454 0.433855 0.944824
P6    P     P_3+3 0.664798 0.411835 0.653397 0.943043
P7    P     P_3+3 0.560694 0.670951 0.540067 0.947436
P8    P     P_3+3 0.527106 0.588658 0.346760 0.945655

loop_
_geom_bond_atom_site_label_1
_geom_bond_atom_site_label_2
_ccdc_geom_bond_type
O22   P3    S    
C70   H60   S    
C38   H35   S    
C81   N1    Am   
C23   H10   S    
C32   H40   S    
C45   H18   S    
C61   P7    S    
O15   P6    S    
C66   H3    S    
C62   C75   S    
C1    H15   S    
C12   H1    S    
C53   C54   A    
C68   H5    S    
C18   C41   A    
C77   H75   S    
O3    P5    S    
C67   H24   S    
C59   H50   S    
C71   H58   S    
Ba1   O19   S    
C47   C76   S    
C24   C25   A    
C79   H73   S    
C60   C65   A    
C3    H36   S    
C28   H55   S    
C74   H66   S    
C17   C19   A    
C21   H32   S    
Ba2   O25   S    
C64   H67   S    
C35   C38   A    
Ba2   O6    S    
C77   H76   S    
C36   C37   A    
C32   C33   S    
C49   H51   S    
C15   H43   S    
C55   C57   A    
C28   O26   S    
C27   N2    Am   
C54   C63   S    
O27   P7    S    
C44   C50   A    
O7    P7    S    
C54   C55   A    
C72   H71   S    
Ba1   Ba2   S    
O18   P6    S    
C30   P6    S    
C22   C27   A    
C11   C38   A    
C5    P8    S    
C17   C35   A    
C16   C80   S    
C64   H78   S    
C9    C13   A    
C23   O7    S    
C52   H56   S    
C74   H64   S    
C73   H68   S    
C6    C7    D    
C78   H26   S    
C21   C22   A    
C2    N1    Am   
O19   P2    D    
C34   H14   S    
C56   H19   S    
C67   O9    S    
C14   H42   S    
C41   H38   S    
C29   H31   S    
C1    H9    S    
C34   C69   S    
Ba2   O4    S    
C37   C43   A    
C7    H29   S    
C20   H33   S    
C56   H21   S    
C23   H11   S    
C6    C14   D    
C28   H54   S    
C66   H2    S    
C4    H27   S    
O9    P8    S    
C4    O22   S    
C16   H48   S    
C68   H7    S    
Ba1   O20   S    
C15   C31   D    
C2    O13   D    
C25   C42   A    
C51   C58   A    
O23   P4    D    
C48   C49   A    
C44   C46   A    
C80   N4    T    
C51   C53   A    
C43   H41   S    
C4    C16   S    
C61   C65   A    
C57   H49   S    
C79   H74   S    
C72   C73   S    
C81   O10   D    
O20   P3    S    
C1    H4    S    
C40   H12   S    
O16   P6    D    
Ba2   O23   S    
C55   H47   S    
C17   C20   A    
Ba2   O24   S    
C13   C39   A    
C3    C5    S    
C12   O18   S    
C67   H22   S    
C76   C77   S    
C70   C71   S    
O12   P2    S    
Ba1   O1    S    
C75   N3    T    
O26   P4    S    
C71   H59   S    
Ba1   O4    S    
C45   H17   S    
C49   C50   A    
C72   H70   S    
O6    P7    D    
Ba2   O27   S    
C9    C36   A    
C65   H52   S    
C73   C74   S    
C35   C36   A    
C34   H13   S    
C29   C30   S    
O21   P3    D    
C73   H69   S    
Ba1   O15   S    
Ba1   P1    S    
C31   C32   D    
O5    P2    S    
C18   C19   A    
C42   C72   S    
C40   H23   S    
C1    C12   S    
C26   N2    Am   
O2    P5    D    
C52   C64   S    
Ba1   O24   S    
C76   H77   S    
C46   C47   A    
C69   H62   S    
C53   H44   S    
C76   H79   S    
C27   O11   D    
C41   C42   A    
C29   C33   D    
C68   H6    S    
C51   H46   S    
C16   H16   S    
C4    H39   S    
C45   O3    S    
C77   C79   S    
O28   P5    S    
C7    C8    S    
C70   H61   S    
C5    C14   S    
C8    N1    S    
C66   O12   S    
Ba1   P2    S    
C10   C81   A    
O24   P4    S    
O4    P1    S    
C6    P4    S    
C9    C10   A    
C40   H34   S    
Ba2   O28   S    
C71   H57   S    
C78   H25   S    
Ba1   O5    S    
C79   H72   S    
C46   P2    S    
C48   C58   S    
C62   C63   A    
C2    C13   A    
Ba1   O27   S    
C18   C37   A    
C60   P5    S    
C3    C8    D    
C31   P1    S    
O17   P1    S    
C45   C56   S    
C22   C24   A    
C52   H45   S    
Ba2   P4    S    
C26   O14   D    
C19   C24   A    
C78   H28   S    
C33   N2    S    
O25   P8    S    
C64   H80   S    
C52   O17   S    
C39   H37   S    
C59   C60   A    
O8    P8    D    
C12   H8    S    
C23   C34   S    
C44   H53   S    
C61   C62   A    
C59   C63   A    
C57   C58   A    
C69   H63   S    
C50   P3    S    
C10   C11   A    
C74   H65   S    
C66   C68   S    
C47   C48   A    
O1    P1    D    
C25   C26   A    
C15   C30   S    
C39   C43   A    
C20   C21   A    
C28   C40   S    
C67   C78   S    
C56   H20   S    
C69   C70   S    
C11   H30   S    
Ba2   O5    S    
