data_mof_unit_22627.cif
_audit_creation_date              2012-12-10T16:38:32-0500
_audit_creation_method            fapswitch 2.2
_symmetry_space_group_name_H-M    P1
_symmetry_Int_Tables_number       1
_space_group_crystal_system       triclinic
_cell_length_a                    10.904201
_cell_length_b                    10.845413
_cell_length_c                    17.680713
_cell_angle_alpha                 97.959634
_cell_angle_beta                  72.914511
_cell_angle_gamma                 99.520548
_cell_volume                      1962.14456141

loop_
_atom_site_label
_atom_site_type_symbol
_atom_type_description
_atom_site_fract_x
_atom_site_fract_y
_atom_site_fract_z
_atom_type_partial_charge
C1    C     C_R   0.158142 0.477757 0.517099 0.547584
C2    C     C_R   0.681880 0.503148 0.914615 -0.002748
C3    C     C_R   0.737218 0.428873 0.952023 -0.036780
C4    C     C_R   0.843482 0.521419 0.482633 0.494684
C5    C     C_R   0.687108 0.418624 0.034637 0.021173
C6    C     C_R   0.582198 0.483774 0.079613 0.015707
C7    C     C_R   0.745741 0.351197 0.074262 -0.136833
C8    C     C_R   0.705909 0.351533 0.156936 -0.035083
C9    C     C_R   0.536281 0.474089 0.162231 -0.133967
C10   C     C_2   0.980538 0.537123 0.480111 -0.081834
C11   C     C_2   0.023531 0.461636 0.519536 0.010115
C12   C     C_R   0.309149 0.657223 0.843487 -0.153181
C13   C     C_2   0.550412 0.968453 0.474858 -0.007974
C14   C     C_2   0.457604 0.035276 0.520963 -0.081910
C15   C     C_R   0.465550 0.168294 0.518741 0.558867
C16   C     C_R   0.532297 0.833567 0.482158 0.473233
C17   C     C_R   0.566867 0.434909 0.287477 0.512951
C18   C     C_R   0.435823 0.562392 0.712615 0.502394
C19   C     C_R   0.411075 0.591426 0.799332 0.000823
C20   C     C_R   0.599388 0.412904 0.200945 0.029300
C21   C     C_R   0.284253 0.682070 0.926206 0.009392
C22   C     C_2   0.297503 0.798735 0.091967 0.224379
C23   C     C_R   0.487239 0.548926 0.838459 -0.088530
C24   C     C_R   0.067388 0.643743 0.439236 0.030852
C25   C     C_R   0.042363 0.767754 0.465703 -0.060611
C26   C     C_R   0.125854 0.868401 0.429270 -0.108467
C27   C     C_R   0.234536 0.846023 0.366097 -0.103104
C28   C     C_R   0.259312 0.722924 0.338802 -0.120374
C29   C     C_R   0.175736 0.621974 0.374733 -0.097865
C30   C     C_2   0.949711 0.341019 0.549216 0.246761
C31   C     C_2   0.670671 0.023725 0.417056 0.207059
C32   C     C_R   0.781044 0.290895 0.195279 0.025446
C33   C     C_R   0.781029 0.160148 0.183028 -0.084227
C34   C     C_R   0.478483 0.587855 0.918862 0.026919
C35   C     C_R   0.857814 0.103193 0.215259 -0.082501
C36   C     C_R   0.935336 0.176366 0.259633 -0.055751
C37   C     C_R   0.936319 0.306619 0.271771 -0.084083
C38   C     C_R   0.860282 0.363961 0.239217 -0.076298
C39   C     C_R   0.847599 0.361808 0.904420 -0.002688
C40   C     C_R   0.973233 0.426537 0.880800 -0.102985
C41   C     C_R   0.076385 0.361887 0.836974 -0.097472
C42   C     C_R   0.054839 0.232541 0.816660 -0.078588
C43   C     C_R   0.929980 0.167577 0.839981 -0.093204
C44   C     C_R   0.826511 0.231904 0.883638 -0.097494
C45   C     C_R   0.375747 0.656931 0.963847 0.056364
C46   C     C_R   0.152351 0.712203 0.971140 0.062498
C47   C     C_R   0.101062 0.809944 0.951050 -0.051652
C48   C     C_R   0.974439 0.833145 0.990614 -0.089780
C49   C     C_R   0.897677 0.758780 0.050146 -0.094073
C50   C     C_R   0.947406 0.661167 0.070351 -0.113414
C51   C     C_R   0.073739 0.637299 0.030828 -0.107502
C52   C     C_2   0.759681 0.546704 0.836172 0.203614
C53   C     C_R   0.562697 0.549112 0.956911 0.036905
C54   C     C_R   0.524124 0.554176 0.040783 0.002164
C55   C     C_R   0.433587 0.635634 0.083275 -0.165727
C56   C     C_R   0.366889 0.694088 0.045139 0.008598
H1    H     H_    0.828291 0.303651 0.041952 0.130943
H2    H     H_    0.299500 0.924036 0.338287 0.125752
H3    H     H_    0.343569 0.705774 0.290014 0.090759
H4    H     H_    0.195848 0.527073 0.352664 0.103969
H5    H     H_    0.879059 0.286704 0.521297 0.149297
H6    H     H_    0.742447 0.963934 0.383105 0.122009
H7    H     H_    0.722188 0.102630 0.148198 0.110864
H8    H     H_    0.857393 0.002365 0.205724 0.107426
H9    H     H_    0.994541 0.132123 0.284645 0.113480
H10   H     H_    0.996873 0.363271 0.305792 0.100522
H11   H     H_    0.865075 0.465254 0.247041 0.126961
H12   H     H_    0.370318 0.990588 0.560541 0.099615
H13   H     H_    0.990618 0.526811 0.895601 0.130761
H14   H     H_    0.172999 0.411825 0.818587 0.111541
H15   H     H_    0.134860 0.182705 0.782779 0.113834
H16   H     H_    0.913391 0.067378 0.824287 0.129851
H17   H     H_    0.730153 0.180678 0.901605 0.127004
H18   H     H_    0.159157 0.868197 0.904903 0.116735
H19   H     H_    0.935677 0.908624 0.974929 0.116247
H20   H     H_    0.799555 0.776557 0.080473 0.116372
H21   H     H_    0.887712 0.603374 0.116268 0.120609
H22   H     H_    0.109713 0.559454 0.046018 0.103007
H23   H     H_    0.452652 0.515878 0.198837 0.090496
H24   H     H_    0.820857 0.486054 0.792447 0.143715
H25   H     H_    0.242121 0.679605 0.814277 0.132816
H26   H     H_    0.551945 0.482754 0.805416 0.146087
H27   H     H_    0.420533 0.662880 0.145853 0.083663
H28   H     H_    0.257717 0.798126 0.155906 0.096646
H29   H     H_    0.959278 0.786447 0.515186 0.118566
H30   H     H_    0.106685 0.963799 0.450306 0.125799
O1    O     O_3   0.500000 0.500000 0.500000 -0.439325
O2    O     O_R   0.470800 0.371790 0.332500 -0.531017
O3    O     O_R   0.380610 0.619380 0.674980 -0.542168
O4    O     O_R   0.632640 0.524780 0.317540 -0.555672
O5    O     O_R   0.515950 0.484050 0.674980 -0.545246
O6    O     O_2   0.291154 0.890024 0.060580 -0.495582
O7    O     O_2   0.971333 0.298869 0.603921 -0.512726
O8    O     O_2   0.691688 0.134929 0.406208 -0.515139
O9    O     O_2   0.758761 0.652819 0.820717 -0.500005
O10   O     O_R   0.535460 0.243030 0.556410 -0.512930
O11   O     O_R   0.437420 0.784080 0.535340 -0.535623
O12   O     O_R   0.223560 0.397520 0.472140 -0.556119
O13   O     O_R   0.803560 0.575360 0.436110 -0.539029
O14   O     O_R   0.209690 0.568800 0.556400 -0.524414
O15   O     O_R   0.763190 0.458310 0.535350 -0.537788
O16   O     O_R   0.414000 0.207090 0.472140 -0.522842
O17   O     O_R   0.613120 0.765800 0.436110 -0.563364
Zn1   Zn    Zn3+2 0.577310 0.422690 0.565550 0.979423
Zn2   Zn    Zn3+2 0.403760 0.371330 0.445150 0.968651
Zn3   Zn    Zn3+2 0.634990 0.589920 0.423760 0.938237
Zn4   Zn    Zn3+2 0.383940 0.616050 0.565540 0.956252

loop_
_geom_bond_atom_site_label_1
_geom_bond_atom_site_label_2
_ccdc_geom_bond_type
C55   C56   A    
C43   H16   S    
C23   H26   S    
C17   O2    A    
C41   C42   A    
C35   C36   A    
C1    C11   S    
O5    Zn1   S    
C6    C9    A    
C4    O13   A    
C7    C8    A    
C53   C54   A    
C28   C29   A    
C26   C27   A    
C8    C20   A    
O12   Zn2   S    
O16   Zn2   S    
C18   O5    A    
C36   C37   A    
C30   O7    D    
C5    C6    A    
C16   O11   A    
C17   C20   S    
C52   O9    D    
C48   H19   S    
C18   C19   S    
C9    H23   S    
C24   C29   A    
C16   O17   A    
C54   C55   A    
C45   C56   A    
C35   H8    S    
C32   C38   A    
C33   H7    S    
C3    C39   S    
C13   C14   D    
C37   H10   S    
C31   H6    S    
C6    C54   A    
C1    O14   A    
C21   C45   A    
C40   H13   S    
C8    C32   S    
C24   C25   A    
O4    Zn3   S    
C15   O10   A    
C5    C7    A    
C36   H9    S    
C22   C56   S    
C10   C24   S    
C25   C26   A    
C12   C21   A    
C2    C53   A    
C22   H28   S    
C19   C23   A    
C43   C44   A    
C37   C38   A    
C9    C20   A    
C47   C48   A    
O1    Zn2   S    
C29   H4    S    
C26   H30   S    
C23   C34   A    
C4    O15   A    
O3    Zn4   S    
C25   H29   S    
C50   C51   A    
C49   H20   S    
C34   C45   A    
C2    C52   S    
C40   C41   A    
O15   Zn1   S    
O10   Zn1   S    
C13   C16   S    
C42   C43   A    
C55   H27   S    
C50   H21   S    
C39   C40   A    
C21   C46   S    
C28   H3    S    
O13   Zn3   S    
C46   C47   A    
C48   C49   A    
O14   Zn4   S    
C22   O6    D    
C18   O3    A    
C13   C31   S    
C17   O4    A    
C47   H18   S    
C3    C5    A    
C27   H2    S    
C1    O12   A    
C39   C44   A    
C31   O8    D    
C32   C33   A    
C2    C3    A    
C51   H22   S    
C11   C30   S    
O2    Zn2   S    
O1    Zn3   S    
C46   C51   A    
C12   C19   A    
C42   H15   S    
C33   C35   A    
C12   H25   S    
O17   Zn3   S    
C15   O16   A    
C44   H17   S    
C10   C11   D    
O1    Zn1   S    
O11   Zn4   S    
O1    Zn4   S    
C38   H11   S    
C34   C53   A    
C49   C50   A    
C30   H5    S    
C27   C28   A    
C14   H12   S    
C14   C15   S    
C52   H24   S    
C4    C10   S    
C7    H1    S    
C41   H14   S    
