data_mof_unit_61925.cif
_audit_creation_date              2013-03-05T16:27:18-0500
_audit_creation_method            fapswitch 2.2
_symmetry_space_group_name_H-M    P1
_symmetry_Int_Tables_number       1
_space_group_crystal_system       triclinic
_cell_length_a                    28.775597
_cell_length_b                    18.269566
_cell_length_c                    21.693606
_cell_angle_alpha                 89.792272
_cell_angle_beta                  140.684915
_cell_angle_gamma                 90.174046
_cell_volume                      7225.80177499

loop_
_atom_site_label
_atom_site_type_symbol
_atom_site_description
_atom_site_fract_x
_atom_site_fract_y
_atom_site_fract_z
_atom_type_partial_charge
O1    O     O_R   0.892670 0.439420 0.892670 -0.570836
O2    O     O_R   0.107330 0.560580 0.107330 -0.626817
O3    O     O_R   0.107330 0.439420 0.107330 -0.572676
O4    O     O_R   0.892670 0.560580 0.892670 -0.629458
O5    O     O_R   0.392670 0.939420 0.892670 -0.569953
O6    O     O_R   0.607330 0.060580 0.107330 -0.610207
O7    O     O_R   0.607330 0.939420 0.107330 -0.588526
O8    O     O_R   0.392670 0.060580 0.892670 -0.633741
C1    C     C_R   0.858896 0.500023 0.861248 0.989324
C2    C     C_R   0.141094 0.500073 0.138636 0.993309
C3    C     C_R   0.358861 0.000032 0.860796 1.001314
C4    C     C_R   0.640965 0.000028 0.137280 1.004724
O9    O     O_R   0.999990 0.439420 0.908380 -0.559693
O10   O     O_R   0.000010 0.560580 0.091620 -0.626583
O11   O     O_R   0.000010 0.439420 0.091620 -0.560472
O12   O     O_R   0.999990 0.560580 0.908380 -0.627271
O13   O     O_R   0.499990 0.939420 0.908380 -0.559800
O14   O     O_R   0.500010 0.060580 0.091620 -0.614791
O15   O     O_R   0.500010 0.939420 0.091620 -0.584684
O16   O     O_R   0.499990 0.060580 0.908380 -0.629246
C5    C     C_R   0.996660 0.499761 0.876335 0.980642
C6    C     C_R   0.003317 0.499524 0.123631 0.980024
C7    C     C_R   0.496603 0.999764 0.876266 0.976934
C8    C     C_R   0.502516 0.999522 0.122848 0.999828
Zn1   Zn    Zn3+2 0.000000 0.419100 0.000000 1.170952
Zn2   Zn    Zn3+2 0.000000 0.580900 0.000000 1.066688
Zn3   Zn    Zn3+2 0.500000 0.919100 0.000000 1.164007
Zn4   Zn    Zn3+2 0.500000 0.080900 0.000000 1.075582
C9    C     C_R   0.860549 0.514141 0.662178 0.307913
C10   C     C_R   0.139113 0.517004 0.337239 0.308417
C11   C     C_R   0.360356 0.012575 0.661904 0.306101
C12   C     C_R   0.628164 0.056174 0.324583 0.326643
C13   C     C_R   0.802579 0.549883 0.572559 0.376719
C14   C     C_R   0.196192 0.554237 0.425664 0.375688
C15   C     C_R   0.301996 0.047713 0.571907 0.375423
C16   C     C_R   0.672487 0.107670 0.399944 0.374088
C17   C     C_R   0.815671 0.588179 0.531577 -0.301826
C18   C     C_R   0.182208 0.592102 0.465555 -0.298738
C19   C     C_R   0.314677 0.086263 0.530559 -0.301285
C20   C     C_R   0.649362 0.137928 0.431526 -0.286606
H1    H     H_    0.771851 0.620210 0.466332 0.234681
H2    H     H_    0.225230 0.625240 0.529764 0.236622
H3    H     H_    0.270509 0.117840 0.464986 0.235451
H4    H     H_    0.681051 0.181910 0.484186 0.241308
C21   C     C_R   0.884568 0.585352 0.573884 0.314277
C22   C     C_R   0.113460 0.587385 0.423524 0.312755
C23   C     C_R   0.383621 0.084302 0.572953 0.315891
C24   C     C_R   0.586122 0.111720 0.396095 0.305694
C25   C     C_R   0.940956 0.541876 0.658600 -0.077433
C26   C     C_R   0.058160 0.542489 0.340183 -0.079071
C27   C     C_R   0.440499 0.041436 0.658127 -0.078516
C28   C     C_R   0.546271 0.052907 0.328290 -0.084024
C29   C     C_R   0.932505 0.517720 0.711047 -0.125662
C30   C     C_R   0.067153 0.518684 0.288413 -0.124723
C31   C     C_R   0.432290 0.017025 0.710782 -0.126710
C32   C     C_R   0.559681 0.035860 0.280223 -0.113400
C33   C     C_R   0.996543 0.498677 0.809947 -0.176405
C34   C     C_R   0.003648 0.497875 0.190219 -0.176750
C35   C     C_R   0.496541 0.998724 0.809914 -0.174476
C36   C     C_R   0.504711 0.997535 0.191335 -0.192429
C37   C     C_R   0.064748 0.492158 0.850472 0.202816
C38   C     C_R   0.935792 0.488939 0.150187 0.202219
C39   C     C_R   0.564880 0.993326 0.850616 0.203147
C40   C     C_R   0.447678 0.961192 0.163960 0.205966
C41   C     C_R   0.068650 0.500068 0.790753 0.224462
C42   C     C_R   0.931816 0.496516 0.209775 0.224314
C43   C     C_R   0.568783 0.001557 0.790909 0.224787
C44   C     C_R   0.446194 0.962460 0.226427 0.209829
C45   C     C_R   0.004942 0.520124 0.692138 -0.198261
C46   C     C_R   0.994832 0.518904 0.307466 -0.199171
C47   C     C_R   0.504797 0.020605 0.691980 -0.197038
C48   C     C_R   0.495351 0.008602 0.308497 -0.199855
C49   C     C_1   0.782389 0.500071 0.785420 -0.042751
C50   C     C_1   0.217607 0.500180 0.214485 -0.038256
C51   C     C_1   0.282360 0.000092 0.785066 -0.040150
C52   C     C_1   0.717544 0.000050 0.213417 -0.028911
C53   C     C_1   0.717544 0.500056 0.720160 -0.077750
C54   C     C_1   0.282454 0.500148 0.279800 -0.074720
C55   C     C_1   0.217527 0.000073 0.720013 -0.085980
C56   C     C_1   0.782419 0.000043 0.279355 -0.078057
O17   O     O_R   0.060590 0.607350 0.560620 -0.583842
O18   O     O_R   0.939410 0.392650 0.439380 -0.606035
O19   O     O_R   0.939410 0.607350 0.439380 -0.584929
O20   O     O_R   0.060590 0.392650 0.560620 -0.612086
O21   O     O_R   0.560590 0.107350 0.560620 -0.597888
O22   O     O_R   0.439410 0.892650 0.439380 -0.596986
O23   O     O_R   0.439410 0.107350 0.439380 -0.584709
O24   O     O_R   0.560590 0.892650 0.560620 -0.616419
C57   C     C_R   0.000018 0.641303 0.500081 1.005809
C58   C     C_R   0.999983 0.358698 0.499915 0.921745
C59   C     C_R   0.500010 0.141280 0.501272 1.019297
C60   C     C_R   0.499981 0.858698 0.499910 0.946728
O25   O     O_R   0.060610 0.500000 0.652240 -0.579801
O26   O     O_R   0.939390 0.500000 0.347760 -0.578704
O27   O     O_R   0.560610 0.000000 0.652240 -0.581269
O28   O     O_R   0.439390 0.000000 0.347760 -0.576225
O29   O     O_R   0.939430 0.500000 0.531050 -0.617275
O30   O     O_R   0.060570 0.500000 0.468950 -0.619766
O31   O     O_R   0.439430 0.000000 0.531050 -0.621980
O32   O     O_R   0.560570 0.000000 0.468950 -0.627724
C61   C     C_R   0.001442 0.507378 0.621898 0.928765
C62   C     C_R   0.998523 0.506864 0.377984 0.928896
C63   C     C_R   0.501419 0.007618 0.621855 0.923309
C64   C     C_R   0.498709 0.003451 0.378299 0.978425
Zn5   Zn    Zn3+2 0.080920 0.500000 0.580940 1.137570
Zn6   Zn    Zn3+2 0.919080 0.500000 0.419060 1.142791
Zn7   Zn    Zn3+2 0.580920 0.000000 0.580940 1.123328
Zn8   Zn    Zn3+2 0.419080 0.000000 0.419060 1.135939
O33   O     O_R   0.500010 0.607330 0.448300 -0.596518
O34   O     O_R   0.499990 0.392670 0.551700 -0.598962
O35   O     O_R   0.499990 0.607330 0.551700 -0.606474
O36   O     O_R   0.500010 0.392670 0.448300 -0.590753
O37   O     O_R   0.000010 0.107330 0.448300 -0.603729
O38   O     O_R   0.999990 0.892670 0.551700 -0.599390
O39   O     O_R   0.999990 0.107330 0.551700 -0.604281
O40   O     O_R   0.000010 0.892670 0.448300 -0.594028
C65   C     C_R   0.499979 0.640961 0.499883 0.896747
C66   C     C_R   0.499918 0.359041 0.500064 0.896814
C67   C     C_R   0.999984 0.140959 0.499891 0.902036
C68   C     C_R   0.000017 0.859038 0.500109 0.901628
O41   O     O_R   0.607330 0.500000 0.555630 -0.572708
O42   O     O_R   0.392670 0.500000 0.444370 -0.573647
O43   O     O_R   0.107330 0.000000 0.555630 -0.570755
O44   O     O_R   0.892670 0.000000 0.444370 -0.583151
O45   O     O_R   0.607340 0.500000 0.659080 -0.604893
O46   O     O_R   0.392660 0.500000 0.340920 -0.602406
O47   O     O_R   0.107340 0.000000 0.659080 -0.610727
O48   O     O_R   0.892660 0.000000 0.340920 -0.602723
C69   C     C_R   0.640994 0.500015 0.641859 0.898909
C70   C     C_R   0.359006 0.500048 0.358134 0.900290
C71   C     C_R   0.140988 0.000020 0.641836 0.902096
C72   C     C_R   0.858994 0.000017 0.358068 0.902336
Zn9   Zn    Zn3+2 0.500000 0.500000 0.430940 1.143513
Zn10  Zn    Zn3+2 0.500000 0.500000 0.569060 1.131153
Zn11  Zn    Zn3+2 0.000000 0.000000 0.430940 1.133949
Zn12  Zn    Zn3+2 0.000000 0.000000 0.569060 1.109446
C73   C     C_1   0.000052 0.717788 0.500246 0.001592
C74   C     C_1   0.999952 0.282222 0.499742 -0.132318
C75   C     C_1   0.499842 0.217800 0.501075 0.025052
C76   C     C_1   0.499945 0.782225 0.499714 -0.114609
C77   C     C_1   0.499820 0.282574 0.500492 -0.075385
C78   C     C_1   0.499949 0.717441 0.499680 -0.118866
C79   C     C_1   0.000045 0.782562 0.500289 -0.086496
C80   C     C_1   0.999958 0.217439 0.499705 -0.124424
N1    N     N_R   0.130370 0.477560 0.952535 0.208356
O49   O     O_R   0.135965 0.417963 0.990923 -0.350049
O50   O     O_R   0.186930 0.520578 0.005310 -0.313706
N2    N     N_R   0.870566 0.472303 0.048735 0.208571
O51   O     O_R   0.866560 0.412354 0.012634 -0.342735
O52   O     O_R   0.812754 0.513568 0.994515 -0.319696
N3    N     N_R   0.630632 0.979577 0.952870 0.207654
O53   O     O_R   0.686513 0.023518 0.005241 -0.318592
O54   O     O_R   0.636991 0.919997 0.991963 -0.352395
N4    N     N_R   0.392983 0.920692 0.074677 0.238101
O55   O     O_R   0.348029 0.954529 0.991648 -0.397381
O56   O     O_R   0.385424 0.850682 0.076106 -0.274835
Cl1   Cl    Cl    0.838408 0.452715 0.699334 -0.547764
Cl2   Cl    Cl    0.162628 0.455977 0.301978 -0.551829
Cl3   Cl    Cl    0.338870 0.950862 0.699695 -0.547503
Cl4   Cl    Cl    0.667893 0.004324 0.306200 -0.573748
Cl5   Cl    Cl    0.713046 0.549639 0.511166 -0.486343
Cl6   Cl    Cl    0.285645 0.556339 0.486860 -0.488727
Cl7   Cl    Cl    0.212459 0.046428 0.510484 -0.490372
Cl8   Cl    Cl    0.756611 0.136750 0.454683 -0.476705
N5    N     N_R   0.899350 0.633980 0.538305 0.217081
O57   O     O_R   0.962707 0.666510 0.599521 -0.413286
O58   O     O_R   0.846323 0.655734 0.448076 -0.360703
N6    N     N_R   0.097565 0.635450 0.457804 0.217480
O59   O     O_R   0.033402 0.666292 0.395757 -0.411168
O60   O     O_R   0.150145 0.658604 0.547298 -0.355199
N7    N     N_R   0.397893 0.133246 0.536968 0.217847
O61   O     O_R   0.460796 0.166667 0.597946 -0.415201
O62   O     O_R   0.344707 0.154300 0.446449 -0.359485
N8    N     N_R   0.557558 0.152112 0.418038 0.197107
O63   O     O_R   0.487139 0.162646 0.350048 -0.410783
O64   O     O_R   0.601302 0.192742 0.495659 -0.390084
N9    N     N_R   0.137505 0.487598 0.831206 0.249141
O65   O     O_R   0.172472 0.542241 0.842071 -0.292788
O66   O     O_R   0.170083 0.424543 0.869988 -0.305365
N10   N     N_R   0.863627 0.481066 0.170185 0.248389
O67   O     O_R   0.825698 0.534347 0.154917 -0.296164
O68   O     O_R   0.834242 0.416386 0.135642 -0.303235
N11   N     N_R   0.637954 0.990687 0.831737 0.249573
O69   O     O_R   0.672248 0.928584 0.872617 -0.302617
O70   O     O_R   0.671316 0.045990 0.840432 -0.299941
N12   N     N_R   0.394599 0.917175 0.206018 0.244949
O71   O     O_R   0.417779 0.863820 0.264588 -0.361911
O72   O     O_R   0.324510 0.925718 0.125400 -0.284052

loop_
_geom_bond_atom_site_label_1
_geom_bond_atom_site_label_2
_geom_bond_distance
_ccdc_geom_bond_type
O45   Zn10  2.005162 S    
C34   C38   1.403108 A    
O31   C63   1.282594 A    
N7    O61   1.301227 A    
O4    C1    1.267687 A    
N5    O57   1.301327 A    
C56   C72   1.396094 S    
C31   C35   1.414605 A    
C75   C77   1.183411 T    
C15   C19   1.390700 A    
O35   Zn10  1.995326 S    
O36   Zn9   1.995329 S    
C66   C77   1.397025 S    
C23   N7    1.437496 S    
O34   C66   1.278147 A    
N1    O49   1.300762 A    
O21   C59   1.268333 A    
O33   C65   1.279161 A    
O40   Zn11  1.995329 S    
C7    C35   1.438233 S    
O31   Zn8   2.010941 S    
C10   C30   1.420202 A    
O13   C7    1.265016 A    
O30   Zn5   2.010941 S    
C1    C49   1.396086 S    
C11   Cl3   1.760370 S    
C17   H1    1.082889 S    
O14   C8    1.275890 A    
C12   C16   1.400719 A    
C76   C78   1.183566 T    
C18   H2    1.082893 S    
O23   C59   1.266667 A    
N11   O70   1.301290 A    
O6    C4    1.269239 A    
C25   C29   1.404365 A    
O11   Zn1   2.023045 S    
O39   Zn12  1.995326 S    
O46   C70   1.279420 A    
C40   N4    1.436120 S    
O32   C64   1.274006 A    
O7    Zn3   1.992480 S    
O44   C72   1.279411 A    
C20   C24   1.401654 A    
C37   N1    1.438247 S    
N8    O63   1.301624 A    
O42   Zn10  1.982088 S    
O25   Zn5   2.032921 S    
O37   C67   1.279201 A    
O11   C6    1.264789 A    
O6    Zn4   1.992830 S    
O23   Zn8   1.995812 S    
O24   C60   1.267355 A    
C9    C13   1.402855 A    
N10   O68   1.301058 A    
N9    O66   1.301095 A    
N3    O53   1.301108 A    
O18   Zn6   1.996165 S    
O15   Zn3   2.023045 S    
O41   C69   1.278171 A    
C20   H4    1.082846 S    
N4    O56   1.301051 A    
C44   C48   1.410007 A    
O17   C57   1.267375 A    
N6    O60   1.301612 A    
C73   C79   1.183401 T    
C44   N12   1.436262 S    
N5    O58   1.301602 A    
C25   C45   1.416665 A    
O27   Zn7   2.032921 S    
N12   O72   1.301051 A    
O1    Zn1   1.992832 S    
C67   C80   1.397236 S    
O9    Zn1   2.020398 S    
C68   C79   1.397166 S    
O20   C58   1.267339 A    
O48   C72   1.278491 A    
N1    O50   1.301086 A    
C27   C47   1.416755 A    
O27   C63   1.272201 A    
C24   N8    1.434747 S    
O12   Zn2   2.023045 S    
O7    C4    1.269117 A    
O19   C57   1.267365 A    
O17   Zn5   1.996164 S    
C10   C14   1.402718 A    
O33   Zn9   1.998007 S    
O13   Zn3   2.020398 S    
C16   C20   1.388597 A    
O1    C1    1.269261 A    
O47   Zn12  2.005162 S    
O46   Zn9   2.005165 S    
O48   Zn11  2.005165 S    
O25   C61   1.271571 A    
O24   Zn7   1.995814 S    
C38   C42   1.390515 A    
O44   Zn12  1.982088 S    
C23   C27   1.422691 A    
C48   C64   1.443544 S    
C27   C31   1.404523 A    
C43   N11   1.434920 S    
O30   C62   1.282754 A    
C42   N10   1.434665 S    
C15   Cl7   1.761242 S    
O40   C68   1.278815 A    
O43   Zn11  1.982087 S    
C9    C29   1.420753 A    
C58   C74   1.397185 S    
C13   Cl5   1.761272 S    
N11   O69   1.301120 A    
C39   C43   1.391585 A    
C5    C33   1.437785 S    
C28   C48   1.417143 A    
O45   C69   1.279514 A    
N7    O62   1.301582 A    
O29   C61   1.282678 A    
O4    Zn2   1.992482 S    
O16   C7    1.276415 A    
C21   C25   1.422759 A    
C8    C36   1.437737 S    
C55   C71   1.395465 S    
O20   Zn5   1.995814 S    
O14   Zn4   2.020399 S    
O2    Zn2   1.992830 S    
C53   C69   1.395663 S    
O10   Zn2   2.020399 S    
C33   C37   1.403536 A    
C39   N3    1.438110 S    
N4    O55   1.300488 A    
C22   N6    1.437646 S    
C59   C75   1.397997 S    
O29   Zn6   2.010941 S    
N6    O59   1.301362 A    
O39   C67   1.278822 A    
O28   C64   1.267411 A    
O37   Zn11  1.998007 S    
O8    Zn4   1.992482 S    
C11   C15   1.402935 A    
O34   Zn10  1.998008 S    
C51   C55   1.182461 T    
C17   C21   1.400083 A    
O2    C2    1.267773 A    
C40   C44   1.388707 A    
N10   O67   1.301228 A    
C19   C23   1.399990 A    
C30   C34   1.414175 A    
C10   Cl2   1.760042 S    
C47   C63   1.467515 S    
O26   Zn6   2.032919 S    
O32   Zn7   2.010941 S    
C29   C33   1.414489 A    
O43   C71   1.277796 A    
C14   C18   1.390774 A    
C35   C39   1.403661 A    
O22   Zn8   1.996165 S    
C52   C56   1.182864 T    
N2    O52   1.301075 A    
C14   Cl6   1.761186 S    
C6    C34   1.437380 S    
C9    Cl1   1.760330 S    
C46   C62   1.464989 S    
O12   C5    1.276303 A    
O5    C3    1.269217 A    
C45   C61   1.466699 S    
O16   Zn4   2.023045 S    
C22   C26   1.422961 A    
C57   C73   1.397357 S    
O18   C58   1.267383 A    
O19   Zn6   1.995812 S    
O35   C65   1.278884 A    
C36   C40   1.405382 A    
O41   Zn9   1.982087 S    
O10   C6    1.276069 A    
C4    C52   1.397184 S    
O15   C8    1.264582 A    
C54   C70   1.395682 S    
C26   C30   1.404046 A    
O3    C2    1.269261 A    
C3    C51   1.396062 S    
O9    C5    1.264817 A    
O36   C66   1.279868 A    
C2    C50   1.396178 S    
O5    Zn3   1.992832 S    
C42   C46   1.414984 A    
C41   N9    1.434793 S    
C74   C80   1.183574 T    
O8    C3    1.267416 A    
C41   C45   1.414780 A    
N8    O64   1.301736 A    
O42   C70   1.278277 A    
C13   C17   1.390693 A    
C65   C78   1.397265 S    
C43   C47   1.414647 A    
N2    O51   1.300754 A    
N3    O54   1.300737 A    
C37   C41   1.391192 A    
C26   C46   1.416458 A    
O47   C71   1.279783 A    
C18   C22   1.400289 A    
O22   C60   1.267365 A    
C32   C36   1.412113 A    
C24   C28   1.423775 A    
O3    Zn1   1.992480 S    
C19   H3    1.082897 S    
C49   C53   1.182561 T    
N9    O65   1.301236 A    
C50   C54   1.182574 T    
C16   Cl8   1.760991 S    
O38   Zn12  1.998008 S    
O28   Zn8   2.032919 S    
C38   N2    1.438231 S    
C11   C31   1.420922 A    
N12   O71   1.301188 A    
O21   Zn7   1.996164 S    
C21   N5    1.437586 S    
C12   C32   1.418103 A    
O38   C68   1.279256 A    
C28   C32   1.399620 A    
O26   C62   1.270427 A    
C12   Cl4   1.754439 S    
C60   C76   1.397145 S    
