data_mof_unit_32752.cif
_audit_creation_date              2012-10-26T21:08:41-0400
_audit_creation_method            fapswitch 2.2
_symmetry_space_group_name_H-M    P1
_symmetry_Int_Tables_number       1
_space_group_crystal_system       triclinic
_cell_length_a                    22.490089
_cell_length_b                    22.473358
_cell_length_c                    14.652382
_cell_angle_alpha                 89.995393
_cell_angle_beta                  89.87807
_cell_angle_gamma                 89.998091
_cell_volume                      7405.70471752

loop_
_atom_site_label
_atom_site_type_symbol
_atom_type_description
_atom_site_fract_x
_atom_site_fract_y
_atom_site_fract_z
_atom_type_partial_charge
C1    C     C_R   0.419811 0.919791 0.500059 0.556449
C2    C     C_1   0.662325 0.837347 0.499608 0.086003
C3    C     C_1   0.662533 0.162447 0.499659 0.087195
C4    C     C_1   0.337613 0.837416 0.500404 0.086654
C5    C     C_1   0.837448 0.662436 0.500324 0.088281
C6    C     C_1   0.162386 0.337407 0.499678 0.085684
C7    C     C_1   0.162568 0.662413 0.499598 0.087505
C8    C     C_1   0.837558 0.337473 0.500433 0.086979
C9    C     C_1   0.499994 0.999987 0.194456 0.321846
C10   C     C_1   0.500016 0.000007 0.805544 0.321684
C11   C     C_1   0.999981 0.499966 0.194455 0.321771
C12   C     C_R   0.580200 0.080200 0.499943 0.554441
C13   C     C_1   0.000001 0.499953 0.805544 0.321787
C14   C     C_3   0.532132 0.045944 0.969274 0.170077
C15   C     C_3   0.467876 0.954002 0.030746 0.170538
C16   C     C_3   0.476296 0.050791 0.030725 0.169940
C17   C     C_3   0.523729 0.949155 0.969256 0.170821
C18   C     C_3   0.023938 0.550594 0.969274 0.170539
C19   C     C_3   0.976020 0.449181 0.030751 0.170857
C20   C     C_3   0.968078 0.546011 0.030717 0.170103
C21   C     C_3   0.031896 0.453764 0.969257 0.169997
C22   C     C_3   0.699036 0.726962 0.532514 0.179625
C23   C     C_R   0.580178 0.919779 0.499945 0.555834
C24   C     C_3   0.296290 0.268254 0.450332 0.153756
C25   C     C_3   0.298876 0.729174 0.458104 0.202189
C26   C     C_3   0.702832 0.269118 0.547329 0.153133
C27   C     C_3   0.203311 0.231386 0.549769 0.178875
C28   C     C_3   0.800557 0.772671 0.467376 0.151785
C29   C     C_3   0.797341 0.230741 0.452847 0.202717
C30   C     C_3   0.201418 0.770568 0.541915 0.151251
C31   C     C_3   0.227803 0.199695 0.464068 0.187807
C32   C     C_3   0.767026 0.795260 0.552611 0.197769
C33   C     C_3   0.771459 0.200395 0.538712 0.191741
C34   C     C_R   0.419792 0.080193 0.500053 0.555105
C35   C     C_3   0.230184 0.797999 0.455921 0.196372
C36   C     C_3   0.732578 0.704330 0.447249 0.187317
C37   C     C_3   0.271805 0.299897 0.536018 0.197862
C38   C     C_3   0.270109 0.701702 0.544092 0.191993
C39   C     C_3   0.728711 0.299429 0.461453 0.197803
C40   C     C_1   0.375076 0.124800 0.500237 0.096739
C41   C     C_1   0.624766 0.875047 0.499750 0.096951
C42   C     C_1   0.624884 0.124840 0.499761 0.095426
C43   C     C_1   0.375196 0.875090 0.500262 0.097822
C44   C     C_1   0.875118 0.624842 0.500227 0.096790
C45   C     C_R   0.919804 0.419799 0.500060 0.555339
C46   C     C_1   0.124809 0.375090 0.499774 0.096548
C47   C     C_1   0.124902 0.624821 0.499737 0.096658
C48   C     C_1   0.875162 0.375124 0.500271 0.097152
C49   C     C_3   0.267205 0.239610 0.585929 -0.080741
C50   C     C_3   0.741412 0.769019 0.414436 -0.098932
C51   C     C_3   0.734070 0.238375 0.413946 -0.080089
C52   C     C_3   0.263278 0.764263 0.586317 -0.103870
C53   C     C_3   0.758213 0.730612 0.585415 -0.080018
C54   C     C_3   0.232422 0.260018 0.414126 -0.098655
C55   C     C_3   0.237005 0.735449 0.413731 -0.080273
C56   C     C_R   0.080203 0.580197 0.499941 0.555736
C57   C     C_3   0.766096 0.261459 0.586250 -0.103882
C58   C     C_3   0.291633 0.208017 0.500219 -0.066216
C59   C     C_3   0.707951 0.791582 0.499725 -0.073166
C60   C     C_3   0.708253 0.208124 0.499833 -0.069327
C61   C     C_3   0.291973 0.791671 0.500284 -0.076887
C62   C     C_3   0.791689 0.708075 0.500151 -0.066382
C63   C     C_3   0.208012 0.291641 0.499848 -0.073556
C64   C     C_3   0.208302 0.708075 0.499741 -0.069112
C65   C     C_3   0.791903 0.291742 0.500341 -0.076669
C66   C     C_3   0.555861 0.995106 0.030462 0.155375
C67   C     C_R   0.080193 0.419793 0.499948 0.555714
C68   C     C_3   0.444156 0.004839 0.969539 0.154379
C69   C     C_3   0.055859 0.504482 0.030458 0.155003
C70   C     C_3   0.944108 0.495293 0.969540 0.155060
C71   C     C_3   0.500013 0.999966 0.092200 -0.127913
C72   C     C_3   0.500005 0.000001 0.907801 -0.127968
C73   C     C_3   0.999988 0.499913 0.092198 -0.127860
C74   C     C_3   0.999978 0.499891 0.907801 -0.128010
C75   C     C_1   0.731496 0.790356 0.320998 0.311615
C76   C     C_1   0.286754 0.227916 0.679765 0.357396
C77   C     C_1   0.278331 0.780310 0.680598 0.312623
C78   C     C_R   0.919807 0.580208 0.500052 0.555445
C79   C     C_1   0.716065 0.225262 0.319825 0.357322
C80   C     C_1   0.212724 0.271550 0.320317 0.313475
C81   C     C_1   0.767984 0.709140 0.678816 0.356880
C82   C     C_1   0.784286 0.274396 0.680343 0.312195
C83   C     C_1   0.222124 0.719202 0.319463 0.355974
C84   C     C_1   0.337390 0.162376 0.500355 0.088825
Cu1   Cu    Cu3+1 0.500000 0.000000 0.590220 1.172877
Cu2   Cu    Cu3+1 0.500000 0.000000 0.409780 1.173221
Cu3   Cu    Cu3+1 0.000000 0.500000 0.590220 1.173227
Cu4   Cu    Cu3+1 0.000000 0.500000 0.409780 1.172974
H1    H     H_    0.304386 0.974957 0.019033 0.393774
H2    H     H_    0.383588 0.395356 0.641898 0.400862
H3    H     H_    0.390533 0.628141 0.598219 0.398467
H4    H     H_    0.618022 0.393945 0.350989 0.399195
H5    H     H_    0.620438 0.604448 0.551555 0.384558
H6    H     H_    0.310687 0.360306 0.312362 0.350546
H7    H     H_    0.394110 0.619024 0.347551 0.396092
H8    H     H_    0.686188 0.363179 0.681669 0.351457
H9    H     H_    0.129454 0.113578 0.617574 0.385128
H10   H     H_    0.827481 0.877906 0.359701 0.349982
H11   H     H_    0.889348 0.123667 0.330066 0.396569
H12   H     H_    0.688421 0.941313 0.981226 0.393656
H13   H     H_    0.180749 0.869238 0.666159 0.350125
H14   H     H_    0.407452 0.197843 0.014270 0.393871
H15   H     H_    0.597850 0.804611 0.984270 0.394630
H16   H     H_    0.624997 0.179112 0.985774 0.393037
H17   H     H_    0.370207 0.824230 0.015638 0.393615
H18   H     H_    0.875590 0.679439 0.014187 0.392738
H19   H     H_    0.128771 0.323383 0.984343 0.394658
H20   H     H_    0.093520 0.697287 0.985758 0.392958
H21   H     H_    0.901241 0.304977 0.015779 0.393994
H22   H     H_    0.811305 0.442209 0.018854 0.393217
H23   H     H_    0.195486 0.473929 0.980953 0.393614
H24   H     H_    0.106043 0.121181 0.435661 0.383283
H25   H     H_    0.865831 0.878264 0.703747 0.400770
H26   H     H_    0.893511 0.125274 0.577808 0.397902
H27   H     H_    0.123491 0.888727 0.329868 0.400435
H28   H     H_    0.616555 0.631496 0.370694 0.381884
N1    N     N_1   0.499980 0.000000 0.274190 -0.141086
N2    N     N_1   0.775701 0.692213 0.752417 -0.119279
N3    N     N_1   0.798630 0.284610 0.754489 -0.138019
N4    N     N_1   0.210383 0.706387 0.245180 -0.119884
N5    N     N_1   0.500020 0.000000 0.725810 -0.141121
N6    N     N_1   0.999980 0.500000 0.274190 -0.141175
N7    N     N_1   0.000020 0.500000 0.725810 -0.141089
N8    N     N_1   0.723662 0.807181 0.247370 -0.138717
N9    N     N_1   0.302167 0.218683 0.753708 -0.118334
N10   N     N_1   0.290205 0.792966 0.754892 -0.138407
N11   N     N_1   0.701863 0.214917 0.245655 -0.126428
N12   N     N_1   0.197196 0.280656 0.246396 -0.138101
O1    O     O_R   0.439540 0.939530 0.576170 -0.491926
O2    O     O_R   0.560470 0.060470 0.576200 -0.474630
O3    O     O_3   0.919043 0.340572 0.986713 -0.419381
O4    O     O_R   0.560470 0.939530 0.576200 -0.472789
O5    O     O_R   0.439530 0.060470 0.423800 -0.474455
O6    O     O_R   0.939530 0.439530 0.423800 -0.472716
O7    O     O_R   0.060470 0.560470 0.576200 -0.474303
O8    O     O_R   0.060470 0.439530 0.576200 -0.472510
O9    O     O_R   0.939530 0.560470 0.423800 -0.474307
O10   O     O_2   0.365429 0.067323 0.870429 -0.170050
O11   O     O_2   0.356181 0.958920 0.867416 -0.230314
O12   O     O_3   0.321649 0.015359 0.013928 -0.393776
O13   O     O_R   0.560460 0.060470 0.423830 -0.492156
O14   O     O_2   0.644260 0.043030 0.129372 -0.171321
O15   O     O_2   0.634540 0.934672 0.132746 -0.229560
O16   O     O_3   0.678321 0.984088 0.986045 -0.395441
O17   O     O_2   0.855967 0.543631 0.870531 -0.170123
O18   O     O_2   0.865135 0.435220 0.867314 -0.232002
O19   O     O_3   0.821586 0.484935 0.013932 -0.393416
O20   O     O_2   0.134891 0.566564 0.129568 -0.171161
O21   O     O_2   0.143616 0.458114 0.132570 -0.231745
O22   O     O_3   0.178416 0.514410 0.986060 -0.393919
O23   O     O_2   0.236034 0.118975 0.329550 -0.160984
O24   O     O_R   0.560460 0.939530 0.423830 -0.491484
O25   O     O_2   0.207712 0.082100 0.480620 -0.243086
O26   O     O_3   0.128707 0.140746 0.386020 -0.431688
O27   O     O_2   0.789683 0.912240 0.568313 -0.192186
O28   O     O_2   0.744328 0.862299 0.700209 -0.212705
O29   O     O_3   0.856351 0.842606 0.666817 -0.429736
O30   O     O_2   0.759870 0.119995 0.673168 -0.169880
O31   O     O_2   0.794551 0.083204 0.525139 -0.204079
O32   O     O_3   0.868642 0.143788 0.625894 -0.426792
O33   O     O_2   0.207045 0.915330 0.458657 -0.194328
O34   O     O_2   0.244744 0.873132 0.315250 -0.211169
O35   O     O_R   0.439540 0.060470 0.576170 -0.491800
O36   O     O_3   0.134922 0.851159 0.360525 -0.429380
O37   O     O_2   0.756006 0.638483 0.298563 -0.159257
O38   O     O_2   0.712739 0.586757 0.429776 -0.241712
O39   O     O_3   0.643882 0.655371 0.332301 -0.431559
O40   O     O_2   0.294744 0.416663 0.517229 -0.193449
O41   O     O_2   0.263877 0.381730 0.668833 -0.212752
O42   O     O_3   0.371315 0.357073 0.614196 -0.428052
O43   O     O_2   0.253949 0.625899 0.683642 -0.169203
O44   O     O_2   0.293310 0.584208 0.541533 -0.201008
O45   O     O_3   0.364175 0.648085 0.642968 -0.425951
O46   O     O_R   0.939540 0.439530 0.576170 -0.492111
O47   O     O_2   0.705669 0.416447 0.475241 -0.200728
O48   O     O_2   0.738619 0.379215 0.325977 -0.210956
O49   O     O_3   0.630416 0.355464 0.377877 -0.428644
O50   O     O_2   0.615546 0.732256 0.663501 -0.169068
O51   O     O_2   0.582001 0.707025 0.509552 -0.242466
O52   O     O_3   0.638762 0.626112 0.603190 -0.432874
O53   O     O_2   0.413777 0.288839 0.441428 -0.146093
O54   O     O_2   0.366058 0.250317 0.303427 -0.210809
O55   O     O_3   0.348622 0.361315 0.346515 -0.399650
O56   O     O_2   0.374413 0.740400 0.317062 -0.199908
O57   O     O_R   0.060460 0.560470 0.423830 -0.491527
O58   O     O_2   0.416583 0.709062 0.463730 -0.231541
O59   O     O_3   0.354843 0.631809 0.371072 -0.448116
O60   O     O_2   0.585257 0.289863 0.551057 -0.146161
O61   O     O_2   0.630730 0.253412 0.692160 -0.211113
O62   O     O_3   0.648927 0.363729 0.645789 -0.398034
O63   O     O_2   0.134350 0.251620 0.696315 -0.166404
O64   O     O_2   0.085599 0.210902 0.560888 -0.244510
O65   O     O_3   0.152302 0.140192 0.658374 -0.432762
O66   O     O_2   0.917133 0.792520 0.492465 -0.140290
O67   O     O_2   0.884849 0.769615 0.336830 -0.212549
O68   O     O_R   0.060460 0.439530 0.423830 -0.492386
O69   O     O_3   0.861610 0.874817 0.402026 -0.396271
O70   O     O_2   0.868188 0.246711 0.307167 -0.199019
O71   O     O_2   0.915039 0.210619 0.447782 -0.238854
O72   O     O_3   0.850226 0.136459 0.354087 -0.449972
O73   O     O_2   0.083897 0.791178 0.534762 -0.139701
O74   O     O_2   0.124602 0.759791 0.682027 -0.211227
O75   O     O_3   0.144398 0.868370 0.628165 -0.397403
O76   O     O_2   0.391081 0.103819 0.130404 -0.181679
O77   O     O_2   0.489978 0.149840 0.131105 -0.196424
O78   O     O_3   0.424874 0.161931 0.985594 -0.404844
O79   O     O_R   0.939540 0.560470 0.576170 -0.491845
O80   O     O_2   0.507946 0.847795 0.875269 -0.176751
O81   O     O_2   0.605301 0.896242 0.862457 -0.232584
O82   O     O_3   0.580204 0.840287 0.013327 -0.418490
O83   O     O_2   0.625266 0.083516 0.869728 -0.181374
O84   O     O_2   0.535750 0.145873 0.868816 -0.193252
O85   O     O_3   0.601846 0.146579 0.014448 -0.405915
O86   O     O_2   0.465964 0.851407 0.124758 -0.173835
O87   O     O_2   0.378376 0.915881 0.137460 -0.233103
O88   O     O_3   0.393561 0.856476 0.986619 -0.420604
O89   O     O_2   0.875140 0.583999 0.130326 -0.178029
O90   O     O_R   0.439530 0.939530 0.423800 -0.472362
O91   O     O_2   0.964916 0.645978 0.131099 -0.196339
O92   O     O_3   0.898761 0.646928 0.985530 -0.405820
O93   O     O_2   0.033294 0.351186 0.875196 -0.171228
O94   O     O_2   0.121213 0.415202 0.862546 -0.233628
O95   O     O_3   0.105710 0.355836 0.013357 -0.421380
O96   O     O_2   0.109404 0.603217 0.869591 -0.181765
O97   O     O_2   0.010734 0.649732 0.868918 -0.196482
O98   O     O_3   0.075909 0.661462 0.014425 -0.405415
O99   O     O_2   0.991335 0.347741 0.124773 -0.177768
O100  O     O_2   0.894207 0.396642 0.137568 -0.233570
S1    S     S_3+6 0.370238 0.011655 0.926689 0.145707
S2    S     S_3+6 0.299716 0.366862 0.585216 0.113067
S3    S     S_3+6 0.294698 0.637188 0.604128 0.127346
S4    S     S_3+6 0.701596 0.365637 0.408894 0.111402
S5    S     S_3+6 0.631010 0.698719 0.577992 0.097113
S6    S     S_3+6 0.358709 0.291292 0.383704 0.129666
S7    S     S_3+6 0.364095 0.703398 0.401038 0.087194
S8    S     S_3+6 0.639385 0.293167 0.610738 0.130290
S9    S     S_3+6 0.141177 0.209272 0.617652 0.099082
S10   S     S_3+6 0.868718 0.801681 0.423398 0.132124
S11   S     S_3+6 0.860560 0.206975 0.388841 0.086400
S12   S     S_3+6 0.629845 0.988989 0.073298 0.143919
S13   S     S_3+6 0.135976 0.796669 0.598238 0.133028
S14   S     S_3+6 0.444804 0.118182 0.073379 0.153492
S15   S     S_3+6 0.554915 0.881730 0.926182 0.125947
S16   S     S_3+6 0.574767 0.106911 0.926644 0.153287
S17   S     S_3+6 0.425551 0.892932 0.073789 0.126022
S18   S     S_3+6 0.925714 0.607167 0.073339 0.152665
S19   S     S_3+6 0.073915 0.392486 0.926196 0.127544
S20   S     S_3+6 0.055757 0.617835 0.926630 0.152498
S21   S     S_3+6 0.944525 0.381898 0.073844 0.125810
S22   S     S_3+6 0.870099 0.489541 0.926685 0.144528
S23   S     S_3+6 0.129811 0.510931 0.073307 0.144590
S24   S     S_3+6 0.200717 0.132570 0.414159 0.103968
S25   S     S_3+6 0.788465 0.855967 0.623681 0.112524
S26   S     S_3+6 0.797978 0.134025 0.591630 0.127388
S27   S     S_3+6 0.205015 0.862358 0.396169 0.112673
S28   S     S_3+6 0.712083 0.643549 0.375569 0.103922

loop_
_geom_bond_atom_site_label_1
_geom_bond_atom_site_label_2
_ccdc_geom_bond_type
O21   S23   D    
C27   C49   S    
C39   C51   S    
C23   O24   A    
H23   O22   S    
C3    C42   T    
O63   S9    D    
O47   S4    D    
C30   C64   S    
C9    N1    T    
C40   C84   T    
O67   S10   D    
H18   O92   S    
O80   S15   D    
C25   S7    S    
O51   S5    D    
C10   N5    T    
O81   S15   D    
O49   S4    S    
O30   S26   D    
H7    O59   S    
O22   S23   S    
O19   S22   S    
Cu1   Cu2   S    
O41   S2    D    
O14   S12   D    
H3    O45   S    
C45   O6    A    
C36   S28   S    
C12   O2    A    
C30   C35   S    
O18   S22   D    
C34   C40   S    
C50   C59   S    
O31   S26   D    
C31   C58   S    
C33   S26   S    
C19   C21   S    
C46   C67   S    
O82   S15   S    
O58   S7    D    
C1    O1    A    
C52   C61   S    
Cu1   O4    S    
C28   C62   S    
C16   S14   S    
Cu1   O2    S    
C26   C39   S    
C38   C52   S    
C54   C63   S    
C2    C41   T    
C24   C54   S    
O48   S4    D    
C29   C33   S    
H22   O19   S    
O73   S13   D    
C12   O13   A    
O16   S12   S    
C53   C81   S    
Cu2   O90   S    
H9    O65   S    
H27   O36   S    
O61   S8    D    
Cu4   O68   S    
C78   O79   A    
C12   C42   S    
O45   S3    S    
Cu1   O1    S    
O93   S19   D    
C28   C50   S    
O53   S6    D    
C1    C43   S    
C15   S17   S    
C36   C50   S    
C30   S13   S    
H11   O72   S    
H21   O3    S    
O38   S28   D    
C5    C62   S    
H28   O39   S    
C69   C73   S    
C1    O90   A    
C16   C68   S    
O26   S24   S    
C70   S22   S    
C38   C64   S    
O60   S8    D    
C13   C74   S    
O77   S14   D    
O99   S21   D    
C28   S10   S    
C3    C60   S    
O97   S20   D    
C20   S18   S    
O86   S17   D    
O12   S1    S    
C18   C74   S    
H17   O88   S    
H24   O26   S    
C35   S27   S    
C76   N9    T    
C39   C65   S    
C20   C70   S    
O78   S14   S    
C16   C71   S    
H8    O62   S    
C82   N3    T    
C36   C62   S    
O15   S12   D    
H15   O82   S    
C37   C63   S    
H5    O52   S    
O96   S20   D    
C22   C53   S    
H19   O95   S    
O85   S16   S    
C37   S2    S    
C7    C64   S    
O25   S24   D    
O43   S3    D    
O91   S18   D    
C22   S5    S    
C35   C55   S    
C75   N8    T    
Cu3   O7    S    
O17   S22   D    
C28   C32   S    
O89   S18   D    
C21   S19   S    
O11   S1    D    
C34   O35   A    
H12   O16   S    
C22   C59   S    
C69   S23   S    
C2    C59   S    
C19   S21   S    
C80   N12   T    
C34   O5    A    
O95   S19   S    
O88   S17   S    
O74   S13   D    
C27   C31   S    
C21   C74   S    
C49   C58   S    
O28   S25   D    
C21   C69   S    
C7    C47   T    
C83   N4    T    
C32   S25   S    
Cu3   Cu4   S    
C8    C48   T    
O56   S7    D    
C70   C74   S    
Cu2   O24   S    
C25   C38   S    
C6    C63   S    
C37   C49   S    
O69   S10   S    
Cu2   O5    S    
C66   C71   S    
C19   C73   S    
C68   C72   S    
H1    O12   S    
O65   S9    S    
C55   C64   S    
H2    O42   S    
C24   C37   S    
C14   C66   S    
C49   C76   S    
O70   S11   D    
C35   C61   S    
C25   C61   S    
O66   S10   D    
Cu1   N5    S    
H14   O78   S    
H26   O32   S    
C38   S3    S    
C27   C63   S    
C15   C71   S    
C53   C62   S    
C14   S16   S    
Cu4   N6    S    
Cu4   O57   S    
C5    C44   T    
O52   S5    S    
O87   S17   D    
C33   C60   S    
C54   C80   S    
C11   C73   S    
O29   S25   S    
Cu1   O35   S    
C14   C16   S    
O36   S27   S    
O62   S8    S    
H6    O55   S    
C55   C83   S    
C52   C77   S    
C78   O9    A    
C32   C53   S    
O33   S27   D    
C56   O7    A    
C22   C36   S    
C68   S1    S    
C27   S9    S    
O100  S21   D    
C29   C51   S    
C45   C48   S    
C26   S8    S    
C15   C17   S    
Cu3   O46   S    
O92   S18   S    
O20   S23   D    
C33   C57   S    
O39   S28   S    
C6    C46   T    
H10   O69   S    
C66   S12   S    
O32   S26   S    
Cu3   O8    S    
O10   S1    D    
C9    C71   S    
C57   C65   S    
O34   S27   D    
C19   C70   S    
O71   S11   D    
H16   O85   S    
O50   S5    D    
O76   S14   D    
C23   O4    A    
C29   C65   S    
O98   S20   S    
O23   S24   D    
O75   S13   S    
C4    C43   T    
O94   S19   D    
C23   C41   S    
O37   S28   D    
C14   C72   S    
C4    C61   S    
C44   C78   S    
C67   O8    A    
O72   S11   S    
C79   N11   T    
C39   S4    S    
O84   S16   D    
C50   C75   S    
O83   S16   D    
Cu3   N7    S    
O44   S3    D    
O64   S9    D    
H20   O98   S    
C18   C69   S    
C13   N7    T    
C15   C68   S    
O42   S2    S    
O40   S2    D    
C25   C55   S    
C20   C73   S    
Cu3   O79   S    
Cu2   N1    S    
C18   C20   S    
H4    O49   S    
C81   N2    T    
C31   C54   S    
C17   C66   S    
C58   C84   S    
C26   C57   S    
C51   C79   S    
Cu4   O9    S    
C24   S6    S    
O27   S25   D    
O54   S6    D    
O55   S6    S    
Cu4   O6    S    
C11   N6    T    
O3    S21   S    
C8    C65   S    
C56   O57   A    
C17   S15   S    
C17   C72   S    
C24   C58   S    
C18   S20   S    
C57   C82   S    
C47   C56   S    
C31   S24   S    
C51   C60   S    
C32   C59   S    
H25   O29   S    
C45   O46   A    
C26   C60   S    
C29   S11   S    
O59   S7    S    
C77   N10   T    
C67   O68   A    
Cu2   O13   S    
H13   O75   S    
C30   C52   S    
C10   C72   S    
