data_mof_unit_47252.cif
_audit_creation_date              2013-03-05T16:06:02-0500
_audit_creation_method            fapswitch 2.2
_symmetry_space_group_name_H-M    P1
_symmetry_Int_Tables_number       1
_space_group_crystal_system       triclinic
_cell_length_a                    10.931447
_cell_length_b                    9.569261
_cell_length_c                    23.115321
_cell_angle_alpha                 89.927221
_cell_angle_beta                  90.003336
_cell_angle_gamma                 89.988558
_cell_volume                      2417.99624778

loop_
_atom_site_label
_atom_site_type_symbol
_atom_site_description
_atom_site_fract_x
_atom_site_fract_y
_atom_site_fract_z
_atom_type_partial_charge
O1    O     O_R   0.319640 0.618740 0.500000 -0.519711
O2    O     O_R   0.680360 0.381260 0.500000 -0.529270
O3    O     O_R   0.680360 0.618740 0.500000 -0.521322
O4    O     O_R   0.319640 0.381260 0.500000 -0.520955
C1    C     C_R   0.262179 0.499539 0.498651 0.877858
C2    C     C_R   0.737771 0.499476 0.501444 0.869780
O5    O     O_R   0.499960 0.618810 0.417880 -0.526434
O6    O     O_R   0.500040 0.381190 0.582120 -0.557840
O7    O     O_R   0.500040 0.618810 0.582120 -0.531215
O8    O     O_R   0.499960 0.381190 0.417880 -0.558163
C3    C     C_R   0.499898 0.500355 0.390749 0.879352
C4    C     C_R   0.501117 0.500159 0.609247 0.873337
Cu1   Cu    Cu3+1 0.500000 0.640660 0.500000 1.047922
Cu2   Cu    Cu3+1 0.500000 0.359340 0.500000 1.021717
C5    C     C_R   0.592919 0.669509 0.875392 0.585131
C6    C     C_R   0.407066 0.668750 0.124325 0.584372
N1    N     N_R   0.488405 0.616741 0.850772 -0.436809
N2    N     N_R   0.510946 0.614164 0.148970 -0.437573
C7    C     C_R   0.382149 0.645639 0.880199 0.629433
C8    C     C_R   0.617680 0.641302 0.119599 0.628704
C9    C     C_R   0.383380 0.656193 0.941160 -0.172403
C10   C     C_R   0.616621 0.653683 0.058638 -0.172051
C11   C     C_R   0.497429 0.658800 0.969436 -0.117085
C12   C     C_R   0.502604 0.658187 0.030341 -0.116827
C13   C     C_R   0.605544 0.671578 0.936377 -0.075453
C14   C     C_R   0.394538 0.671521 0.063385 -0.075556
C15   C     C_R   0.274493 0.663601 0.974031 0.509502
C16   C     C_R   0.725554 0.661116 0.025750 0.508518
C17   C     C_R   0.279657 0.682359 0.034680 0.023021
C18   C     C_R   0.720434 0.681187 0.965124 0.023338
O9    O     O_2   0.679893 0.725312 0.841231 -0.541826
O10   O     O_2   0.320612 0.725727 0.158411 -0.537575
O11   O     O_2   0.279358 0.678287 0.851112 -0.433644
O12   O     O_2   0.721161 0.669905 0.148836 -0.434341
C19   C     C_R   0.614373 0.499365 0.236064 0.511494
C20   C     C_R   0.383156 0.507418 0.763149 0.509064
C21   C     C_R   0.614062 0.485920 0.296835 -0.054024
C22   C     C_R   0.384351 0.494300 0.702418 -0.049673
C23   C     C_R   0.502981 0.501730 0.327228 -0.237150
C24   C     C_R   0.496853 0.501360 0.672718 -0.231705
C25   C     C_R   0.392491 0.510042 0.296150 0.406888
C26   C     C_R   0.606570 0.501245 0.704570 0.406010
C27   C     C_R   0.395056 0.516454 0.235365 0.104956
C28   C     C_R   0.603097 0.512229 0.765285 0.090350
C29   C     C_R   0.507328 0.546847 0.206662 0.053588
C30   C     C_R   0.491203 0.549211 0.793169 0.052752
C31   C     C_R   0.063967 0.368920 0.497198 0.344305
C32   C     C_R   0.937214 0.623658 0.506012 0.346639
C33   C     C_R   0.935846 0.368746 0.500535 0.348575
C34   C     C_R   0.062534 0.624159 0.496791 0.343591
C35   C     C_R   0.871837 0.497132 0.502944 -0.374302
C36   C     C_R   0.127998 0.497409 0.497448 -0.389758
C37   C     C_R   0.557027 0.073997 0.456700 0.395522
C38   C     C_R   0.433697 0.924244 0.540316 0.388101
C39   C     C_R   0.443144 0.073810 0.543346 0.393674
C40   C     C_R   0.566406 0.924464 0.459781 0.387182
N3    N     N_R   0.500000 0.852070 0.500000 -0.266844
N4    N     N_R   0.500000 0.147930 0.500000 -0.271453
O13   O     O_3   0.162251 0.649104 0.947020 -0.547567
C41   C     C_3   0.132059 0.505622 0.946382 -0.278646
H1    H     H_    0.203903 0.442068 0.924766 0.165511
H2    H     H_    0.046296 0.491478 0.921511 0.189908
H3    H     H_    0.116332 0.465544 0.990943 0.133210
O14   O     O_3   0.837820 0.646182 0.052720 -0.548052
C42   C     C_3   0.868174 0.502733 0.053066 -0.277224
H4    H     H_    0.796953 0.438988 0.075097 0.168722
H5    H     H_    0.954628 0.488469 0.077411 0.189482
H6    H     H_    0.882800 0.463050 0.008393 0.132119
C43   C     C_3   0.161655 0.705343 0.067634 -0.687923
H7    H     H_    0.147240 0.619299 0.099131 0.228144
H8    H     H_    0.164796 0.807461 0.090264 0.258663
H9    H     H_    0.080266 0.709593 0.039204 0.265355
C44   C     C_3   0.838433 0.704560 0.932224 -0.688353
H10   H     H_    0.852904 0.618849 0.900669 0.227700
H11   H     H_    0.835242 0.806913 0.909667 0.258596
H12   H     H_    0.919755 0.708580 0.960693 0.265719
O15   O     O_3   0.716676 0.453584 0.206384 -0.521089
C45   C     C_3   0.690781 0.321562 0.182207 -0.337074
H13   H     H_    0.621041 0.329927 0.147316 0.151071
H14   H     H_    0.660437 0.245493 0.215797 0.150584
H15   H     H_    0.775779 0.279658 0.162595 0.191533
O16   O     O_3   0.278838 0.465449 0.792235 -0.519349
C46   C     C_3   0.299349 0.331000 0.815410 -0.334862
H16   H     H_    0.369149 0.333985 0.850422 0.149827
H17   H     H_    0.326907 0.255146 0.781279 0.150157
H18   H     H_    0.212652 0.292539 0.834593 0.191334
C47   C     C_3   0.733558 0.454621 0.327279 -0.688258
H19   H     H_    0.724907 0.448870 0.374939 0.214548
H20   H     H_    0.770077 0.352729 0.312181 0.236130
H21   H     H_    0.801021 0.537823 0.317086 0.235220
C48   C     C_3   0.264316 0.470388 0.671338 -0.682692
H22   H     H_    0.273874 0.464002 0.623750 0.209894
H23   H     H_    0.222715 0.370874 0.686304 0.235003
H24   H     H_    0.200612 0.557662 0.681059 0.234123
O17   O     O_3   0.282854 0.531169 0.324831 -0.577143
C49   C     C_3   0.233487 0.402431 0.343047 -0.370520
H25   H     H_    0.171988 0.423603 0.379987 0.179565
H26   H     H_    0.303296 0.325775 0.357763 0.154510
H27   H     H_    0.176534 0.355895 0.308398 0.179287
O18   O     O_3   0.718886 0.499937 0.676882 -0.580645
C50   C     C_3   0.749423 0.362230 0.660569 -0.382249
H28   H     H_    0.849877 0.349897 0.664692 0.191320
H29   H     H_    0.724874 0.345396 0.614677 0.192846
H30   H     H_    0.706342 0.279278 0.687672 0.141704
C51   C     C_3   0.284238 0.462054 0.203232 -0.719318
H31   H     H_    0.204005 0.531114 0.210312 0.280641
H32   H     H_    0.301123 0.448199 0.156344 0.201465
H33   H     H_    0.261872 0.355718 0.219099 0.187125
C52   C     C_3   0.713457 0.459265 0.798424 -0.697272
H34   H     H_    0.792948 0.529787 0.792017 0.279382
H35   H     H_    0.694603 0.444697 0.845131 0.194890
H36   H     H_    0.739244 0.353945 0.782662 0.197611
O19   O     O_3   0.126843 0.242919 0.496651 -0.537014
C53   C     C_3   0.108275 0.171627 0.443746 -0.253758
H37   H     H_    0.198811 0.144946 0.425093 0.144362
H38   H     H_    0.055471 0.230676 0.410440 0.135148
H39   H     H_    0.059147 0.072503 0.452344 0.191639
O20   O     O_3   0.879107 0.749789 0.515371 -0.562860
C54   C     C_3   0.870490 0.771553 0.575576 -0.251507
H40   H     H_    0.823123 0.683571 0.597792 0.198273
H41   H     H_    0.815284 0.866888 0.583328 0.153997
H42   H     H_    0.962441 0.788407 0.594878 0.147336
O21   O     O_3   0.872965 0.242897 0.498015 -0.538653
C55   C     C_3   0.890059 0.165211 0.549527 -0.243453
H43   H     H_    0.799428 0.128258 0.564809 0.141118
H44   H     H_    0.933924 0.224090 0.585577 0.128709
H45   H     H_    0.946450 0.071557 0.540233 0.198479
O22   O     O_3   0.120592 0.751179 0.489808 -0.560352
C56   C     C_3   0.129536 0.779948 0.430094 -0.250958
H46   H     H_    0.172105 0.692339 0.405715 0.197630
H47   H     H_    0.189522 0.872225 0.424101 0.157961
H48   H     H_    0.038259 0.805141 0.411696 0.144231
O23   O     O_3   0.608317 0.145373 0.410728 -0.526107
C57   C     C_3   0.539168 0.117578 0.360234 -0.278851
H49   H     H_    0.439059 0.130413 0.367611 0.130103
H50   H     H_    0.557815 0.011478 0.343030 0.185358
H51   H     H_    0.566378 0.193003 0.326147 0.176094
O24   O     O_3   0.367605 0.847878 0.580753 -0.545930
C58   C     C_3   0.246749 0.898313 0.586990 -0.150620
H52   H     H_    0.211237 0.953447 0.547926 0.191764
H53   H     H_    0.239974 0.967746 0.625221 0.163302
H54   H     H_    0.186188 0.807887 0.595806 0.176359
O25   O     O_3   0.392537 0.144967 0.589454 -0.527107
C59   C     C_3   0.463924 0.118894 0.639421 -0.285105
H55   H     H_    0.563127 0.136823 0.631369 0.134879
H56   H     H_    0.450002 0.011408 0.656224 0.182034
H57   H     H_    0.434827 0.191959 0.673976 0.176886
O26   O     O_3   0.633396 0.848546 0.419662 -0.546826
C60   C     C_3   0.755299 0.896891 0.415571 -0.154617
H58   H     H_    0.788954 0.949781 0.455452 0.190071
H59   H     H_    0.765544 0.967923 0.377947 0.164492
H60   H     H_    0.815161 0.805639 0.407212 0.175113

loop_
_geom_bond_atom_site_label_1
_geom_bond_atom_site_label_2
_geom_bond_distance
_ccdc_geom_bond_type
C47   H19   1.107038 S    
C4    C24   1.467967 S    
C50   H28   1.108491 S    
C37   N4    1.375728 A    
C15   C17   1.414715 A    
C44   H11   1.109543 S    
C44   H10   1.109621 S    
O17   C49   1.408951 S    
O3    C2    1.302721 A    
O22   C56   1.410569 S    
C57   H51   1.108558 S    
C53   H37   1.109412 S    
O24   C58   1.413874 S    
O21   C55   1.415278 S    
C23   C25   1.407456 A    
C38   O24   1.388620 S    
O15   C45   1.410831 S    
O5    C3    1.296147 A    
C51   H32   1.107583 S    
C41   H3    1.112067 S    
O1    C1    1.302692 A    
C7    C9    1.412935 A    
C12   C14   1.412618 A    
C56   H46   1.112665 S    
C60   H59   1.108804 S    
C31   O19   1.387831 S    
C58   H54   1.108315 S    
C45   H14   1.114218 S    
C37   C40   1.436247 A    
Cu1   N3    2.023037 S    
O25   C59   1.415750 S    
C33   O21   1.388044 S    
C49   H27   1.108309 S    
C40   N3    1.367409 A    
C41   H2    1.108130 S    
C27   C51   1.513704 S    
C43   H8    1.109521 S    
O7    Cu1   1.909447 S    
O20   C54   1.410561 S    
C32   C35   1.407935 A    
C20   O16   1.383212 S    
C33   C35   1.414886 A    
C49   H26   1.111414 S    
C34   C36   1.408215 A    
C11   C12   1.408979 A    
C1    C36   1.467204 S    
C20   C30   1.427331 A    
C2    C35   1.466109 S    
O3    Cu1   1.982680 S    
C56   H48   1.110923 S    
C8    O12   1.346019 S    
C28   C52   1.515820 S    
C24   C26   1.407293 A    
C9    C15   1.413995 A    
O13   C41   1.412285 S    
C50   H29   1.106198 S    
C10   C16   1.414576 A    
Cu1   Cu2   2.692025 S    
C25   C27   1.406600 A    
O2    C2    1.294242 A    
C26   C28   1.408005 A    
C59   H57   1.108769 S    
C28   C30   1.427344 A    
C17   C43   1.514255 S    
C54   H41   1.108507 S    
C6    C14   1.415496 A    
Cu2   N4    2.023038 S    
C51   H33   1.108549 S    
C39   O25   1.381072 S    
C37   O23   1.381470 S    
O26   C60   1.413826 S    
C59   H56   1.109513 S    
C7    O11   1.345918 S    
C52   H36   1.108497 S    
C48   H22   1.106738 S    
C18   C44   1.513935 S    
C45   H13   1.112564 S    
O4    C1    1.294690 A    
C32   O20   1.381103 S    
C42   H5    1.108227 S    
C22   C48   1.513492 S    
C19   O15   1.383441 S    
C41   H1    1.112175 S    
C40   O26   1.387660 S    
C43   H9    1.106779 S    
C26   O18   1.384669 S    
C48   H23   1.110258 S    
C53   H38   1.115307 S    
C46   H16   1.112646 S    
O6    C4    1.300464 A    
C42   H6    1.112233 S    
C49   H25   1.105688 S    
N1    C30   1.481097 S    
C54   H40   1.113446 S    
C3    C23   1.468739 S    
C27   C29   1.425062 A    
C31   C36   1.414964 A    
C55   H45   1.108878 S    
C16   O14   1.383758 S    
C46   H17   1.114228 S    
C8    C10   1.413985 A    
O16   C46   1.410907 S    
C50   H30   1.115043 S    
C9    C11   1.407866 A    
O8    Cu2   1.909447 S    
O23   C57   1.416071 S    
C44   H12   1.106707 S    
C10   C12   1.408166 A    
C39   N4    1.375399 A    
C60   H60   1.108270 S    
O1    Cu1   1.982764 S    
C20   C22   1.409642 A    
C19   C29   1.427071 A    
N2    C29   1.480803 S    
C55   H44   1.114911 S    
O19   C53   1.415720 S    
C54   H42   1.111584 S    
C13   C18   1.423883 A    
C5    N1    1.372965 A    
C38   C39   1.436769 A    
O6    Cu2   1.909975 S    
C19   C21   1.410472 A    
C21   C47   1.513430 S    
C59   H55   1.113590 S    
C57   H50   1.109721 S    
C58   H52   1.114943 S    
C5    O9    1.346037 S    
C57   H49   1.114340 S    
C31   C33   1.402678 A    
C51   H31   1.110317 S    
O14   C42   1.412189 S    
C52   H35   1.107784 S    
C16   C18   1.415329 A    
C21   C23   1.411105 A    
C15   O13   1.383747 S    
C60   H58   1.114710 S    
C48   H24   1.110479 S    
C22   C24   1.410079 A    
C58   H53   1.108770 S    
C45   H15   1.109050 S    
C25   O17   1.384600 S    
C6    O10   1.346183 S    
C32   C34   1.386424 A    
O18   C50   1.411098 S    
N1    C7    1.374328 A    
N2    C8    1.374578 A    
C11   C13   1.412664 A    
O4    Cu2   1.982681 S    
C43   H7    1.109687 S    
O2    Cu2   1.982763 S    
O7    C4    1.296395 A    
C53   H39   1.107877 S    
C5    C13   1.416599 A    
O8    C3    1.300698 A    
O5    Cu1   1.909975 S    
C46   H18   1.109069 S    
C34   O22   1.380611 S    
C14   C17   1.423995 A    
C6    N2    1.373244 A    
C42   H4    1.112221 S    
C47   H21   1.110429 S    
C47   H20   1.110219 S    
C52   H34   1.110142 S    
C55   H43   1.109609 S    
C56   H47   1.108526 S    
C38   N3    1.368313 A    
