data_mof_unit_50423.cif
_audit_creation_date              2012-12-11T14:28:17-0500
_audit_creation_method            fapswitch 2.2
_symmetry_space_group_name_H-M    P1
_symmetry_Int_Tables_number       1
_space_group_crystal_system       triclinic
_cell_length_a                    11.157826
_cell_length_b                    19.725343
_cell_length_c                    18.496009
_cell_angle_alpha                 90.001364
_cell_angle_beta                  90.000333
_cell_angle_gamma                 90.00006
_cell_volume                      4070.82259403

loop_
_atom_site_label
_atom_site_type_symbol
_atom_type_description
_atom_site_fract_x
_atom_site_fract_y
_atom_site_fract_z
_atom_type_partial_charge
C1    C     C_R   0.315293 0.937152 0.637542 0.519945
C2    C     C_R   0.315270 0.937154 0.862461 0.519837
C3    C     C_R   0.315273 0.062857 0.362458 0.519873
C4    C     C_R   0.315283 0.062862 0.137547 0.519969
C5    C     C_R   0.815293 0.437152 0.637542 0.519945
C6    C     C_R   0.815270 0.437154 0.862461 0.519837
C7    C     C_R   0.815273 0.562857 0.362458 0.519873
C8    C     C_R   0.815283 0.562862 0.137547 0.519969
C9    C     C_3   0.229012 0.737812 0.448617 -0.118562
C10   C     C_3   0.228832 0.737495 0.051283 -0.118563
C11   C     C_3   0.228831 0.262479 0.551295 -0.118619
C12   C     C_3   0.229036 0.262195 0.948612 -0.118554
C13   C     C_3   0.729012 0.237812 0.448617 -0.118562
C14   C     C_3   0.728832 0.237495 0.051283 -0.118564
C15   C     C_3   0.728831 0.762479 0.551295 -0.118619
C16   C     C_3   0.729036 0.762195 0.948612 -0.118554
C17   C     C_3   0.101707 0.749976 0.421642 0.048919
C18   C     C_3   0.101658 0.749938 0.078344 0.048974
C19   C     C_3   0.101649 0.250069 0.578349 0.049004
C20   C     C_3   0.101722 0.250030 0.921641 0.048901
C21   C     C_3   0.601707 0.249976 0.421642 0.048919
C22   C     C_3   0.601658 0.249938 0.078344 0.048974
C23   C     C_3   0.601649 0.750069 0.578349 0.049005
C24   C     C_3   0.601722 0.750030 0.921641 0.048901
C25   C     C_R   0.318098 0.041085 0.438303 -0.046448
C26   C     C_R   0.318145 0.041081 0.061715 -0.046494
C27   C     C_R   0.318173 0.958946 0.561712 -0.046489
C28   C     C_R   0.318077 0.958943 0.938305 -0.046435
C29   C     C_R   0.818098 0.541085 0.438303 -0.046448
C30   C     C_R   0.818145 0.541081 0.061715 -0.046494
C31   C     C_R   0.818173 0.458946 0.561712 -0.046489
C32   C     C_R   0.818077 0.458943 0.938305 -0.046435
C33   C     C_R   0.537107 0.046640 0.445644 -0.076688
C34   C     C_R   0.537300 0.046258 0.054551 -0.076209
C35   C     C_R   0.537337 0.953754 0.554539 -0.076251
C36   C     C_R   0.537073 0.953375 0.945654 -0.076689
C37   C     C_R   0.037107 0.546640 0.445644 -0.076688
C38   C     C_R   0.037300 0.546258 0.054551 -0.076209
C39   C     C_R   0.037337 0.453754 0.554539 -0.076251
C40   C     C_R   0.037073 0.453375 0.945654 -0.076690
C41   C     C_R   0.642727 0.020675 0.469931 -0.061529
C42   C     C_R   0.642786 0.019852 0.030519 -0.061373
C43   C     C_R   0.642832 0.980140 0.530487 -0.061415
C44   C     C_R   0.642698 0.979310 0.969967 -0.061539
C45   C     C_R   0.142727 0.520675 0.469931 -0.061529
C46   C     C_R   0.142786 0.519852 0.030519 -0.061373
C47   C     C_R   0.142832 0.480140 0.530487 -0.061415
C48   C     C_R   0.142698 0.479310 0.969967 -0.061539
C49   C     C_R   0.426901 0.977620 0.529292 0.009699
C50   C     C_R   0.426795 0.977483 0.970793 0.009534
C51   C     C_R   0.426823 0.022542 0.470788 0.009537
C52   C     C_R   0.426870 0.022404 0.029296 0.009690
C53   C     C_R   0.926901 0.477620 0.529292 0.009698
C54   C     C_R   0.926795 0.477483 0.970793 0.009534
C55   C     C_R   0.926823 0.522542 0.470788 0.009537
C56   C     C_R   0.926870 0.522404 0.029296 0.009690
C57   C     C_R   0.208971 0.975724 0.527440 0.040077
C58   C     C_R   0.208894 0.975777 0.972559 0.040291
C59   C     C_R   0.208923 0.024255 0.472560 0.040270
C60   C     C_R   0.208930 0.024304 0.027446 0.040087
C61   C     C_R   0.708971 0.475724 0.527440 0.040077
C62   C     C_R   0.708894 0.475777 0.972559 0.040291
C63   C     C_R   0.708924 0.524255 0.472560 0.040269
C64   C     C_R   0.708930 0.524304 0.027446 0.040087
C65   C     C_R   0.097951 0.947939 0.549262 -0.049408
C66   C     C_R   0.097826 0.948034 0.950747 -0.049331
C67   C     C_R   0.097848 0.051989 0.450746 -0.049331
C68   C     C_R   0.097888 0.052077 0.049275 -0.049424
C69   C     C_R   0.597951 0.447939 0.549262 -0.049408
C70   C     C_R   0.597827 0.448034 0.950747 -0.049331
C71   C     C_R   0.597849 0.551989 0.450746 -0.049331
C72   C     C_R   0.597888 0.552077 0.049275 -0.049424
C73   C     C_R   0.990974 0.974321 0.525429 -0.048609
C74   C     C_R   0.990887 0.974495 0.974576 -0.048537
C75   C     C_R   0.990923 0.025517 0.474575 -0.048522
C76   C     C_R   0.990911 0.025700 0.025424 -0.048669
C77   C     C_R   0.490974 0.474321 0.525429 -0.048609
C78   C     C_R   0.490887 0.474495 0.974576 -0.048537
C79   C     C_R   0.490923 0.525517 0.474575 -0.048522
C80   C     C_R   0.490911 0.525700 0.025424 -0.048669
C81   C     C_R   0.187807 0.772625 0.636498 0.542198
C82   C     C_R   0.187777 0.772606 0.863505 0.542079
C83   C     C_R   0.187772 0.227396 0.363507 0.542075
C84   C     C_R   0.187818 0.227372 0.136499 0.542187
C85   C     C_R   0.687807 0.272626 0.636498 0.542198
C86   C     C_R   0.687777 0.272606 0.863505 0.542079
C87   C     C_R   0.687771 0.727396 0.363507 0.542075
C88   C     C_R   0.687818 0.727372 0.136499 0.542187
C89   C     C_R   0.546849 0.769228 0.647393 0.553677
C90   C     C_R   0.546841 0.769232 0.852619 0.553414
C91   C     C_R   0.546842 0.230771 0.352618 0.553432
C92   C     C_R   0.546852 0.230773 0.147391 0.553643
C93   C     C_R   0.046849 0.269228 0.647393 0.553677
C94   C     C_R   0.046841 0.269232 0.852619 0.553414
C95   C     C_R   0.046842 0.730771 0.352618 0.553431
C96   C     C_R   0.046852 0.730773 0.147391 0.553643
C97   C     C_3   0.100347 0.819610 0.456253 0.102558
C98   C     C_3   0.100714 0.819592 0.043771 0.102715
C99   C     C_3   0.100650 0.180420 0.543771 0.102759
C100  C     C_3   0.100368 0.180395 0.956244 0.102488
C101  C     C_3   0.600347 0.319610 0.456253 0.102558
C102  C     C_3   0.600714 0.319592 0.043771 0.102715
C103  C     C_3   0.600650 0.680420 0.543771 0.102759
C104  C     C_3   0.600368 0.680396 0.956244 0.102488
C105  C     C_3   0.226496 0.806595 0.488182 -0.164460
C106  C     C_3   0.226724 0.806319 0.011772 -0.164386
C107  C     C_3   0.226670 0.193668 0.511773 -0.164437
C108  C     C_3   0.226524 0.193409 0.988167 -0.164507
C109  C     C_3   0.726496 0.306595 0.488182 -0.164461
C110  C     C_3   0.726724 0.306319 0.011772 -0.164386
C111  C     C_3   0.726670 0.693668 0.511773 -0.164436
C112  C     C_3   0.726524 0.693408 0.988167 -0.164507
C113  C     C_3   0.169299 0.772104 0.555434 -0.005578
C114  C     C_3   0.169176 0.771996 0.944540 -0.005445
C115  C     C_3   0.169165 0.228008 0.444545 -0.005438
C116  C     C_3   0.169333 0.227892 0.055429 -0.005588
C117  C     C_3   0.669300 0.272104 0.555434 -0.005578
C118  C     C_3   0.669176 0.271996 0.944540 -0.005445
C119  C     C_3   0.669165 0.728008 0.444545 -0.005438
C120  C     C_3   0.669333 0.727893 0.055429 -0.005589
C121  C     C_3   0.043263 0.785684 0.524397 -0.121024
C122  C     C_3   0.043272 0.785826 0.975640 -0.120890
C123  C     C_3   0.043246 0.214211 0.475642 -0.120890
C124  C     C_3   0.043295 0.214313 0.024395 -0.121002
C125  C     C_3   0.543263 0.285685 0.524397 -0.121024
C126  C     C_3   0.543272 0.285826 0.975640 -0.120890
C127  C     C_3   0.543246 0.714211 0.475642 -0.120890
C128  C     C_3   0.543295 0.714313 0.024395 -0.121002
C129  C     C_3   0.048809 0.715459 0.488330 -0.115038
C130  C     C_3   0.048388 0.715566 0.011678 -0.114860
C131  C     C_3   0.048422 0.284465 0.511686 -0.114868
C132  C     C_3   0.048831 0.284540 0.988338 -0.115016
C133  C     C_3   0.548809 0.215459 0.488330 -0.115038
C134  C     C_3   0.548388 0.215566 0.011678 -0.114860
C135  C     C_3   0.548422 0.784465 0.511686 -0.114867
C136  C     C_3   0.548831 0.784540 0.988338 -0.115016
C137  C     C_3   0.176859 0.703600 0.516357 0.113875
C138  C     C_3   0.176294 0.703440 0.983563 0.114103
C139  C     C_3   0.176343 0.296556 0.483576 0.114096
C140  C     C_3   0.176887 0.296401 0.016360 0.113895
C141  C     C_3   0.676859 0.203600 0.516357 0.113875
C142  C     C_3   0.676294 0.203440 0.983563 0.114103
C143  C     C_3   0.676343 0.796556 0.483576 0.114096
C144  C     C_3   0.676887 0.796401 0.016360 0.113895
Cr1   Cr    Cr6+3 0.488160 0.884660 0.750000 1.012618
Cr2   Cr    Cr6+3 0.488160 0.115340 0.250000 1.012600
Cr3   Cr    Cr6+3 0.988160 0.384660 0.750000 1.012618
Cr4   Cr    Cr6+3 0.988160 0.615340 0.250000 1.012600
Cr5   Cr    Cr6+3 0.173480 0.883120 0.750000 1.027011
Cr6   Cr    Cr6+3 0.173480 0.116880 0.250000 1.026995
Cr7   Cr    Cr6+3 0.673480 0.383120 0.750000 1.027011
Cr8   Cr    Cr6+3 0.673480 0.616880 0.250000 1.026995
Cr9   Cr    Cr6+3 0.333410 0.727260 0.750000 1.119778
Cr10  Cr    Cr6+3 0.333410 0.272740 0.250000 1.119773
Cr11  Cr    Cr6+3 0.833410 0.227260 0.750000 1.119778
Cr12  Cr    Cr6+3 0.833410 0.772740 0.250000 1.119773
H1    H     H_    0.296714 0.845650 0.486055 0.117457
H2    H     H_    0.297074 0.845301 0.013809 0.117250
H3    H     H_    0.297038 0.154701 0.513833 0.117290
H4    H     H_    0.296716 0.154341 0.986002 0.117509
H5    H     H_    0.796714 0.345650 0.486055 0.117457
H6    H     H_    0.797074 0.345301 0.013809 0.117250
H7    H     H_    0.797038 0.654701 0.513833 0.117290
H8    H     H_    0.796716 0.654341 0.986002 0.117509
H9    H     H_    0.909950 0.954635 0.547763 0.131610
H10   H     H_    0.909822 0.954969 0.952153 0.131787
H11   H     H_    0.909849 0.045036 0.452161 0.131809
H12   H     H_    0.909859 0.045386 0.047718 0.131585
H13   H     H_    0.409950 0.454635 0.547763 0.131610
H14   H     H_    0.409822 0.454969 0.952153 0.131787
H15   H     H_    0.409849 0.545036 0.452161 0.131808
H16   H     H_    0.409859 0.545386 0.047718 0.131585
H17   H     H_    0.971274 0.808857 0.556592 0.130289
H18   H     H_    0.971376 0.809181 0.943489 0.130423
H19   H     H_    0.971328 0.190882 0.443489 0.130452
H20   H     H_    0.971322 0.191114 0.056594 0.130236
H21   H     H_    0.471274 0.308858 0.556592 0.130289
H22   H     H_    0.471376 0.309181 0.943489 0.130423
H23   H     H_    0.471328 0.690882 0.443489 0.130452
H24   H     H_    0.471322 0.691114 0.056594 0.130236
H25   H     H_    0.978160 0.676745 0.487174 0.096923
H26   H     H_    0.977570 0.676944 0.012997 0.096991
H27   H     H_    0.977638 0.323105 0.513001 0.096996
H28   H     H_    0.978169 0.323239 0.987188 0.096942
H29   H     H_    0.478160 0.176745 0.487174 0.096923
H30   H     H_    0.477570 0.176944 0.012997 0.096991
H31   H     H_    0.477638 0.823105 0.513001 0.096996
H32   H     H_    0.478169 0.823239 0.987188 0.096942
H33   H     H_    0.296689 0.719014 0.410003 0.135708
H34   H     H_    0.296320 0.718429 0.089864 0.135552
H35   H     H_    0.296352 0.281496 0.589864 0.135572
H36   H     H_    0.296735 0.280990 0.910008 0.135705
H37   H     H_    0.796689 0.219013 0.410003 0.135708
H38   H     H_    0.796320 0.218429 0.089864 0.135552
H39   H     H_    0.796352 0.781497 0.589864 0.135572
H40   H     H_    0.796735 0.780990 0.910008 0.135705
H41   H     H_    0.723841 0.036088 0.443789 0.142132
H42   H     H_    0.724039 0.035055 0.056676 0.142132
H43   H     H_    0.724086 0.964947 0.556641 0.142161
H44   H     H_    0.723817 0.963896 0.943836 0.142147
H45   H     H_    0.223841 0.536088 0.443789 0.142132
H46   H     H_    0.224039 0.535055 0.056676 0.142132
H47   H     H_    0.224086 0.464947 0.556641 0.142161
H48   H     H_    0.223817 0.463896 0.943836 0.142147
H49   H     H_    0.544771 0.087789 0.409840 0.174387
H50   H     H_    0.545220 0.087476 0.090278 0.174471
H51   H     H_    0.545250 0.912540 0.590270 0.174459
H52   H     H_    0.544720 0.912239 0.909842 0.174391
H53   H     H_    0.044771 0.587789 0.409840 0.174387
H54   H     H_    0.045220 0.587476 0.090278 0.174471
H55   H     H_    0.045250 0.412540 0.590270 0.174459
H56   H     H_    0.044720 0.412239 0.909842 0.174391
H57   H     H_    0.091631 0.093983 0.414388 0.148120
H58   H     H_    0.091738 0.094080 0.085617 0.148131
H59   H     H_    0.091826 0.905919 0.585581 0.148110
H60   H     H_    0.091632 0.906035 0.914396 0.148093
H61   H     H_    0.591631 0.593983 0.414388 0.148120
H62   H     H_    0.591738 0.594080 0.085617 0.148131
H63   H     H_    0.591826 0.405919 0.585581 0.148110
H64   H     H_    0.591632 0.406035 0.914396 0.148093
O1    O     O_R   0.575450 0.828820 0.667950 -0.562674
O2    O     O_R   0.575450 0.828820 0.832050 -0.562594
O3    O     O_R   0.575450 0.171180 0.332050 -0.562620
O4    O     O_R   0.575450 0.171180 0.167950 -0.562694
O5    O     O_R   0.075450 0.328820 0.667950 -0.562673
O6    O     O_R   0.075450 0.328820 0.832050 -0.562594
O7    O     O_R   0.075450 0.671180 0.332050 -0.562620
O8    O     O_R   0.075450 0.671180 0.167950 -0.562694
O9    O     O_R   0.416860 0.942890 0.674680 -0.482380
O10   O     O_R   0.416860 0.942890 0.825320 -0.482215
O11   O     O_R   0.416860 0.057110 0.325320 -0.482205
O12   O     O_R   0.416860 0.057110 0.174680 -0.482376
O13   O     O_R   0.916860 0.442890 0.674680 -0.482380
O14   O     O_R   0.916860 0.442890 0.825320 -0.482215
O15   O     O_R   0.916860 0.557110 0.325320 -0.482205
O16   O     O_R   0.916860 0.557110 0.174680 -0.482376
O17   O     O_R   0.213790 0.953680 0.668330 -0.474648
O18   O     O_R   0.213790 0.953680 0.831670 -0.474742
O19   O     O_R   0.213790 0.046320 0.331670 -0.474734
O20   O     O_R   0.213790 0.046320 0.168330 -0.474648
O21   O     O_R   0.713790 0.453680 0.668330 -0.474648
O22   O     O_R   0.713790 0.453680 0.831670 -0.474742
O23   O     O_R   0.713790 0.546320 0.331670 -0.474734
O24   O     O_R   0.713790 0.546320 0.168330 -0.474648
O25   O     O_R   0.121360 0.817890 0.672660 -0.536212
O26   O     O_R   0.121360 0.817890 0.827340 -0.536174
O27   O     O_R   0.121360 0.182110 0.327340 -0.536183
O28   O     O_R   0.121360 0.182110 0.172660 -0.536233
O29   O     O_R   0.621360 0.317890 0.672660 -0.536212
O30   O     O_R   0.621360 0.317890 0.827340 -0.536174
O31   O     O_R   0.621360 0.682110 0.327340 -0.536183
O32   O     O_R   0.621360 0.682110 0.172660 -0.536233
O33   O     O_R   0.206850 0.711370 0.665820 -0.432942
O34   O     O_R   0.206850 0.711370 0.834180 -0.432931
O35   O     O_R   0.206850 0.288630 0.334180 -0.432939
O36   O     O_R   0.206850 0.288630 0.165820 -0.432934
O37   O     O_R   0.706850 0.211370 0.665820 -0.432942
O38   O     O_R   0.706850 0.211370 0.834180 -0.432931
O39   O     O_R   0.706850 0.788630 0.334180 -0.432939
O40   O     O_R   0.706850 0.788630 0.165820 -0.432934
O41   O     O_R   0.457710 0.733190 0.672630 -0.466291
O42   O     O_R   0.457710 0.733190 0.827370 -0.466448
O43   O     O_R   0.457710 0.266810 0.327370 -0.466425
O44   O     O_R   0.457710 0.266810 0.172630 -0.466295
O45   O     O_R   0.957710 0.233190 0.672630 -0.466291
O46   O     O_R   0.957710 0.233190 0.827370 -0.466448
O47   O     O_R   0.957710 0.766810 0.327370 -0.466425
O48   O     O_R   0.957710 0.766810 0.172630 -0.466295
O49   O     O_3   0.331690 0.831680 0.750000 -0.375983
O50   O     O_3   0.331690 0.168320 0.250000 -0.376002
O51   O     O_3   0.831690 0.331680 0.750000 -0.375983
O52   O     O_3   0.831690 0.668320 0.250000 -0.376002
I1    I     I_    0.094114 0.895145 0.371427 -0.242346
I2    I     I_    0.095022 0.895122 0.128603 -0.242238
I3    I     I_    0.094996 0.104891 0.628612 -0.242248
I4    I     I_    0.094058 0.104855 0.871424 -0.242368
I5    I     I_    0.594114 0.395145 0.371427 -0.242345
I6    I     I_    0.595022 0.395122 0.128603 -0.242238
I7    I     I_    0.594996 0.604891 0.628612 -0.242248
I8    I     I_    0.594058 0.604854 0.871424 -0.242368
I9    I     I_    0.289820 0.625188 0.556997 -0.395479
I10   I     I_    0.288175 0.624577 0.942852 -0.394813
I11   I     I_    0.288411 0.375369 0.442896 -0.394894
I12   I     I_    0.289729 0.374837 0.057046 -0.395374
I13   I     I_    0.789820 0.125188 0.556997 -0.395479
I14   I     I_    0.788176 0.124577 0.942852 -0.394813
I15   I     I_    0.788410 0.875369 0.442895 -0.394893
I16   I     I_    0.789729 0.874837 0.057046 -0.395374

loop_
_geom_bond_atom_site_label_1
_geom_bond_atom_site_label_2
_ccdc_geom_bond_type
C6    C32   S    
Cr1   O10   S    
C7    C29   S    
C119  C143  S    
Cr4   O52   S    
C120  C144  S    
C104  I8    S    
C36   C50   A    
C4    O12   A    
C92   O4    A    
C16   C144  S    
Cr8   O24   S    
C57   C59   A    
Cr1   O1    S    
C8    O24   A    
C58   C60   A    
C81   O33   A    
C62   C70   A    
C141  I13   S    
C61   C63   A    
C62   C64   A    
Cr10  O43   S    
C121  H17   S    
C49   C51   A    
C34   C42   A    
C84   O36   A    
C50   C52   A    
C23   C89   S    
C128  H24   S    
C88   O32   A    
C97   C105  S    
C14   H38   S    
C73   C75   A    
C110  C118  S    
C42   C44   A    
C20   C132  S    
C9    H33   S    
C21   C133  S    
C116  C140  S    
Cr3   O6    S    
Cr10  O35   S    
C45   C47   A    
C112  H8    S    
C46   C48   A    
C115  C123  S    
C42   H42   S    
C27   C57   A    
C87   O39   A    
C112  C120  S    
Cr11  O38   S    
C19   C99   S    
C29   C55   A    
C30   C56   A    
C100  C124  S    
C15   C111  S    
Cr11  O51   S    
C104  C128  S    
C12   C20   S    
C13   C21   S    
C85   C117  S    
C92   O44   A    
C73   H9    S    
C115  C139  S    
C113  C137  S    
C36   C44   A    
C33   C51   A    
C80   H16   S    
C37   C45   A    
C130  C138  S    
C91   O43   A    
C39   C47   A    
C40   C48   A    
C20   C94   S    
C133  C141  S    
C24   C90   S    
C28   C58   A    
C72   H62   S    
C98   C106  S    
C33   C41   A    
C111  H7    S    
C10   C18   S    
C76   H12   S    
C95   O7    A    
C2    C28   S    
C32   C62   A    
C93   O5    A    
C129  C137  S    
C126  C134  S    
Cr6   O19   S    
C83   O27   A    
C10   C138  S    
C85   O37   A    
Cr10  O50   S    
C101  C109  S    
C57   C65   A    
C96   O48   A    
C14   C142  S    
C85   O29   A    
Cr5   O26   S    
C134  H30   S    
C69   C77   A    
Cr4   O8    S    
Cr6   O50   S    
C71   C79   A    
C110  H6    S    
Cr6   O28   S    
C33   H49   S    
C74   C76   A    
C96   O8    A    
C105  C113  S    
C65   H59   S    
C89   O1    A    
C78   C80   A    
C9    C105  S    
C66   C74   A    
C78   H14   S    
C124  C132  S    
C111  C119  S    
C36   H52   S    
C97   C121  S    
C98   I2    S    
C59   C67   A    
C35   C49   A    
C101  C125  S    
C126  H22   S    
C35   C43   A    
C133  H29   S    
C24   C136  S    
C135  C143  S    
C6    O14   A    
C84   C116  S    
C136  H32   S    
C131  H27   S    
C140  I12   S    
C135  H31   S    
Cr7   O30   S    
Cr2   O11   S    
C23   C103  S    
C100  C108  S    
C82   O26   A    
C83   C115  S    
C103  C127  S    
C41   H41   S    
C3    O11   A    
C104  C112  S    
C94   O6    A    
C1    O17   A    
C122  H18   S    
C87   C119  S    
Cr7   O21   S    
Cr2   O4    S    
C95   O47   A    
Cr12  O48   S    
C37   H53   S    
C38   H54   S    
C15   C143  S    
C44   H44   S    
C40   C54   A    
C10   C106  S    
C67   C75   A    
Cr8   O32   S    
C14   C110  S    
C77   H13   S    
Cr1   O9    S    
C102  C126  S    
C123  H19   S    
C124  H20   S    
C68   C76   A    
C38   C56   A    
C48   H48   S    
C84   O28   A    
Cr4   O15   S    
C127  H23   S    
C14   C22   S    
Cr9   O33   S    
C72   C80   A    
C125  H21   S    
C11   H35   S    
C114  C138  S    
C66   H60   S    
C90   O42   A    
C38   C46   A    
Cr10  O44   S    
C2    O10   A    
C37   C55   A    
Cr3   O14   S    
C113  C121  S    
C22   C92   S    
C6    O22   A    
C25   C59   A    
C17   C97   S    
C27   C49   A    
C119  C127  S    
C29   C63   A    
C143  I15   S    
C30   C64   A    
C144  I16   S    
C41   C43   A    
C31   C61   A    
Cr3   O5    S    
C109  C117  S    
Cr10  O36   S    
C11   C19   S    
C100  I4    S    
C101  I5    S    
C127  C135  S    
C128  C136  S    
Cr11  O37   S    
C93   O45   A    
C61   C69   A    
C103  C111  S    
C79   H15   S    
C11   C139  S    
C86   O38   A    
Cr3   O51   S    
C9    C137  S    
C105  H1    S    
C12   C140  S    
C17   C95   S    
C13   C141  S    
C88   C120  S    
C68   H58   S    
C19   C93   S    
Cr12  O39   S    
C15   H39   S    
C77   C79   A    
C137  I9    S    
C13   H37   S    
C12   H36   S    
C32   C54   A    
C7    O15   A    
C3    C25   S    
Cr8   O23   S    
C99   I3    S    
Cr1   O2    S    
C83   O35   A    
C117  C141  S    
C16   H40   S    
C134  C142  S    
C107  H3    S    
C20   C100  S    
Cr2   O50   S    
C138  I10   S    
Cr5   O18   S    
C4    O20   A    
C47   H47   S    
C86   C118  S    
C8    O16   A    
C35   H51   S    
C22   C134  S    
Cr6   O20   S    
C102  C110  S    
C91   O3    A    
C74   H10   S    
C16   C112  S    
C12   C108  S    
C21   C91   S    
Cr5   O25   S    
C116  C124  S    
C123  C131  S    
C69   H63   S    
C121  C129  S    
C4    C26   S    
C120  C128  S    
Cr12  O52   S    
C132  C140  S    
C99   C107  S    
C40   H56   S    
C34   C52   A    
C71   H61   S    
C23   C135  S    
C8    C30   S    
C108  C116  S    
Cr5   O49   S    
C136  C144  S    
C132  H28   S    
C24   C104  S    
C39   C53   A    
Cr11  O46   S    
C88   O40   A    
C46   H46   S    
C60   C68   A    
C81   C113  S    
Cr5   O17   S    
C82   O34   A    
C3    O19   A    
C86   O30   A    
Cr9   O34   S    
C70   C78   A    
C18   C96   S    
C103  I7    S    
Cr7   O29   S    
Cr2   O12   S    
C34   H50   S    
C10   H34   S    
C106  C114  S    
C90   O2    A    
C65   C73   A    
Cr1   O49   S    
C5    C31   S    
C28   C50   A    
C58   C66   A    
C13   C109  S    
C21   C101  S    
C15   C23   S    
C16   C24   S    
C5    O13   A    
Cr4   O7    S    
C102  I6    S    
C53   C55   A    
C19   C131  S    
Cr6   O27   S    
C94   O46   A    
C54   C56   A    
C17   C129  S    
C81   O25   A    
C131  C139  S    
C82   C114  S    
C130  H26   S    
C2    O18   A    
C106  H2    S    
C70   H64   S    
Cr4   O16   S    
C25   C51   A    
C26   C52   A    
C39   H55   S    
Cr11  O45   S    
C31   C53   A    
Cr9   O42   S    
C107  C115  S    
C142  I14   S    
C98   C122  S    
Cr3   O13   S    
C9    C17   S    
C11   C107  S    
C67   H57   S    
Cr9   O41   S    
C99   C123  S    
C125  C133  S    
C129  H25   S    
Cr9   O49   S    
C63   C71   A    
C118  C142  S    
C43   H43   S    
C108  H4    S    
C118  C126  S    
C22   C102  S    
C139  I11   S    
C87   O31   A    
C109  H5    S    
Cr7   O22   S    
Cr2   O3    S    
Cr7   O51   S    
Cr12  O47   S    
C26   C60   A    
Cr8   O52   S    
C64   C72   A    
C18   C130  S    
C114  C122  S    
C1    O9    A    
C89   O41   A    
C45   H45   S    
C7    O23   A    
C1    C27   S    
C75   H11   S    
C18   C98   S    
C5    O21   A    
C117  C125  S    
C97   I1    S    
C122  C130  S    
Cr8   O31   S    
Cr12  O40   S    
