data_mof_unit_57777.cif
_audit_creation_date              2012-12-10T18:39:53-0500
_audit_creation_method            fapswitch 2.2
_symmetry_space_group_name_H-M    P1
_symmetry_Int_Tables_number       1
_space_group_crystal_system       triclinic
_cell_length_a                    15.266685
_cell_length_b                    13.999029
_cell_length_c                    23.546034
_cell_angle_alpha                 90.506615
_cell_angle_beta                  89.344861
_cell_angle_gamma                 89.97583
_cell_volume                      5031.70297788

loop_
_atom_site_label
_atom_site_type_symbol
_atom_type_description
_atom_site_fract_x
_atom_site_fract_y
_atom_site_fract_z
_atom_type_partial_charge
C1    C     C_R   0.329348 0.500193 0.502684 0.988515
C2    C     C_R   0.670592 0.500197 0.497499 0.988094
C3    C     C_R   0.554409 0.427144 0.240627 0.433263
C4    C     C_R   0.438043 0.430915 0.757933 0.431913
C5    C     C_R   0.553182 0.434581 0.299594 -0.250468
C6    C     C_R   0.441669 0.438167 0.699035 -0.259538
C7    C     C_R   0.497049 0.498770 0.327855 -0.219395
C8    C     C_R   0.500647 0.500262 0.672204 -0.212340
C9    C     C_R   0.443742 0.560479 0.295274 0.301657
C10   C     C_R   0.554947 0.559471 0.706263 0.308084
C11   C     C_R   0.458465 0.565973 0.235827 0.337069
C12   C     C_R   0.537850 0.565989 0.765470 0.333902
C13   C     C_R   0.508245 0.493702 0.208240 0.063699
C14   C     C_R   0.485127 0.495628 0.791645 0.069061
C15   C     C_R   0.096330 0.559646 0.462629 0.357617
C16   C     C_R   0.904380 0.419700 0.460874 0.368140
C17   C     C_R   0.911918 0.568258 0.515043 0.348064
C18   C     C_R   0.091753 0.413917 0.518393 0.320743
C19   C     C_R   0.182670 0.576621 0.479326 0.256426
C20   C     C_R   0.812754 0.418579 0.466698 0.272505
C21   C     C_R   0.820528 0.579665 0.512401 0.259115
C22   C     C_R   0.183722 0.416811 0.523472 0.257077
C23   C     C_R   0.231139 0.499432 0.503673 -0.386864
C24   C     C_R   0.768484 0.500047 0.492206 -0.411545
C25   C     C_R   0.049216 0.485532 0.487652 -0.116059
C26   C     C_R   0.953010 0.491143 0.487311 -0.143302
C27   C     C_R   0.497355 0.499738 0.390904 0.969086
C28   C     C_R   0.502574 0.500350 0.609128 0.973018
C29   C     C_R   0.534133 0.104617 0.544195 -0.265799
C30   C     C_R   0.536227 0.894378 0.455457 -0.279158
C31   C     C_R   0.464642 0.103891 0.455520 -0.262937
C32   C     C_R   0.461754 0.895666 0.543885 -0.282128
C33   C     C_R   0.539385 0.205456 0.543439 0.580776
C34   C     C_R   0.541284 0.793685 0.456454 0.525432
C35   C     C_R   0.460201 0.204766 0.456480 0.577088
C36   C     C_R   0.458599 0.794864 0.543512 0.522989
C37   C     C_R   0.499116 0.053107 0.499801 0.003819
C38   C     C_R   0.498729 0.946153 0.499607 0.048877
C39   C     C_R   0.564347 0.463046 0.877734 0.606556
C40   C     C_R   0.427749 0.465040 0.121786 0.612072
C41   C     C_R   0.410432 0.490849 0.883659 0.730897
C42   C     C_R   0.582293 0.488103 0.116053 0.718523
C43   C     C_R   0.410554 0.474808 0.943016 -0.186596
C44   C     C_R   0.581726 0.472215 0.056543 -0.167892
C45   C     C_R   0.493166 0.468604 0.969858 -0.054833
C46   C     C_R   0.498978 0.468541 0.029672 -0.047160
C47   C     C_R   0.570263 0.462914 0.936927 -0.055253
C48   C     C_R   0.421778 0.465266 0.062575 -0.073478
C49   C     C_R   0.333004 0.466736 0.976930 0.405188
C50   C     C_R   0.659038 0.461773 0.022538 0.316439
C51   C     C_R   0.340199 0.461775 0.036048 -0.168933
C52   C     C_R   0.651721 0.456933 0.963395 -0.179873
Cu1   Cu    Cu3+1 0.500000 0.596430 0.500000 1.191173
Cu2   Cu    Cu3+1 0.500000 0.403570 0.500000 1.169924
H1    H     H_    0.281195 0.457096 0.061796 0.236201
H2    H     H_    0.710609 0.450469 0.937607 0.232546
H3    H     H_    0.594022 0.386750 0.323221 0.250157
H4    H     H_    0.400879 0.391226 0.674322 0.247212
H5    H     H_    0.560191 0.064349 0.579232 0.210862
H6    H     H_    0.564902 0.934002 0.420582 0.194497
H7    H     H_    0.438424 0.062992 0.420380 0.213271
H8    H     H_    0.433292 0.936365 0.578817 0.200317
N1    N     N_R   0.486384 0.483159 0.852410 -0.438351
N2    N     N_R   0.506249 0.482456 0.147283 -0.437200
N3    N     N_R   0.500000 0.258690 0.500000 -0.283693
N4    N     N_R   0.500000 0.741310 0.500000 -0.271956
O1    O     O_R   0.371460 0.581430 0.500000 -0.509807
O2    O     O_R   0.628540 0.418570 0.500000 -0.497407
O3    O     O_R   0.628540 0.581430 0.500000 -0.514251
O4    O     O_R   0.371460 0.418570 0.500000 -0.504287
O5    O     O_R   0.499970 0.581450 0.417880 -0.521152
O6    O     O_R   0.500030 0.418550 0.582120 -0.536964
O7    O     O_R   0.500030 0.581450 0.582120 -0.521533
O8    O     O_R   0.499970 0.418550 0.417880 -0.533794
O9    O     O_2   0.636260 0.444720 0.845542 -0.493999
O10   O     O_2   0.355459 0.448827 0.153823 -0.497662
O11   O     O_2   0.336695 0.517747 0.857389 -0.389010
O12   O     O_2   0.656688 0.512727 0.142570 -0.382109
S1    S     S_3+6 0.226120 0.454456 0.948531 0.083596
O13   O     O_2   0.227607 0.382681 0.900637 -0.237509
O14   O     O_2   0.162524 0.421264 0.993417 -0.241242
O15   O     O_3   0.192507 0.560892 0.924346 -0.446689
H9    H     H_    0.135505 0.547842 0.906165 0.394847
S2    S     S_3+6 0.765713 0.446564 0.050722 0.099732
O16   O     O_2   0.762733 0.374669 0.097747 -0.188590
O17   O     O_2   0.828820 0.411564 0.005661 -0.241875
O18   O     O_3   0.802238 0.551419 0.076546 -0.414782
H10   H     H_    0.798601 0.596160 0.044299 0.352702
S3    S     S_3+6 0.597008 0.249808 0.604140 0.058283
O19   O     O_2   0.531340 0.268014 0.650850 -0.329238
O20   O     O_2   0.658656 0.173636 0.624256 -0.288852
O21   O     O_3   0.657943 0.347770 0.594360 -0.485030
H11   H     H_    0.694767 0.352735 0.628627 0.371440
S4    S     S_3+6 0.604359 0.748507 0.397061 0.090561
O22   O     O_2   0.673326 0.820782 0.381530 -0.255439
O23   O     O_2   0.650845 0.655852 0.405974 -0.235413
O24   O     O_3   0.539217 0.736436 0.340640 -0.481840
H12   H     H_    0.527027 0.802522 0.328263 0.376395
S5    S     S_3+6 0.403297 0.248159 0.395743 0.057612
O25   O     O_2   0.469490 0.265264 0.349425 -0.328745
O26   O     O_2   0.341853 0.171702 0.374994 -0.282087
O27   O     O_3   0.342324 0.346413 0.405599 -0.500706
H13   H     H_    0.301010 0.346594 0.373478 0.357990
S6    S     S_3+6 0.402105 0.750754 0.605227 0.089581
O28   O     O_2   0.334027 0.822435 0.624065 -0.257161
O29   O     O_2   0.355973 0.657158 0.597985 -0.229924
O30   O     O_3   0.473907 0.740873 0.658172 -0.482179
H14   H     H_    0.489247 0.807457 0.668589 0.374401
O31   O     O_3   0.606411 0.358718 0.214364 -0.524829
C53   C     C_3   0.556383 0.275012 0.206494 0.062826
H15   H     H_    0.491707 0.290275 0.186936 0.153505
H16   H     H_    0.545773 0.238789 0.247839 0.206582
C54   C     C_3   0.606131 0.207374 0.166872 -0.648794
H17   H     H_    0.670756 0.189477 0.185173 0.272825
H18   H     H_    0.568063 0.140534 0.160904 0.209778
H19   H     H_    0.616363 0.241478 0.124897 0.254084
O32   O     O_3   0.383497 0.364229 0.782835 -0.529942
C55   C     C_3   0.430121 0.277888 0.788644 0.063509
H20   H     H_    0.495759 0.289348 0.807935 0.156698
H21   H     H_    0.438370 0.242273 0.746517 0.206679
C56   C     C_3   0.378343 0.211814 0.827379 -0.648825
H22   H     H_    0.312677 0.197711 0.809300 0.271465
H23   H     H_    0.413686 0.142967 0.831724 0.211368
H24   H     H_    0.370333 0.245290 0.870083 0.254605
S7    S     S_3+6 0.347759 0.613034 0.325516 0.078249
O33   O     O_2   0.365715 0.713431 0.344855 -0.161987
O34   O     O_2   0.275795 0.615395 0.282501 -0.259740
O35   O     O_3   0.312994 0.548768 0.381097 -0.576358
H25   H     H_    0.262776 0.511085 0.366997 0.320826
S8    S     S_3+6 0.656070 0.603920 0.679300 0.103031
O36   O     O_2   0.648608 0.708136 0.665846 -0.156931
O37   O     O_2   0.725834 0.591598 0.723185 -0.235274
O38   O     O_3   0.686796 0.543085 0.620716 -0.565852
H26   H     H_    0.750814 0.533656 0.624096 0.345170
S9    S     S_3+6 0.422380 0.666160 0.196022 0.109344
O39   O     O_2   0.332822 0.647134 0.172625 -0.202665
O40   O     O_2   0.418957 0.754267 0.232859 -0.204630
O41   O     O_3   0.492332 0.686085 0.141697 -0.528476
H27   H     H_    0.462291 0.732987 0.117407 0.379913
S10   S     S_3+6 0.575976 0.664657 0.806794 0.107547
O42   O     O_2   0.665402 0.643460 0.829560 -0.207203
O43   O     O_2   0.580483 0.753210 0.771338 -0.205441
O44   O     O_3   0.506843 0.685309 0.861686 -0.525755
H28   H     H_    0.537901 0.731183 0.886586 0.378939
O45   O     O_3   0.052093 0.622266 0.427795 -0.494690
C57   C     C_3   0.088867 0.618007 0.372392 0.101868
H29   H     H_    0.100878 0.543236 0.357745 0.092735
H30   H     H_    0.151878 0.657482 0.370553 0.245899
C58   C     C_3   0.026133 0.664512 0.331278 -0.603278
H31   H     H_    0.015002 0.740312 0.343697 0.277218
H32   H     H_    0.054316 0.661780 0.287605 0.228713
H33   H     H_    0.962465 0.626150 0.331701 0.235619
O46   O     O_3   0.948351 0.346476 0.432800 -0.470447
C59   C     C_3   0.971779 0.375868 0.377220 0.135510
H34   H     H_    0.975288 0.454751 0.372020 0.110069
H35   H     H_    0.922547 0.348991 0.346655 0.209865
C60   C     C_3   0.060646 0.333623 0.361223 -0.692761
H36   H     H_    0.058080 0.254473 0.363521 0.289278
H37   H     H_    0.078880 0.354557 0.317276 0.208324
H38   H     H_    0.111464 0.360497 0.390714 0.224182
O47   O     O_3   0.963290 0.638026 0.540368 -0.463187
C61   C     C_3   0.980673 0.611306 0.596956 0.079420
H39   H     H_    0.027178 0.550532 0.597553 0.092639
H40   H     H_    0.919477 0.591954 0.620487 0.146497
C62   C     C_3   0.024212 0.693743 0.628345 -0.534921
H41   H     H_    0.978657 0.755033 0.633138 0.267979
H42   H     H_    0.043684 0.670247 0.671317 0.193866
H43   H     H_    0.083509 0.717248 0.604797 0.280706
O48   O     O_3   0.045198 0.333940 0.535814 -0.463174
C63   C     C_3   0.000680 0.352960 0.587771 0.097919
H44   H     H_    0.949518 0.408295 0.583172 0.084606
H45   H     H_    0.046949 0.376221 0.621367 0.136882
C64   C     C_3   0.953813 0.262817 0.607122 -0.591659
H46   H     H_    0.001450 0.204026 0.613268 0.272978
H47   H     H_    0.918766 0.276919 0.647930 0.192807
H48   H     H_    0.905359 0.240405 0.574770 0.272005
S11   S     S_3+6 0.214419 0.699980 0.482986 0.088635
O49   O     O_2   0.224625 0.726391 0.544241 -0.233328
O50   O     O_2   0.298369 0.719410 0.451525 -0.213838
O51   O     O_3   0.137419 0.773235 0.457068 -0.455747
H49   H     H_    0.159591 0.838640 0.464329 0.387297
S12   S     S_3+6 0.757378 0.313986 0.440664 0.054445
O52   O     O_2   0.722859 0.258617 0.490434 -0.241095
O53   O     O_2   0.682619 0.343170 0.403883 -0.326140
O54   O     O_3   0.821659 0.239569 0.402280 -0.473228
H50   H     H_    0.782925 0.185987 0.391103 0.382749
S13   S     S_3+6 0.781446 0.699930 0.526165 0.115912
O55   O     O_2   0.775853 0.748669 0.469888 -0.196414
O56   O     O_2   0.694307 0.706543 0.555765 -0.210612
O57   O     O_3   0.850710 0.764305 0.566056 -0.469833
H51   H     H_    0.829367 0.830995 0.563884 0.385010
S14   S     S_3+6 0.236067 0.317952 0.557116 0.075648
O58   O     O_2   0.276259 0.254499 0.512166 -0.191965
O59   O     O_2   0.306983 0.353712 0.595408 -0.347190
O60   O     O_3   0.167615 0.250200 0.596045 -0.468093
H52   H     H_    0.175687 0.271261 0.635918 0.355107

loop_
_geom_bond_atom_site_label_1
_geom_bond_atom_site_label_2
_ccdc_geom_bond_type
S9    O41   S    
O18   H10   S    
O57   H51   S    
O32   C55   S    
O48   C63   S    
C31   H7    S    
C19   C23   A    
S10   O44   S    
Cu1   O3    S    
O35   H25   S    
C34   N4    A    
C55   H21   S    
S6    O29   D    
O24   H12   S    
C50   S2    S    
S9    O39   D    
Cu2   N3    S    
C64   H46   S    
C15   C19   A    
C62   H41   S    
C17   C26   A    
C32   C36   A    
C39   C47   A    
S2    O17   D    
C54   H17   S    
C33   S3    S    
C58   H32   S    
C57   H30   S    
C41   O11   S    
C36   N4    A    
C64   H48   S    
Cu2   O2    S    
C63   H44   S    
C35   N3    A    
O44   H28   S    
C61   C62   S    
C29   C33   A    
C7    C27   S    
C30   C38   A    
C7    C9    A    
C6    H4    S    
C55   H20   S    
C56   H24   S    
Cu2   O8    S    
C2    O2    A    
C48   C51   A    
C29   H5    S    
C49   C51   A    
C30   H6    S    
S7    O35   S    
C50   C52   A    
O30   H14   S    
S2    O18   S    
C32   C38   A    
S3    O20   D    
C2    O3    A    
C19   S11   S    
C59   H35   S    
C3    C13   A    
C54   H19   S    
C45   C47   A    
C62   H42   S    
S9    O40   D    
C60   H36   S    
C41   C43   A    
C28   O6    A    
C18   C25   A    
C42   C44   A    
C35   S5    S    
C28   O7    A    
C10   C12   A    
S6    O28   D    
C44   C46   A    
C21   S13   S    
C61   H40   S    
C64   H47   S    
C16   C26   A    
C46   C48   A    
S13   O56   D    
C30   C34   A    
C33   N3    A    
S13   O57   S    
S14   O60   S    
C20   C24   A    
S2    O16   D    
C59   C60   S    
C4    C6    A    
C58   H33   S    
C15   O45   S    
C43   C49   A    
C6    C8    A    
O60   H52   S    
S4    O24   S    
S11   O50   D    
C25   C26   S    
Cu1   Cu2   S    
C9    S7    S    
C53   H15   S    
C27   O5    A    
C31   C37   A    
C55   C56   S    
S14   O59   D    
S8    O37   D    
C17   C21   A    
C10   S8    S    
C37   C38   S    
C11   S9    S    
C57   C58   S    
C5    C7    A    
S5    O25   D    
Cu2   O4    S    
C16   C20   A    
S11   O51   S    
C12   S10   S    
C56   H22   S    
S4    O22   D    
S10   O42   D    
S3    O21   S    
S4    O23   D    
Cu1   N4    S    
C9    C11   A    
C53   C54   S    
C59   H34   S    
C57   H29   S    
C17   O47   S    
S11   O49   D    
C8    C10   A    
S5    O26   D    
C12   C14   A    
C42   O12   S    
C62   H43   S    
C39   O9    S    
C2    C24   S    
S7    O33   D    
C8    C28   S    
C31   C35   A    
C4    O32   S    
C45   C46   A    
S8    O38   S    
C41   N1    A    
C22   S14   S    
C27   O8    A    
C42   N2    A    
O45   C57   S    
C49   S1    S    
O51   H49   S    
C52   H2    S    
C20   S12   S    
C61   H39   S    
C18   O48   S    
C44   C50   A    
C40   C48   A    
S12   O53   D    
C18   C22   A    
Cu1   O7    S    
C34   S4    S    
S10   O43   D    
C3    C5    A    
S1    O15   S    
C1    C23   S    
C47   C52   A    
C60   H38   S    
C39   N1    A    
S1    O14   D    
C1    O4    A    
C40   N2    A    
C5    H3    S    
C36   S6    S    
S14   O58   D    
S8    O36   D    
O46   C59   S    
C32   H8    S    
S13   O55   D    
C43   C45   A    
O47   C61   S    
C58   H31   S    
C11   C13   A    
O54   H50   S    
O38   H26   S    
C13   N2    S    
C63   H45   S    
C3    O31   S    
C14   N1    S    
O21   H11   S    
C1    O1    A    
C51   H1    S    
C4    C14   A    
O27   H13   S    
Cu1   O1    S    
C53   H16   S    
C56   H23   S    
C15   C25   A    
O41   H27   S    
S1    O13   D    
C40   O10   S    
S5    O27   S    
Cu2   O6    S    
C60   H37   S    
O15   H9    S    
C21   C24   A    
C29   C37   A    
C16   O46   S    
S7    O34   D    
C22   C23   A    
S3    O19   D    
O31   C53   S    
S12   O54   S    
S6    O30   S    
S12   O52   D    
C54   H18   S    
C63   C64   S    
Cu1   O5    S    
