data_mof_unit_60815.cif
_audit_creation_date              2012-12-10T18:42:48-0500
_audit_creation_method            fapswitch 2.2
_symmetry_space_group_name_H-M    P1
_symmetry_Int_Tables_number       1
_space_group_crystal_system       triclinic
_cell_length_a                    45.042596
_cell_length_b                    31.845146
_cell_length_c                    31.84328
_cell_angle_alpha                 89.999906
_cell_angle_beta                  135.018846
_cell_angle_gamma                 89.999945
_cell_volume                      32286.915551

loop_
_atom_site_label
_atom_site_type_symbol
_atom_type_description
_atom_site_fract_x
_atom_site_fract_y
_atom_site_fract_z
_atom_type_partial_charge
C1    C     C_R   0.581408 0.000000 0.581409 0.908296
C2    C     C_3   0.999986 0.208850 0.500230 0.183842
C3    C     C_R   0.581381 0.500000 0.081466 0.909564
C4    C     C_3   0.019358 0.034772 0.783381 -0.159204
C5    C     C_3   0.020371 0.965813 0.784395 -0.159069
C6    C     C_3   0.520445 0.534143 0.784468 -0.159074
C7    C     C_3   0.519283 0.465186 0.783306 -0.159197
C8    C     C_3   0.480627 0.534814 0.716733 -0.161725
C9    C     C_3   0.479465 0.465857 0.715571 -0.161793
C10   C     C_3   0.979538 0.034187 0.715644 -0.161780
C11   C     C_3   0.980552 0.965228 0.716659 -0.161736
C12   C     C_1   0.499958 0.500000 0.625960 -0.180418
C13   C     C_3   0.465581 0.236111 0.445588 -0.172593
C14   C     C_1   0.999958 0.000000 0.625960 -0.180418
C15   C     C_1   0.999941 0.000000 0.874068 -0.179088
C16   C     C_1   0.499941 0.500000 0.874068 -0.179089
C17   C     C_3   0.539775 0.499329 0.775917 -0.159294
C18   C     C_3   0.039776 0.000585 0.775918 -0.159299
C19   C     C_3   0.499957 0.500000 0.708977 0.199644
C20   C     C_3   0.999957 0.000000 0.708977 0.199644
C21   C     C_3   0.999952 0.000000 0.791061 0.200081
C22   C     C_3   0.499952 0.500000 0.791061 0.200081
C23   C     C_3   0.534668 0.236112 0.515175 -0.176316
C24   C     C_3   0.465902 0.763889 0.445367 -0.172534
C25   C     C_3   0.534972 0.763888 0.516031 -0.176329
C26   C     C_3   0.034699 0.736112 0.515262 -0.176321
C27   C     C_3   0.035026 0.263888 0.516184 -0.176337
C28   C     C_3   0.960133 0.999415 0.724121 -0.162977
C29   C     C_3   0.460134 0.500671 0.724122 -0.162980
C30   C     C_1   0.499956 0.500000 0.663498 -0.072315
C31   C     C_1   0.999956 0.000000 0.663498 -0.072315
C32   C     C_1   0.999946 0.000000 0.836533 -0.070756
C33   C     C_1   0.499946 0.500000 0.836533 -0.070756
C34   C     C_3   0.019873 0.965186 0.255750 -0.196999
C35   C     C_3   0.965614 0.736111 0.445565 -0.172585
C36   C     C_3   0.020546 0.034419 0.256424 -0.196964
C37   C     C_3   0.519870 0.465184 0.255747 -0.196998
C38   C     C_3   0.520550 0.534417 0.256427 -0.196962
C39   C     C_3   0.480313 0.466235 0.244064 0.642690
C40   C     C_3   0.480980 0.534143 0.244731 0.642711
C41   C     C_3   0.980316 0.966233 0.244067 0.642692
C42   C     C_3   0.980977 0.034141 0.244728 0.642713
C43   C     C_1   0.500080 0.499998 0.374280 -0.151517
C44   C     C_1   0.000080 0.999998 0.374280 -0.151516
C45   C     C_1   0.000024 1.000000 0.125937 -0.183212
C46   C     C_3   0.965961 0.263889 0.445329 -0.172522
C47   C     C_1   0.500024 0.500000 0.125937 -0.183212
C48   C     C_3   0.540233 0.499604 0.304065 -0.323778
C49   C     C_3   0.040233 0.999608 0.304065 -0.323781
C50   C     C_3   0.500456 0.499994 0.291727 -0.036858
C51   C     C_3   0.000456 0.999994 0.291727 -0.036859
C52   C     C_3   0.000032 0.999999 0.208869 0.022512
C53   C     C_3   0.500032 0.499999 0.208869 0.022511
C54   C     C_1   0.499994 0.125877 0.499994 -0.174550
C55   C     C_1   0.499995 0.874123 0.499994 -0.174540
C56   C     C_1   0.999994 0.625877 0.499994 -0.174551
C57   C     C_3   0.500258 0.264047 0.460611 -0.138649
C58   C     C_1   0.999995 0.374123 0.499994 -0.174539
C59   C     C_3   0.960042 0.000388 0.196058 -0.312167
C60   C     C_3   0.460042 0.500391 0.196058 -0.312169
C61   C     C_1   0.500220 0.499996 0.336915 0.072159
C62   C     C_1   0.000219 0.999997 0.336915 0.072159
C63   C     C_1   0.000018 1.000000 0.163437 0.017774
C64   C     C_1   0.500018 0.500000 0.163437 0.017774
C65   C     C_1   0.499990 0.374104 0.500086 -0.176161
C66   C     C_1   0.499989 0.625896 0.500086 -0.176086
C67   C     C_1   0.999990 0.874104 0.500086 -0.176164
C68   C     C_3   0.500885 0.735953 0.461247 -0.138566
C69   C     C_1   0.999989 0.125896 0.500086 -0.176083
C70   C     C_3   0.499728 0.236351 0.539118 0.045246
C71   C     C_3   0.499105 0.763648 0.538485 0.045235
C72   C     C_3   0.999665 0.736351 0.539054 0.045247
C73   C     C_3   0.998993 0.263648 0.538371 0.045230
C74   C     C_3   0.499992 0.208865 0.500103 0.155379
C75   C     C_3   0.499990 0.791135 0.500101 0.155339
C76   C     C_3   0.999992 0.708865 0.500103 0.155380
C77   C     C_3   0.999990 0.291135 0.500101 0.155334
C78   C     C_1   0.220629 0.000012 0.138033 0.148088
C79   C     C_3   0.000321 0.764047 0.460675 -0.138650
C80   C     C_1   0.720628 0.499851 0.138033 0.148092
C81   C     C_1   0.499438 0.220707 0.582151 0.149250
C82   C     C_1   0.498129 0.779293 0.580823 0.149246
C83   C     C_1   0.999305 0.720707 0.582017 0.149240
C84   C     C_1   0.997895 0.279293 0.580582 0.149258
C85   C     C_3   0.000998 0.235953 0.461363 -0.138573
C86   C     C_1   0.499994 0.163392 0.500011 -0.061256
C87   C     C_R   0.081408 0.500000 0.581409 0.908291
C88   C     C_1   0.499993 0.836608 0.500010 -0.061229
C89   C     C_1   0.999994 0.663392 0.500010 -0.061256
C90   C     C_1   0.999994 0.336608 0.500011 -0.061228
C91   C     C_1   0.499990 0.336587 0.500147 -0.057078
C92   C     C_1   0.499988 0.663413 0.500145 -0.056997
C93   C     C_1   0.999989 0.836587 0.500147 -0.057081
C94   C     C_1   0.999988 0.163413 0.500145 -0.056993
C95   C     C_3   0.763949 0.965926 0.784560 -0.159806
C96   C     C_3   0.763948 0.034879 0.783167 -0.159986
C97   C     C_3   0.263949 0.465907 0.784528 -0.159813
C98   C     C_3   0.465220 0.264076 0.485134 -0.200030
C99   C     C_3   0.263948 0.534861 0.783199 -0.159985
C100  C     C_3   0.736039 0.965122 0.716833 -0.162318
C101  C     C_3   0.736039 0.034075 0.715440 -0.162420
C102  C     C_3   0.236039 0.465139 0.716801 -0.162318
C103  C     C_3   0.236039 0.534094 0.715471 -0.162422
C104  C     C_1   0.625932 0.000000 0.625927 -0.180514
C105  C     C_1   0.125932 0.500000 0.625927 -0.180521
C106  C     C_1   0.874056 0.000000 0.874091 -0.179571
C107  C     C_1   0.374056 0.500000 0.874091 -0.179573
C108  C     C_R   0.499995 0.081391 0.500001 0.907567
C109  C     C_3   0.464909 0.735924 0.484270 -0.200024
C110  C     C_R   0.499995 0.918609 0.500002 0.907568
C111  C     C_R   0.999995 0.581391 0.500001 0.907567
C112  C     C_R   0.999995 0.418609 0.500002 0.907569
C113  C     C_3   0.736060 0.000804 0.775876 -0.158598
C114  C     C_3   0.236060 0.500768 0.775877 -0.158601
C115  C     C_3   0.708948 0.000000 0.708947 0.200338
C116  C     C_3   0.208948 0.500000 0.708947 0.200341
C117  C     C_3   0.791039 0.000000 0.791053 0.200409
C118  C     C_3   0.291039 0.500000 0.791053 0.200413
C119  C     C_3   0.763928 0.999196 0.724124 -0.162519
C120  C     C_3   0.965188 0.764076 0.485045 -0.200030
C121  C     C_3   0.263928 0.499233 0.724123 -0.162519
C122  C     C_1   0.663472 0.000000 0.663466 -0.072460
C123  C     C_1   0.163472 0.500000 0.663466 -0.072467
C124  C     C_1   0.836515 0.000000 0.836541 -0.071509
C125  C     C_1   0.336515 0.500000 0.836541 -0.071512
C126  C     C_3   0.236119 0.034535 0.255982 -0.175697
C127  C     C_3   0.236119 0.965458 0.255972 -0.175688
C128  C     C_3   0.736119 0.534573 0.255915 -0.175701
C129  C     C_3   0.736119 0.465496 0.256039 -0.175681
C130  C     C_3   0.264062 0.034634 0.244013 -0.198721
C131  C     C_3   0.964854 0.235924 0.484116 -0.200012
C132  C     C_3   0.264062 0.965370 0.244003 -0.198702
C133  C     C_3   0.764062 0.534595 0.243946 -0.198730
C134  C     C_3   0.764062 0.465331 0.244070 -0.198689
C135  C     C_1   0.374110 1.000000 0.374107 -0.180940
C136  C     C_1   0.874110 0.500000 0.374107 -0.180933
C137  C     C_1   0.125867 1.000000 0.125972 -0.174426
C138  C     C_1   0.625867 0.500000 0.125972 -0.174425
C139  C     C_R   0.418600 1.000000 0.418607 0.908544
C140  C     C_R   0.918600 0.500000 0.418607 0.908550
C141  C     C_3   0.264070 0.999993 0.303831 -0.145910
C142  C     C_3   0.499990 0.291150 0.500234 0.183882
C143  C     C_3   0.764070 0.500070 0.303831 -0.145905
C144  C     C_3   0.291151 0.999999 0.291017 0.185613
C145  C     C_3   0.791151 0.499999 0.291017 0.185609
C146  C     C_3   0.208859 0.999999 0.208865 0.156598
C147  C     C_3   0.708859 0.499999 0.208865 0.156595
C148  C     C_3   0.236322 0.000005 0.197044 0.048105
C149  C     C_3   0.736322 0.499929 0.197044 0.048100
C150  C     C_1   0.336590 0.999999 0.336540 -0.061019
C151  C     C_1   0.836590 0.499999 0.336540 -0.061012
C152  C     C_1   0.163385 1.000000 0.163482 -0.061668
C153  C     C_3   0.499986 0.708850 0.500230 0.183841
C154  C     C_1   0.663385 0.500000 0.163482 -0.061665
C155  C     C_R   0.499969 0.500000 0.581445 0.906430
C156  C     C_R   0.999969 0.000000 0.581445 0.906431
C157  C     C_R   0.499990 0.418592 0.500036 0.910892
C158  C     C_R   0.499990 0.581408 0.500036 0.910957
C159  C     C_R   0.999990 0.918592 0.500036 0.910891
C160  C     C_R   0.999990 0.081408 0.500036 0.910958
C161  C     C_R   0.500023 0.500000 0.418691 0.905412
C162  C     C_R   0.000023 1.000000 0.418691 0.905412
C163  C     C_R   0.000032 1.000000 0.081476 0.905231
C164  C     C_3   0.999989 0.791150 0.500233 0.183883
C165  C     C_R   0.500032 0.500000 0.081476 0.905231
C166  C     C_3   0.534493 0.264077 0.554909 -0.200947
C167  C     C_3   0.534167 0.735923 0.555125 -0.200957
C168  C     C_3   0.034460 0.764077 0.554931 -0.200951
C169  C     C_3   0.034107 0.235923 0.555163 -0.200953
C170  C     C_R   0.918580 0.000000 0.918627 0.909382
C171  C     C_R   0.418580 0.500000 0.918627 0.909382
C172  C     C_R   0.999942 0.000000 0.918595 0.909360
C173  C     C_R   0.499942 0.500000 0.918595 0.909360
C174  C     C_R   0.081381 1.000000 0.081466 0.909563
F1    F     F_    0.459777 0.431117 0.238679 -0.646732
F2    F     F_    0.461137 0.569656 0.240041 -0.646779
F3    F     F_    0.959783 0.931114 0.238685 -0.646731
F4    F     F_    0.961130 0.069653 0.240034 -0.646776
H1    H     H_    0.563028 0.223965 0.527314 0.144299
H2    H     H_    0.776156 0.437118 0.239635 0.142970
H3    H     H_    0.223976 0.062776 0.260271 0.144899
H4    H     H_    0.223976 0.937212 0.260253 0.144899
H5    H     H_    0.723976 0.562846 0.260149 0.144903
H6    H     H_    0.723976 0.437282 0.260375 0.144901
H7    H     H_    0.276345 0.999988 0.348742 0.139507
H8    H     H_    0.776345 0.500129 0.348741 0.139512
H9    H     H_    0.464779 0.563361 0.688660 0.138448
H10   H     H_    0.462664 0.437859 0.686545 0.138423
H11   H     H_    0.962798 0.062221 0.686678 0.138439
H12   H     H_    0.563586 0.776036 0.528873 0.144283
H13   H     H_    0.964642 0.936715 0.688524 0.138437
H14   H     H_    0.035268 0.063284 0.811517 0.140854
H15   H     H_    0.037113 0.937781 0.813363 0.140901
H16   H     H_    0.537247 0.562139 0.813496 0.140895
H17   H     H_    0.535132 0.436640 0.811381 0.140863
H18   H     H_    0.927480 0.998936 0.703665 0.136355
H19   H     H_    0.427483 0.501221 0.703667 0.136355
H20   H     H_    0.572427 0.498779 0.796374 0.141316
H21   H     H_    0.072430 0.001065 0.796376 0.141314
H22   H     H_    0.562570 0.276176 0.599770 0.143588
H23   H     H_    0.063086 0.723964 0.527473 0.144294
H24   H     H_    0.561975 0.723824 0.600159 0.143572
H25   H     H_    0.062511 0.776176 0.599811 0.143584
H26   H     H_    0.061867 0.223824 0.600227 0.143567
H27   H     H_    0.035561 0.936513 0.259322 0.165352
H28   H     H_    0.036789 0.062782 0.260551 0.165326
H29   H     H_    0.535556 0.436510 0.259316 0.165353
H30   H     H_    0.536795 0.562779 0.260557 0.165327
H31   H     H_    0.927213 0.000707 0.151476 0.176525
H32   H     H_    0.427214 0.500714 0.151476 0.176524
H33   H     H_    0.572964 0.499283 0.348820 0.185124
H34   H     H_    0.063685 0.276036 0.529153 0.144274
H35   H     H_    0.072964 0.999289 0.348820 0.185122
H36   H     H_    0.500476 0.276298 0.428192 0.144820
H37   H     H_    0.501620 0.723702 0.429353 0.144905
H38   H     H_    0.000593 0.776298 0.428309 0.144813
H39   H     H_    0.001826 0.223702 0.429564 0.144892
H40   H     H_    0.437442 0.223962 0.400818 0.146069
H41   H     H_    0.438029 0.776038 0.400420 0.146158
H42   H     H_    0.937501 0.723962 0.400776 0.146074
H43   H     H_    0.938136 0.276038 0.400352 0.146172
H44   H     H_    0.436919 0.276174 0.473208 0.143855
H45   H     H_    0.723852 0.001463 0.796310 0.142172
H46   H     H_    0.436353 0.723826 0.471640 0.143914
H47   H     H_    0.936861 0.776174 0.473049 0.143861
H48   H     H_    0.936253 0.223826 0.471359 0.143926
H49   H     H_    0.723814 0.936522 0.688854 0.137257
H50   H     H_    0.723813 0.062015 0.686319 0.137280
H51   H     H_    0.223814 0.436555 0.688796 0.137254
H52   H     H_    0.223813 0.562050 0.686376 0.137275
H53   H     H_    0.776174 0.937986 0.813681 0.140845
H54   H     H_    0.776173 0.063478 0.811145 0.140766
H55   H     H_    0.276174 0.437952 0.813624 0.140840
H56   H     H_    0.223852 0.501397 0.796311 0.142168
H57   H     H_    0.276173 0.563446 0.811204 0.140764
H58   H     H_    0.776137 0.998537 0.703691 0.136018
H59   H     H_    0.276137 0.498604 0.703689 0.136016
H60   H     H_    0.276156 0.062821 0.239531 0.142955
H61   H     H_    0.276156 0.937189 0.239513 0.142968
H62   H     H_    0.776156 0.562749 0.239409 0.142959
N1    N     N_1   0.208229 0.000017 0.091472 -0.201079
N2    N     N_1   0.708229 0.499790 0.091473 -0.201076
N3    N     N_1   0.499209 0.208349 0.616090 -0.197016
N4    N     N_1   0.497360 0.791650 0.614212 -0.197051
N5    N     N_1   0.999021 0.708349 0.615900 -0.197026
N6    N     N_1   0.997028 0.291650 0.613873 -0.197050
O1    O     O_R   0.561630 0.000000 0.596420 -0.614813
O2    O     O_R   0.965230 0.000000 0.403640 -0.603015
O3    O     O_R   0.000030 0.965220 0.061700 -0.614646
O4    O     O_R   0.000030 0.034780 0.061700 -0.614591
O5    O     O_R   0.500030 0.465220 0.061700 -0.614646
O6    O     O_R   0.500030 0.534780 0.061700 -0.614590
O7    O     O_R   0.938380 0.965210 0.938430 -0.616321
O8    O     O_R   0.938380 0.034790 0.938430 -0.616321
O9    O     O_R   0.438380 0.465210 0.938430 -0.616319
O10   O     O_R   0.438380 0.534790 0.938430 -0.616323
O11   O     O_R   0.999950 0.965200 0.938400 -0.616673
O12   O     O_R   0.061630 0.500000 0.596420 -0.614819
O13   O     O_R   0.999950 0.034800 0.938400 -0.616671
O14   O     O_R   0.499950 0.465200 0.938400 -0.616673
O15   O     O_R   0.499950 0.534800 0.938400 -0.616671
O16   O     O_R   0.061600 0.965210 0.061670 -0.616405
O17   O     O_R   0.061600 0.034790 0.061670 -0.616388
O18   O     O_R   0.561600 0.465210 0.061670 -0.616395
O19   O     O_R   0.561600 0.534790 0.061670 -0.616397
O20   O     O_R   0.561580 0.000000 0.526800 -0.617984
O21   O     O_R   0.061580 0.500000 0.526800 -0.617983
O22   O     O_R   0.500020 0.061610 0.534810 -0.612705
O23   O     O_R   0.465210 0.438380 0.465220 -0.614223
O24   O     O_R   0.500020 0.938390 0.534810 -0.612704
O25   O     O_R   0.000020 0.561610 0.534810 -0.612705
O26   O     O_R   0.000020 0.438390 0.534810 -0.612703
O27   O     O_R   0.499970 0.061600 0.465200 -0.618002
O28   O     O_R   0.499970 0.938400 0.465200 -0.617986
O29   O     O_R   0.999970 0.561600 0.465200 -0.618003
O30   O     O_R   0.999970 0.438400 0.465200 -0.617986
O31   O     O_R   0.438410 0.000000 0.473200 -0.615845
O32   O     O_R   0.938410 0.500000 0.473200 -0.615838
O33   O     O_R   0.438360 0.000000 0.403580 -0.616333
O34   O     O_R   0.465210 0.561620 0.465220 -0.614234
O35   O     O_R   0.938360 0.500000 0.403580 -0.616335
O36   O     O_R   0.534760 0.500000 0.596460 -0.617421
O37   O     O_R   0.034760 0.000000 0.596460 -0.617423
O38   O     O_R   0.465190 0.500000 0.526830 -0.618317
O39   O     O_R   0.965190 0.000000 0.526830 -0.618314
O40   O     O_R   0.534770 0.438380 0.534860 -0.617634
O41   O     O_R   0.534770 0.561620 0.534860 -0.617595
O42   O     O_R   0.034770 0.938380 0.534860 -0.617632
O43   O     O_R   0.034770 0.061620 0.534860 -0.617601
O44   O     O_R   0.965210 0.938380 0.465220 -0.614219
O45   O     O_R   0.965210 0.061620 0.465220 -0.614234
O46   O     O_R   0.534790 0.500000 0.473270 -0.620798
O47   O     O_R   0.034790 0.000000 0.473270 -0.620800
O48   O     O_R   0.465230 0.500000 0.403640 -0.603016
Zn1   Zn    Zn3+2 0.500030 0.000000 0.546480 0.982063
Zn2   Zn    Zn3+2 0.999990 0.046460 0.000050 0.975249
Zn3   Zn    Zn3+2 0.499990 0.453540 0.000050 0.975195
Zn4   Zn    Zn3+2 0.499990 0.546460 0.000050 0.975246
Zn5   Zn    Zn3+2 0.000030 0.500000 0.546480 0.982063
Zn6   Zn    Zn3+2 0.499960 0.000000 0.453520 0.971199
Zn7   Zn    Zn3+2 0.999960 0.500000 0.453520 0.971198
Zn8   Zn    Zn3+2 0.546440 0.500000 0.546540 0.972682
Zn9   Zn    Zn3+2 0.046440 0.000000 0.546540 0.972676
Zn10  Zn    Zn3+2 0.453540 0.500000 0.453560 0.988351
Zn11  Zn    Zn3+2 0.953540 0.000000 0.453560 0.988357
Zn12  Zn    Zn3+2 0.999990 0.953540 0.000050 0.975191

loop_
_geom_bond_atom_site_label_1
_geom_bond_atom_site_label_2
_ccdc_geom_bond_type
C16   C173  S    
C132  C144  S    
C99   C103  S    
C22   C29   S    
C72   C168  S    
C36   C42   S    
C136  C140  S    
C15   C32   T    
C114  H56   S    
C107  C171  S    
C135  C139  S    
C51   C62   S    
C58   C112  S    
C139  O33   A    
C132  H61   S    
C25   H12   S    
C117  C119  S    
C47   C165  S    
C53   C64   S    
C49   H35   S    
C69   C160  S    
C105  C123  T    
C55   C88   T    
C110  O28   A    
C9    C19   S    
C10   C20   S    
C49   C51   S    
C70   C74   S    
O17   Zn2   S    
C133  H62   S    
O9    Zn3   S    
O11   Zn12  S    
C27   C169  S    
C23   H1    S    
C78   C148  S    
C91   C142  S    
C4    C18   S    
C138  C154  T    
C103  H52   S    
C48   C50   S    
C80   C149  S    
C100  C115  S    
C8    H9    S    
C11   C20   S    
C10   H11   S    
C140  O32   A    
C164  C168  S    
C161  O46   A    
C108  O27   A    
C141  C144  S    
C47   C64   T    
C5    C18   S    
C130  C148  S    
O34   Zn10  S    
C100  H49   S    
C174  O16   A    
O31   Zn1   S    
C2    C131  S    
O6    Zn4   S    
C3    C138  S    
C36   H28   S    
O26   Zn5   S    
C21   C28   S    
O13   Zn2   S    
C101  C115  S    
O21   Zn7   S    
C133  C145  S    
C103  C121  S    
C6    H16   S    
C43   C61   T    
C110  O24   A    
C65   C91   T    
C14   C156  S    
C139  O31   A    
C52   C63   S    
C156  O37   A    
C128  C147  S    
C157  O40   A    
C7    C22   S    
C40   F2    S    
C126  C141  S    
C103  C116  S    
C45   C163  S    
O27   Zn6   S    
C38   C53   S    
C42   F4    S    
C39   C60   S    
C15   C172  S    
C129  C147  S    
O36   Zn8   S    
C2    C169  S    
C5    C21   S    
C106  C124  T    
C73   C77   S    
C67   C159  S    
C172  O11   A    
C19   C30   S    
C41   C51   S    
C113  C115  S    
C40   C60   S    
C116  C123  S    
C161  O48   A    
C14   C31   T    
C99   C114  S    
C95   C117  S    
O19   Zn4   S    
C57   C142  S    
C8    C29   S    
C41   F3    S    
C104  C122  T    
O14   Zn3   S    
C84   N6    T    
C127  C141  S    
C167  H24   S    
C108  O22   A    
C68   H37   S    
C113  H45   S    
C144  C150  S    
C7    C17   S    
C171  O10   A    
C92   C153  S    
C13   H40   S    
C102  C121  S    
C130  C144  S    
C38   C48   S    
O30   Zn7   S    
C36   C52   S    
C76   C89   S    
C37   C53   S    
C71   C167  S    
C98   C142  S    
C106  C170  S    
C72   C120  S    
C35   C120  S    
C128  H5    S    
C156  O39   A    
C53   C60   S    
C34   H27   S    
C158  O41   A    
C35   C76   S    
C8    C19   S    
C96   C117  S    
C2    C94   S    
C26   H23   S    
C107  C125  T    
C39   F1    S    
C68   C153  S    
C1    O1    A    
C54   C86   T    
C66   C92   T    
C134  C149  S    
O10   Zn4   S    
C142  C166  S    
C158  O34   A    
C87   C105  S    
O12   Zn5   S    
C157  O23   A    
C83   N5    T    
C100  C119  S    
C172  O13   A    
C79   H38   S    
O42   Zn9   S    
C23   C74   S    
C23   C57   S    
C6    C17   S    
C56   C89   T    
C34   C49   S    
C170  O7    A    
C78   N1    T    
C163  O4    A    
C42   C59   S    
C114  C116  S    
C135  C150  T    
C159  O42   A    
C54   C108  S    
C71   C82   S    
C159  O44   A    
C169  H26   S    
C131  H48   S    
C13   C98   S    
C127  H4    S    
C98   H44   S    
C35   C79   S    
C27   H34   S    
C28   H18   S    
C11   H13   S    
C120  C164  S    
C3    O18   A    
C67   C93   T    
C50   C61   S    
C126  H3    S    
C134  H2    S    
C97   C114  S    
C153  C167  S    
C59   H31   S    
C87   O21   A    
C165  O6    A    
C4    H14   S    
C111  O25   A    
C79   C164  S    
O2    Zn11  S    
C9    H10   S    
O39   Zn11  S    
C34   C41   S    
C147  C149  S    
C117  C124  S    
C95   H53   S    
C5    C11   S    
C126  C130  S    
C6    C22   S    
C2    C85   S    
C7    C9    S    
C27   C85   S    
C174  O17   A    
O38   Zn10  S    
C1    O20   A    
O41   Zn8   S    
C137  C152  T    
C118  C125  S    
O47   Zn9   S    
C162  O47   A    
C109  C153  S    
C56   C111  S    
O48   Zn10  S    
C97   C102  S    
C46   C85   S    
C96   C101  S    
C160  O43   A    
C37   H29   S    
C25   C68   S    
C44   C162  S    
C146  C148  S    
C77   C90   S    
O23   Zn10  S    
O4    Zn2   S    
C65   C157  S    
C69   C94   T    
C95   C100  S    
C6    C8    S    
C25   C75   S    
O28   Zn6   S    
O32   Zn5   S    
C48   H33   S    
C17   H20   S    
O16   Zn12  S    
C58   C90   T    
C129  H6    S    
O43   Zn9   S    
C143  H8    S    
C96   C113  S    
C73   C169  S    
C136  C151  T    
C5    H15   S    
C10   C28   S    
C134  C145  S    
C12   C30   T    
O40   Zn8   S    
C24   C109  S    
C112  O30   A    
C24   C75   S    
C129  C143  S    
C34   C52   S    
C26   C79   S    
C81   N3    T    
O25   Zn5   S    
C137  C174  S    
C37   C39   S    
C38   C40   S    
C11   C28   S    
O22   Zn1   S    
C40   C50   S    
C80   N2    T    
C162  O2    A    
C128  C143  S    
C72   C83   S    
C24   C68   S    
C127  C146  S    
C129  C134  S    
C24   H41   S    
C119  H58   S    
C13   C57   S    
C13   C74   S    
C171  O9    A    
O7    Zn12  S    
C36   C49   S    
O15   Zn4   S    
C73   C131  S    
C3    O19   A    
C140  O35   A    
C72   C76   S    
C35   H42   S    
C112  O26   A    
C126  C146  S    
C25   C167  S    
C26   C168  S    
O5    Zn3   S    
C46   H43   S    
C38   H30   S    
C101  H50   S    
O8    Zn2   S    
C70   C166  S    
O1    Zn1   S    
C97   C118  S    
C155  O38   A    
C70   C81   S    
C147  C154  S    
C85   H39   S    
C127  C132  S    
O24   Zn1   S    
O45   Zn11  S    
C102  H51   S    
C26   C76   S    
O46   Zn8   S    
C111  O29   A    
C73   C84   S    
C173  O15   A    
C9    C29   S    
C42   C51   S    
C115  C122  S    
C87   O12   A    
C71   C109  S    
C21   C32   S    
C170  O8    A    
O20   Zn6   S    
C101  C119  S    
C163  O3    A    
C133  C149  S    
O18   Zn3   S    
C41   C59   S    
C173  O14   A    
C46   C131  S    
C93   C164  S    
C44   C62   T    
C45   C63   T    
O33   Zn6   S    
C118  C121  S    
C52   C59   S    
C16   C33   T    
C23   C166  S    
C99   H57   S    
C97   H55   S    
C82   N4    T    
C74   C86   S    
C37   C48   S    
C1    C104  S    
C145  C151  S    
C109  H46   S    
C146  C152  S    
C43   C161  S    
C29   H19   S    
C55   C110  S    
C141  H7    S    
C12   C155  S    
C4    C10   S    
C160  O45   A    
O35   Zn7   S    
C66   C158  S    
O37   Zn9   S    
C143  C145  S    
C22   C33   S    
C130  H60   S    
O44   Zn11  S    
C165  O5    A    
C132  C148  S    
C27   C77   S    
O29   Zn7   S    
O3    Zn12  S    
C168  H25   S    
C155  O36   A    
C128  C133  S    
C99   C118  S    
C71   C75   S    
C4    C21   S    
C60   H32   S    
C95   C113  S    
C121  H59   S    
C46   C77   S    
C17   C19   S    
C18   C20   S    
C96   H54   S    
C166  H22   S    
C102  C116  S    
C75   C88   S    
C39   C50   S    
C57   H36   S    
C18   H21   S    
C7    H17   S    
C120  H47   S    
C70   C98   S    
C20   C31   S    
