data_mof_unit_56691.cif
_audit_creation_date              2012-10-26T19:39:06-0400
_audit_creation_method            fapswitch 2.2
_symmetry_space_group_name_H-M    P1
_symmetry_Int_Tables_number       1
_space_group_crystal_system       triclinic
_cell_length_a                    12.258761
_cell_length_b                    12.665563
_cell_length_c                    7.444114
_cell_angle_alpha                 90.000097
_cell_angle_beta                  108.405345
_cell_angle_gamma                 89.99988
_cell_volume                      1096.68039765

loop_
_atom_site_label
_atom_site_type_symbol
_atom_type_description
_atom_site_fract_x
_atom_site_fract_y
_atom_site_fract_z
_atom_type_partial_charge
C1    C     C_R   0.347283 0.853172 0.453142 0.529954
C2    C     C_2   0.742164 0.776127 0.574423 -0.078761
C3    C     C_2   0.742161 0.223876 0.574423 -0.078763
C4    C     C_2   0.257839 0.776123 0.425576 -0.078763
C5    C     C_2   0.757836 0.723873 0.425577 -0.078761
C6    C     C_2   0.242164 0.276127 0.574423 -0.078761
C7    C     C_2   0.242161 0.723876 0.574423 -0.078763
C8    C     C_2   0.757839 0.276124 0.425576 -0.078763
C9    C     C_1   0.685536 0.737570 0.229713 0.247641
C10   C     C_1   0.314464 0.262430 0.770287 0.247641
C11   C     C_1   0.314448 0.737587 0.770292 0.247649
C12   C     C_R   0.652717 0.146828 0.546858 0.529953
C13   C     C_1   0.685552 0.262413 0.229708 0.247649
C14   C     C_1   0.185536 0.237570 0.229713 0.247641
C15   C     C_1   0.814464 0.762430 0.770287 0.247641
C16   C     C_1   0.814448 0.237587 0.770292 0.247649
C17   C     C_1   0.185552 0.762413 0.229708 0.247649
C18   C     C_R   0.652717 0.853172 0.546858 0.529954
C19   C     C_R   0.347283 0.146828 0.453142 0.529954
C20   C     C_R   0.847283 0.353172 0.453142 0.529954
C21   C     C_R   0.152717 0.646828 0.546858 0.529953
C22   C     C_R   0.152717 0.353172 0.546858 0.529954
C23   C     C_R   0.847283 0.646828 0.453142 0.529954
C24   C     C_2   0.257836 0.223873 0.425577 -0.078761
Cu1   Cu    Cu3+1 0.517640 1.000000 0.687200 1.037513
Cu2   Cu    Cu3+1 0.482360 0.000000 0.312800 1.037513
Cu3   Cu    Cu3+1 0.017640 0.500000 0.687200 1.037513
Cu4   Cu    Cu3+1 0.982360 0.500000 0.312800 1.037513
H1    H     H_    0.376870 0.000001 0.927854 0.245380
H2    H     H_    0.623130 0.999999 0.072146 0.245380
H3    H     H_    0.876869 0.500001 0.927854 0.245380
H4    H     H_    0.123130 0.499999 0.072146 0.245380
N1    N     N_2   0.455760 0.000000 0.031460 -0.228197
N2    N     N_1   0.870816 0.752140 0.926492 -0.231359
N3    N     N_1   0.870790 0.247887 0.926500 -0.231349
N4    N     N_1   0.129210 0.752113 0.073500 -0.231349
N5    N     N_2   0.544240 0.000000 0.968540 -0.228197
N6    N     N_2   0.955760 0.500000 0.031460 -0.228197
N7    N     N_2   0.044240 0.500000 0.968540 -0.228197
N8    N     N_1   0.629184 0.747860 0.073508 -0.231359
N9    N     N_1   0.370816 0.252140 0.926492 -0.231359
N10   N     N_1   0.370790 0.747887 0.926500 -0.231349
N11   N     N_1   0.629210 0.252113 0.073500 -0.231349
N12   N     N_1   0.129184 0.247860 0.073508 -0.231359
O1    O     O_R   0.398880 0.887420 0.621600 -0.507994
O2    O     O_R   0.630920 0.112580 0.694560 -0.486836
O3    O     O_R   0.630920 0.887420 0.694560 -0.486840
O4    O     O_R   0.369080 0.112580 0.305440 -0.486840
O5    O     O_R   0.869080 0.387420 0.305440 -0.486836
O6    O     O_R   0.130920 0.612580 0.694560 -0.486836
O7    O     O_R   0.130920 0.387420 0.694560 -0.486840
O8    O     O_R   0.869080 0.612580 0.305440 -0.486840
O9    O     O_R   0.601120 0.112580 0.378400 -0.507994
O10   O     O_R   0.601120 0.887420 0.378400 -0.507993
O11   O     O_R   0.398880 0.112580 0.621600 -0.507993
O12   O     O_R   0.898880 0.387420 0.621600 -0.507994
O13   O     O_R   0.101120 0.612580 0.378400 -0.507994
O14   O     O_R   0.101120 0.387420 0.378400 -0.507993
O15   O     O_R   0.898880 0.612580 0.621600 -0.507993
O16   O     O_R   0.369080 0.887420 0.305440 -0.486836

loop_
_geom_bond_atom_site_label_1
_geom_bond_atom_site_label_2
_ccdc_geom_bond_type
C6    C10   S    
C7    C11   S    
Cu3   O6    S    
C21   O13   A    
C20   O5    A    
C17   N4    T    
Cu4   O14   S    
C2    C18   S    
C7    C21   S    
Cu4   O5    S    
Cu1   O3    S    
C15   N2    T    
C12   O9    A    
C5    C23   S    
H3    N6    S    
Cu2   O4    S    
C20   O12   A    
C1    C4    S    
C6    C24   D    
C18   O3    A    
C19   C24   S    
Cu3   O15   S    
Cu4   O13   S    
C10   N9    T    
C23   O15   A    
C2    C15   S    
Cu4   O8    S    
C1    O1    A    
C23   O8    A    
C8    C20   S    
Cu3   N7    S    
C4    C7    D    
C4    C17   S    
Cu2   O10   S    
C12   O2    A    
C21   O6    A    
Cu3   O7    S    
C16   N3    T    
N6    N7    D    
Cu4   N6    S    
C1    O16   A    
C2    C5    D    
C18   O10   A    
Cu1   O1    S    
C19   O11   A    
Cu2   O9    S    
C6    C22   S    
C8    C13   S    
H1    N1    S    
C13   N11   T    
C11   N10   T    
C14   N12   T    
C3    C8    D    
C22   O14   A    
H4    N7    S    
C14   C24   S    
Cu3   Cu4   S    
Cu3   O12   S    
C3    C12   S    
Cu2   N1    S    
Cu1   N5    S    
Cu1   Cu2   S    
C19   O4    A    
Cu2   O16   S    
Cu1   O2    S    
C9    N8    T    
N1    N5    D    
C3    C16   S    
Cu1   O11   S    
H2    N5    S    
C5    C9    S    
C22   O7    A    
