data_mof_unit_57550.cif
_audit_creation_date              2013-03-05T15:53:47-0500
_audit_creation_method            fapswitch 2.2
_symmetry_space_group_name_H-M    P1
_symmetry_Int_Tables_number       1
_space_group_crystal_system       triclinic
_cell_length_a                    10.758653
_cell_length_b                    10.717776
_cell_length_c                    9.961161
_cell_angle_alpha                 87.895484
_cell_angle_beta                  91.430592
_cell_angle_gamma                 94.074545
_cell_volume                      1144.64589601

loop_
_atom_site_label
_atom_site_type_symbol
_atom_site_description
_atom_site_fract_x
_atom_site_fract_y
_atom_site_fract_z
_atom_type_partial_charge
O1    O     O_R   0.500000 0.316780 0.614690 -0.510297
O2    O     O_R   0.499990 0.316750 0.385360 -0.632847
C1    C     C_R   0.516714 0.262385 0.503546 0.966673
O3    O     O_R   0.314800 0.499990 0.614670 -0.578253
O4    O     O_R   0.314790 0.499970 0.385330 -0.617502
C2    C     C_R   0.257396 0.497415 0.498438 1.045442
Zn1   Zn    Zn3+2 0.500010 0.500020 0.653130 1.133435
Zn2   Zn    Zn3+2 0.499990 0.499980 0.346870 1.088844
O5    O     O_R   0.500010 0.683250 0.614640 -0.626432
O6    O     O_R   0.500000 0.683220 0.385310 -0.591766
O7    O     O_R   0.685210 0.500030 0.614670 -0.536663
O8    O     O_R   0.685200 0.500010 0.385330 -0.573462
C3    C     C_R   0.494510 0.740151 0.497525 0.934605
C4    C     C_R   0.741601 0.497888 0.501814 0.980659
C5    C     C_3   0.073349 0.466291 0.643360 -0.467023
H1    H     H_    0.121400 0.531157 0.715508 0.271708
H2    H     H_    0.098397 0.372260 0.680704 0.260785
C6    C     C_3   0.932588 0.477303 0.650840 0.756487
C7    C     C_3   0.076252 0.622963 0.443192 0.017467
C8    C     C_3   0.057826 0.379741 0.408504 0.337523
C9    C     C_3   0.119659 0.492168 0.495928 -0.412374
C10   C     C_3   0.877461 0.494495 0.503994 -0.459209
C11   C     C_3   0.932678 0.620015 0.439512 0.514782
C12   C     C_3   0.912706 0.385985 0.415665 0.248525
H3    H     H_    0.865849 0.298496 0.456845 0.197651
H4    H     H_    0.106055 0.641594 0.338794 0.190438
H5    H     H_    0.900493 0.627809 0.332550 0.160323
C13   C     C_R   0.523655 0.100676 0.762301 0.666758
C14   C     C_R   0.463591 0.033503 0.867505 -0.242646
H6    H     H_    0.472818 0.066586 0.968490 0.226803
C15   C     C_R   0.389722 0.924990 0.842064 0.725243
C16   C     C_R   0.390455 0.874470 0.715498 -0.130794
H7    H     H_    0.337016 0.786708 0.700851 0.207019
C17   C     C_R   0.462465 0.934964 0.611750 -0.074223
C18   C     C_R   0.510208 0.057876 0.629293 -0.039307
C19   C     C_R   0.542473 0.131079 0.512699 -0.211707
C20   C     C_R   0.572868 0.073111 0.395062 0.193048
C21   C     C_R   0.550708 0.944934 0.386362 0.252107
C22   C     C_R   0.493822 0.875195 0.494117 -0.136442
H8    H     H_    0.624982 0.656341 0.125388 0.211830
C23   C     C_R   0.348217 0.322789 0.146668 -0.118821
H9    H     H_    0.334667 0.327480 0.251475 0.250416
C24   C     C_R   0.279048 0.227321 0.083905 -0.241911
H10   H     H_    0.225105 0.156856 0.142673 0.265537
C25   C     C_R   0.271791 0.227348 0.946082 0.584496
C26   C     C_R   0.341055 0.317367 0.869739 0.507374
C27   C     C_R   0.424427 0.409979 0.930395 -0.051434
C28   C     C_R   0.425329 0.411501 0.074719 0.115727
N1    N     N_R   0.498810 0.498800 0.142780 -0.124846
C29   C     C_R   0.568355 0.586699 0.071256 0.010958
C30   C     C_R   0.566556 0.590223 0.928744 0.336569
N2    N     N_R   0.498760 0.498720 0.857170 -0.134016
F1    F     F_    0.861480 0.400848 0.286840 -0.540720
N3    N     N_R   0.633954 0.142757 0.287104 0.253489
O9    O     O_R   0.572703 0.164043 0.175550 -0.342511
O10   O     O_R   0.754997 0.153519 0.286980 -0.217776
F2    F     F_    0.604269 0.199030 0.793597 -0.571411
F3    F     F_    0.324686 0.863773 0.942284 -0.559481
N4    N     N_R   0.585680 0.887338 0.266843 0.228714
O11   O     O_R   0.502638 0.865212 0.172026 -0.307855
O12   O     O_R   0.702704 0.875169 0.244295 -0.268377
F4    F     F_    0.194796 0.139938 0.884814 -0.530414
F5    F     F_    0.318508 0.309723 0.738224 -0.601481
N5    N     N_R   0.630493 0.696689 0.862965 0.210492
O13   O     O_R   0.706698 0.682387 0.767147 -0.196992
O14   O     O_R   0.634334 0.805134 0.918042 -0.325319
N6    N     N_R   0.873675 0.368558 0.726371 0.202364
O15   O     O_R   0.817364 0.385441 0.837769 -0.182314
O16   O     O_R   0.887799 0.254510 0.692243 -0.322573
F6    F     F_    0.914971 0.583625 0.721344 -0.494888
N7    N     N_R   0.132824 0.728846 0.518962 0.245972
O17   O     O_R   0.102412 0.746718 0.642008 -0.215020
O18   O     O_R   0.202672 0.815336 0.456508 -0.351946
F7    F     F_    0.889346 0.721935 0.501626 -0.509947
N8    N     N_R   0.089949 0.384957 0.264512 0.238746
O19   O     O_R   0.137970 0.485124 0.202657 -0.378378
O20   O     O_R   0.047971 0.292347 0.191185 -0.229632
N9    N     N_R   0.096833 0.257955 0.464998 0.205993
O21   O     O_R   0.019014 0.159187 0.469945 -0.221204
O22   O     O_R   0.214902 0.239858 0.477490 -0.364787

loop_
_geom_bond_atom_site_label_1
_geom_bond_atom_site_label_2
_geom_bond_distance
_ccdc_geom_bond_type
C6    F6    1.387014 S    
C5    C6    1.531195 S    
C23   H9    1.061228 S    
C7    N7    1.473010 S    
C18   C19   1.414013 A    
N8    O19   1.299079 A    
C13   F2    1.356956 S    
Zn1   O7    2.038363 S    
C14   H6    1.078735 S    
C15   F3    1.355809 S    
C19   C20   1.402695 A    
C7    C9    1.576664 S    
Zn1   N2    2.032386 S    
C21   C22   1.412161 A    
O7    C4    1.292401 A    
N9    O22   1.300786 A    
C5    H1    1.110927 S    
C25   F4    1.357499 S    
Zn1   O5    1.987027 S    
C17   C18   1.395004 A    
C7    H4    1.102924 S    
O5    C3    1.298383 A    
C26   C27   1.430143 A    
C17   C22   1.415201 A    
C8    C12   1.570980 S    
C13   C18   1.418584 A    
C11   H5    1.114120 S    
N4    O11   1.300271 A    
O1    Zn1   2.014651 S    
C23   C24   1.380986 A    
O3    Zn1   2.019669 S    
N3    O10   1.299196 A    
N4    O12   1.300837 A    
N6    O15   1.301920 A    
C12   H3    1.102983 S    
O3    C2    1.298811 A    
N7    O18   1.301166 A    
N9    O21   1.302396 A    
C6    N6    1.476695 S    
C25   C26   1.391649 A    
C2    C9    1.478557 S    
C30   N2    1.387750 A    
C8    N8    1.481878 S    
O1    C1    1.292353 A    
N5    O14   1.300969 A    
C7    C11   1.542278 S    
C24   H10   1.082627 S    
C20   C21   1.383022 A    
C24   C25   1.373144 A    
C27   C28   1.438117 A    
Zn2   O8    2.019671 S    
C29   C30   1.418383 A    
N8    O20   1.302216 A    
C20   N3    1.432547 S    
C28   N1    1.369222 A    
O8    C4    1.296122 A    
C10   C12   1.557219 S    
C11   F7    1.389172 S    
C5    H2    1.110277 S    
N3    O9    1.298948 A    
C13   C14   1.395132 A    
C6    C10   1.574096 S    
C15   C16   1.390665 A    
O2    Zn2   1.987027 S    
C30   N5    1.435489 S    
O6    C3    1.297605 A    
O4    Zn2   2.038362 S    
C27   N2    1.395086 A    
C8    N9    1.486153 S    
C26   F5    1.330782 S    
N5    O13   1.293960 A    
C4    C10   1.464304 S    
O2    C1    1.308355 A    
C12   F1    1.392112 S    
N7    O17   1.300852 A    
C14   C15   1.388769 A    
C16   H7    1.079648 S    
O4    C2    1.296733 A    
C1    C19   1.452705 S    
H8    C29   1.080538 S    
C23   C28   1.404807 A    
C3    C22   1.447066 S    
C21   N4    1.431568 S    
C5    C9    1.571280 S    
C8    C9    1.608443 S    
Zn2   O6    2.014651 S    
N1    C29   1.353551 A    
C10   C11   1.554778 S    
N6    O16   1.300867 A    
Zn2   N1    2.033194 S    
C16   C17   1.417034 A    
