data_mof_unit_23502.cif
_audit_creation_date              2012-12-10T17:22:39-0500
_audit_creation_method            fapswitch 2.2
_symmetry_space_group_name_H-M    P1
_symmetry_Int_Tables_number       1
_space_group_crystal_system       triclinic
_cell_length_a                    10.652666
_cell_length_b                    10.857074
_cell_length_c                    9.58252
_cell_angle_alpha                 90.25415
_cell_angle_beta                  89.783304
_cell_angle_gamma                 92.679391
_cell_volume                      1107.05383049

loop_
_atom_site_label
_atom_site_type_symbol
_atom_type_description
_atom_site_fract_x
_atom_site_fract_y
_atom_site_fract_z
_atom_type_partial_charge
C1    C     C_R   0.509553 0.262995 0.500514 0.827839
C2    C     C_3   0.958222 0.496703 0.366248 -0.259437
C3    C     C_3   0.035860 0.398288 0.437517 0.020304
C4    C     C_3   0.122799 0.500283 0.501180 -0.045815
C5    C     C_R   0.572994 0.120557 0.757420 -0.130731
C6    C     C_R   0.553878 0.061958 0.885299 -0.155354
C7    C     C_R   0.490647 0.947356 0.890132 -0.131073
C8    C     C_R   0.458510 0.885984 0.766360 -0.125954
C9    C     C_R   0.490288 0.938693 0.634817 0.111282
C10   C     C_R   0.528777 0.064471 0.631787 0.102995
C11   C     C_R   0.519761 0.129000 0.503701 -0.125257
C12   C     C_R   0.259586 0.500052 0.500391 0.907537
C13   C     C_R   0.503051 0.063185 0.378729 -0.183604
C14   C     C_R   0.492063 0.935915 0.379726 -0.171107
C15   C     C_R   0.485987 0.871942 0.506347 -0.077817
C16   C     C_R   0.665250 0.665738 0.144504 -0.163623
C17   C     C_R   0.742504 0.750428 0.073036 -0.328680
C18   C     C_R   0.741127 0.753648 0.928777 0.023370
C19   C     C_R   0.663844 0.667873 0.856309 -0.148063
C20   C     C_R   0.580914 0.582152 0.925404 0.154085
C21   C     C_R   0.581117 0.581733 0.074947 0.215100
C22   C     C_R   0.422936 0.422086 0.073855 -0.047894
C23   C     C_R   0.492357 0.737423 0.501359 0.827708
C24   C     C_R   0.423056 0.422032 0.925841 -0.033990
C25   C     C_R   0.740256 0.500031 0.499659 0.786873
C26   C     C_3   0.038218 0.503309 0.631302 0.028595
C27   C     C_3   0.951318 0.399680 0.568761 -0.302940
C28   C     C_3   0.876379 0.499776 0.498743 -0.009784
C29   C     C_3   0.960661 0.603321 0.563291 -0.216193
C30   C     C_3   0.045023 0.598727 0.432194 -0.000425
Cu1   Cu    Cu3+1 0.499990 0.499990 0.640660 0.948909
Cu2   Cu    Cu3+1 0.500010 0.500010 0.359340 0.979332
H1    H     H_    0.910321 0.317928 0.624834 0.139482
H2    H     H_    0.469245 0.904431 0.989734 0.147145
H3    H     H_    0.405307 0.799454 0.776506 0.187444
H4    H     H_    0.486587 0.887682 0.280546 0.173588
H5    H     H_    0.359790 0.358253 0.129115 0.166916
H6    H     H_    0.675285 0.671278 0.254396 0.207246
H7    H     H_    0.672194 0.672198 0.746339 0.226582
H8    H     H_    0.927944 0.687550 0.614936 0.189160
H9    H     H_    0.923568 0.494149 0.257052 0.153369
H10   H     H_    0.498775 0.109982 0.279346 0.163936
H11   H     H_    0.585112 0.107022 0.980889 0.127223
N1    N     N_R   0.501210 0.501210 0.147910 -0.200410
N2    N     N_R   0.501250 0.501290 0.852040 -0.199994
O1    O     O_R   0.499990 0.319640 0.618810 -0.601235
O2    O     O_R   0.500000 0.319660 0.381240 -0.571744
O3    O     O_R   0.316850 0.499960 0.618770 -0.581176
O4    O     O_R   0.316860 0.499980 0.381190 -0.526404
O5    O     O_R   0.500000 0.680340 0.618760 -0.620233
O6    O     O_R   0.500010 0.680360 0.381190 -0.587311
O7    O     O_R   0.683140 0.500020 0.618810 -0.610328
O8    O     O_R   0.683150 0.500040 0.381230 -0.615625
H12   H     H_    0.803184 0.814702 0.131472 0.144578
C31   C     C_2   0.819888 0.848908 0.855182 0.368353
H13   H     H_    0.887215 0.906986 0.913174 0.078765
O9    O     O_2   0.808757 0.865752 0.730017 -0.585031
H14   H     H_    0.360011 0.358159 0.870375 0.139317
C32   C     C_2   0.079888 0.507058 0.780321 0.386429
H15   H     H_    0.066836 0.425689 0.844930 0.047691
O10   O     O_2   0.131197 0.600549 0.828593 -0.535534
C33   C     C_2   0.091156 0.712056 0.355519 0.382948
H16   H     H_    0.023797 0.771267 0.308854 0.063801
O11   O     O_2   0.203302 0.738708 0.345326 -0.541150
C34   C     C_2   0.072450 0.281719 0.367170 0.336551
H17   H     H_    0.000111 0.219558 0.323475 0.071563
O12   O     O_2   0.182408 0.255678 0.358985 -0.555163
H18   H     H_    0.625130 0.208320 0.758549 0.153066

loop_
_geom_bond_atom_site_label_1
_geom_bond_atom_site_label_2
_ccdc_geom_bond_type
C17   C18   A    
C4    C26   S    
C31   H13   S    
Cu2   O6    S    
C33   H16   S    
C4    C12   S    
C21   N1    A    
C2    C28   S    
C9    C10   A    
C23   O6    A    
C19   C20   A    
C1    C11   S    
C2    C30   S    
Cu1   O7    S    
C12   O3    A    
C15   C23   S    
C12   O4    A    
Cu2   N1    S    
C25   O7    A    
C4    C30   S    
C32   H15   S    
C13   C14   A    
C27   H1    S    
C25   C28   S    
C11   C13   A    
C26   C27   S    
C3    C34   S    
C19   H7    S    
C18   C31   S    
C5    H18   S    
C5    C6    A    
C24   N2    A    
C29   H8    S    
C3    C27   S    
C28   C29   S    
C7    H2    S    
C25   O8    A    
C13   H10   S    
C2    C3    S    
C6    C7    A    
C6    H11   S    
C31   O9    D    
C30   C33   S    
C14   H4    S    
Cu1   O3    S    
Cu2   O4    S    
Cu2   O2    S    
C22   C24   A    
C1    O1    A    
C32   O10   D    
C16   C17   A    
C10   C11   A    
Cu1   O5    S    
C29   C30   S    
C3    C4    S    
Cu2   O8    S    
C7    C8    A    
C18   C19   A    
C20   C21   A    
C26   C29   S    
C24   H14   S    
C34   H17   S    
Cu1   N2    S    
C20   N2    A    
C27   C28   S    
C14   C15   A    
C1    O2    A    
C26   C32   S    
C33   O11   D    
C34   O12   D    
C2    H9    S    
C5    C10   A    
C9    C15   A    
C22   H5    S    
C16   C21   A    
C17   H12   S    
Cu1   O1    S    
C22   N1    A    
Cu1   Cu2   S    
C16   H6    S    
C8    C9    A    
C23   O5    A    
C8    H3    S    
