data_mof_unit_42212.cif
_audit_creation_date              2012-10-26T20:58:54-0400
_audit_creation_method            fapswitch 2.2
_symmetry_space_group_name_H-M    P1
_symmetry_Int_Tables_number       1
_space_group_crystal_system       triclinic
_cell_length_a                    27.773774
_cell_length_b                    10.606678
_cell_length_c                    9.455944
_cell_angle_alpha                 89.268411
_cell_angle_beta                  90.496316
_cell_angle_gamma                 90.021523
_cell_volume                      2785.27101599

loop_
_atom_site_label
_atom_site_type_symbol
_atom_type_description
_atom_site_fract_x
_atom_site_fract_y
_atom_site_fract_z
_atom_type_partial_charge
C1    C     C_R   0.500018 0.259907 0.500887 0.601836
C2    C     C_R   0.872523 0.476487 0.624295 -0.012646
C3    C     C_R   0.354950 0.497673 0.498605 0.006048
C4    C     C_R   0.645050 0.502262 0.501388 0.006054
C5    C     C_R   0.974583 0.469032 0.626965 0.061735
C6    C     C_R   0.025416 0.530501 0.372825 0.061739
C7    C     C_R   0.974452 0.545866 0.379028 -0.008633
C8    C     C_R   0.025548 0.453673 0.620760 -0.008626
C9    C     C_R   0.949205 0.508605 0.502700 -0.030591
C10   C     C_R   0.050794 0.490968 0.497102 -0.030587
C11   C     C_R   0.947936 0.452558 0.754401 0.219339
C12   C     C_R   0.499983 0.740093 0.499113 0.601823
C13   C     C_R   0.052066 0.546923 0.245385 0.219312
C14   C     C_R   0.897566 0.448586 0.749009 -0.093265
C15   C     C_R   0.102436 0.550977 0.250792 -0.093282
C16   C     C_R   0.407756 0.499779 0.499509 0.632062
C17   C     C_R   0.592244 0.500211 0.500491 0.632069
C18   C     C_R   0.052050 0.393610 0.730621 -0.083185
C19   C     C_R   0.947952 0.605895 0.269139 -0.083175
C20   C     C_3   0.500722 0.038432 0.638092 -0.176564
C21   C     C_3   0.499280 0.961571 0.361911 -0.176334
C22   C     C_3   0.539475 0.957580 0.565006 0.238211
C23   C     C_R   0.101994 0.485640 0.496789 -0.092731
C24   C     C_3   0.460525 0.042420 0.434998 0.238407
C25   C     C_3   0.500069 0.876438 0.496874 0.025600
C26   C     C_3   0.499932 0.123562 0.503129 0.025631
C27   C     C_3   0.461511 0.957441 0.566905 0.198817
C28   C     C_3   0.538490 0.042560 0.433101 0.198843
C29   C     C_3   0.520796 0.600213 0.048579 0.284812
C30   C     C_3   0.479204 0.399787 0.951421 0.284809
C31   C     C_3   0.477334 0.597321 0.948233 0.293054
C32   C     C_3   0.522665 0.402679 0.051767 0.293036
C33   C     C_3   0.543560 0.502806 0.952427 0.288278
C34   C     C_R   0.898006 0.513991 0.503032 -0.092716
C35   C     C_3   0.456440 0.497194 0.047573 0.288284
C36   C     C_R   0.178623 0.446074 0.615877 0.441592
C37   C     C_R   0.821375 0.553658 0.383989 0.441653
C38   C     C_R   0.177924 0.525646 0.379095 0.431180
C39   C     C_R   0.822076 0.474094 0.620775 0.431237
C40   C     C_R   0.278679 0.580271 0.581921 0.254623
C41   C     C_R   0.721303 0.419552 0.418085 0.254602
C42   C     C_R   0.329502 0.580067 0.586486 0.148879
C43   C     C_R   0.670481 0.419806 0.413536 0.148840
C44   C     C_R   0.330381 0.412242 0.410984 0.178074
C45   C     C_R   0.127831 0.441511 0.616898 0.025097
C46   C     C_R   0.669635 0.587703 0.588957 0.178040
C47   C     C_R   0.279688 0.405646 0.416221 0.256928
C48   C     C_R   0.720329 0.594259 0.583676 0.256918
C49   C     C_R   0.254073 0.491438 0.499131 0.182730
C50   C     C_R   0.745926 0.508408 0.500795 0.182766
C51   C     C_3   0.440700 0.790690 0.982690 -0.098596
C52   C     C_3   0.559300 0.209310 0.017305 -0.098505
C53   C     C_3   0.565820 0.780751 0.006631 -0.114666
C54   C     C_3   0.434181 0.219246 0.993375 -0.114653
C55   C     C_3   0.625580 0.490066 0.998460 -0.076616
C56   C     C_R   0.872169 0.558135 0.382927 0.025116
C57   C     C_3   0.374420 0.509924 0.001539 -0.076590
C58   C     C_3   0.250182 0.206467 0.415872 -0.130365
C59   C     C_3   0.749836 0.793433 0.583861 -0.130417
C60   C     C_3   0.127839 0.203110 0.826006 -0.079903
C61   C     C_3   0.872180 0.796354 0.173497 -0.079849
C62   C     C_3   0.754633 0.224655 0.417398 -0.124159
C63   C     C_3   0.245278 0.775082 0.582686 -0.124057
C64   C     C_3   0.606428 0.995308 0.702788 -0.107883
C65   C     C_3   0.393546 0.004680 0.297330 -0.107749
C66   C     C_R   0.102198 0.388849 0.730957 0.259738
C67   C     C_R   0.897805 0.610700 0.268815 0.259727
C68   C     C_R   0.127477 0.523166 0.375538 -0.012665
Cu1   Cu    Cu3+1 0.500010 0.499990 0.643150 1.149842
Cu2   Cu    Cu3+1 0.499990 0.500010 0.356850 1.149855
H1    H     H_    0.500646 0.071070 0.749135 0.132188
H2    H     H_    0.596566 0.018144 0.329208 0.327889
H3    H     H_    0.470730 0.858831 0.993422 0.118564
H4    H     H_    0.431287 0.750772 0.088449 0.121187
H5    H     H_    0.408917 0.844259 0.943285 0.141539
H6    H     H_    0.568708 0.249228 0.911542 0.121136
H7    H     H_    0.529271 0.141163 0.006582 0.118582
H8    H     H_    0.591086 0.155748 0.056704 0.141664
H9    H     H_    0.546689 0.783593 0.902635 0.183288
H10   H     H_    0.603098 0.746250 0.992228 0.157358
H11   H     H_    0.568283 0.879165 0.044403 0.102044
H12   H     H_    0.499357 0.928936 0.250866 0.132258
H13   H     H_    0.396902 0.253740 0.007771 0.157352
H14   H     H_    0.453311 0.216414 0.097373 0.183333
H15   H     H_    0.431722 0.120829 0.955610 0.101915
H16   H     H_    0.632148 0.387952 0.015604 0.154256
H17   H     H_    0.616841 0.535293 0.100701 0.164957
H18   H     H_    0.659757 0.532250 0.960678 0.164367
H19   H     H_    0.383160 0.464696 0.899300 0.164993
H20   H     H_    0.367849 0.612037 0.984391 0.154281
H21   H     H_    0.340244 0.467734 0.039323 0.164388
H22   H     H_    0.286004 0.165657 0.443801 0.126163
H23   H     H_    0.877866 0.429671 0.845413 0.173480
H24   H     H_    0.230651 0.136251 0.351048 0.139914
H25   H     H_    0.228839 0.221590 0.513219 0.133938
H26   H     H_    0.769498 0.863564 0.648462 0.139916
H27   H     H_    0.714005 0.834398 0.556336 0.126175
H28   H     H_    0.771042 0.778221 0.486268 0.133925
H29   H     H_    0.146963 0.179693 0.726660 0.112209
H30   H     H_    0.091262 0.160275 0.825990 0.094587
H31   H     H_    0.148461 0.160100 0.915258 0.162822
H32   H     H_    0.908763 0.839159 0.173530 0.094530
H33   H     H_    0.853036 0.819895 0.272767 0.112333
H34   H     H_    0.122137 0.569880 0.154386 0.173476
H35   H     H_    0.851585 0.839277 0.084141 0.162855
H36   H     H_    0.666867 0.292677 0.265761 0.358420
H37   H     H_    0.333088 0.707210 0.734255 0.358451
H38   H     H_    0.719887 0.179068 0.446163 0.122825
H39   H     H_    0.776423 0.242868 0.514278 0.141091
H40   H     H_    0.774998 0.157064 0.352309 0.138561
H41   H     H_    0.223290 0.756870 0.486195 0.141138
H42   H     H_    0.279996 0.820494 0.553278 0.122702
H43   H     H_    0.225090 0.842829 0.648042 0.138526
H44   H     H_    0.946916 0.442995 0.961467 0.353565
H45   H     H_    0.034877 0.343016 0.815655 0.199975
H46   H     H_    0.053094 0.556198 0.038310 0.353604
H47   H     H_    0.586294 0.021229 0.799137 0.077476
H48   H     H_    0.614190 0.080643 0.637132 0.156329
H49   H     H_    0.641462 0.955062 0.737841 0.134970
H50   H     H_    0.385724 0.919484 0.363147 0.156564
H51   H     H_    0.413685 0.978523 0.201071 0.077401
H52   H     H_    0.358542 0.045001 0.262130 0.134904
H53   H     H_    0.965129 0.656417 0.184053 0.199985
H54   H     H_    0.335152 0.287151 0.261636 0.353166
H55   H     H_    0.664893 0.712813 0.738289 0.353161
H56   H     H_    0.403577 0.981786 0.671504 0.327795
N1    N     N_R   0.202341 0.488659 0.498503 -0.368665
N2    N     N_R   0.797657 0.511127 0.501391 -0.368558
N3    N     N_3   0.500040 0.499970 0.858290 -0.267760
N4    N     N_3   0.499960 0.500030 0.141710 -0.267758
O1    O     O_R   0.500020 0.316850 0.620870 -0.507556
O2    O     O_2   0.795694 0.591498 0.269373 -0.422793
O3    O     O_2   0.797502 0.434245 0.735545 -0.471678
O4    O     O_2   0.202497 0.565531 0.264343 -0.471598
O5    O     O_3   0.356932 0.333599 0.325948 -0.633530
O6    O     O_3   0.643101 0.666394 0.673982 -0.633582
O7    O     O_3   0.420938 0.907877 0.634137 -0.647739
O8    O     O_3   0.579063 0.092116 0.365868 -0.647746
O9    O     O_3   0.452151 0.698132 0.882511 -0.501478
O10   O     O_3   0.547849 0.301866 0.117486 -0.501446
O11   O     O_3   0.542088 0.707420 0.110407 -0.572228
O12   O     O_R   0.499980 0.683150 0.379130 -0.507547
O13   O     O_3   0.457912 0.292578 0.889597 -0.572243
O14   O     O_3   0.589959 0.509027 0.893023 -0.538621
O15   O     O_3   0.410041 0.490975 0.106978 -0.538616
O16   O     O_3   0.254708 0.318925 0.335863 -0.536061
O17   O     O_3   0.745331 0.681007 0.663939 -0.536085
O18   O     O_3   0.125665 0.334544 0.846062 -0.507453
O19   O     O_3   0.874340 0.664893 0.153641 -0.507425
O20   O     O_3   0.644691 0.338109 0.328684 -0.648148
O21   O     O_3   0.355276 0.661768 0.671376 -0.648188
O22   O     O_3   0.747254 0.336171 0.337287 -0.537699
O23   O     O_R   0.500000 0.316860 0.379090 -0.424234
O24   O     O_3   0.252719 0.663585 0.662781 -0.537690
O25   O     O_3   0.970825 0.452324 0.884706 -0.691632
O26   O     O_3   0.029179 0.547018 0.115078 -0.691589
O27   O     O_3   0.581228 0.903202 0.625882 -0.529284
O28   O     O_3   0.418778 0.096814 0.374101 -0.529204
O29   O     O_R   0.500000 0.683140 0.620910 -0.424260
O30   O     O_R   0.430270 0.500020 0.620880 -0.455631
O31   O     O_R   0.569730 0.499980 0.379120 -0.455652
O32   O     O_R   0.430250 0.500030 0.379090 -0.434321
O33   O     O_R   0.569750 0.499970 0.620910 -0.434333
O34   O     O_2   0.204301 0.408255 0.730508 -0.422668

loop_
_geom_bond_atom_site_label_1
_geom_bond_atom_site_label_2
_ccdc_geom_bond_type
H56   O7    S    
C34   C56   A    
C23   C45   A    
C57   O15   S    
C16   O30   A    
Cu2   O23   S    
H44   O25   S    
C51   H4    S    
C60   H29   S    
C32   N4    S    
C38   N1    A    
C3    C42   A    
C41   O22   S    
C4    C46   A    
C19   H53   S    
C27   O7    S    
C64   H49   S    
C57   H19   S    
C30   C35   S    
H36   O20   S    
H2    O8    S    
C61   H33   S    
C51   H5    S    
C32   O10   S    
C11   C14   A    
C24   O28   S    
C62   H38   S    
C40   C49   A    
C48   O17   S    
C29   C33   S    
Cu2   N4    S    
Cu1   O30   S    
C64   H48   S    
C53   H11   S    
C35   O15   S    
C63   H42   S    
C17   O33   A    
Cu1   O29   S    
C37   C56   A    
C2    C39   A    
C22   C25   S    
C64   O27   S    
C24   C27   S    
C20   H1    S    
C19   C67   A    
C31   N3    S    
C55   O14   S    
C65   H51   S    
C15   H34   S    
C61   H35   S    
C14   H23   S    
C66   O18   S    
C44   C47   A    
C11   O25   S    
C17   O31   A    
C37   N2    A    
H37   O21   S    
C2    C34   A    
C44   O5    S    
C48   C50   A    
C54   O13   S    
C47   O16   S    
C22   C28   S    
C63   H41   S    
C41   C43   A    
C40   O24   S    
C52   H8    S    
Cu2   O32   S    
C54   H14   S    
C54   H13   S    
C22   O27   S    
C33   O14   S    
C49   N1    S    
C46   C48   A    
C3    C44   A    
Cu2   O12   S    
C57   H20   S    
C51   H3    S    
C53   H10   S    
C28   O8    S    
C47   C49   A    
C16   O32   A    
C8    C18   A    
C30   O13   S    
C23   C68   A    
C58   H25   S    
C13   O26   S    
C5    C9    A    
C54   H15   S    
C29   N4    S    
C62   H40   S    
Cu1   O1    S    
C29   O11   S    
C36   C45   A    
C65   H52   S    
C1    O23   A    
C42   O21   S    
C35   N4    S    
C43   O20   S    
C62   O22   S    
C4    C17   S    
H55   O6    S    
C8    C10   A    
C4    C43   A    
C21   C28   S    
C38   C68   A    
C7    C19   A    
C13   C15   A    
C52   H6    S    
C9    C34   A    
C59   H27   S    
C31   C35   S    
C36   N1    A    
C50   N2    S    
C59   H26   S    
C31   O9    S    
C52   H7    S    
C30   N3    S    
Cu2   O31   S    
C41   C50   A    
C39   O3    S    
C33   N3    S    
C7    C9    A    
C21   C25   S    
C39   N2    A    
C57   H21   S    
H54   O5    S    
C53   H9    S    
Cu1   O33   S    
C63   O24   S    
C20   C22   S    
C65   O28   S    
C60   H30   S    
C18   H45   S    
C6    C10   A    
C5    C8    A    
C58   O16   S    
C5    C11   A    
C6    C7    A    
C20   C27   S    
C10   C23   A    
C18   C66   A    
C56   C67   A    
C26   C28   S    
C37   O2    S    
C67   O19   S    
C12   C25   S    
C32   C33   S    
C55   H16   S    
C61   H32   S    
C58   H24   S    
C29   C31   S    
C6    C13   A    
C30   C32   S    
C24   C26   S    
C1    C26   S    
C62   H39   S    
C20   C26   S    
C1    O1    A    
C15   C68   A    
C40   C42   A    
C52   O10   S    
C65   H50   S    
C12   O12   A    
C55   H18   S    
C53   O11   S    
C38   O4    S    
C12   O29   A    
C55   H17   S    
Cu1   Cu2   S    
C2    C14   A    
H46   O26   S    
C64   H47   S    
C46   O6    S    
C63   H43   S    
C21   H12   S    
Cu1   N3    S    
C21   C24   S    
C45   C66   A    
C36   O34   S    
C59   H28   S    
C58   H22   S    
C60   O18   S    
C61   O19   S    
C3    C16   S    
C60   H31   S    
C59   O17   S    
C25   C27   S    
C51   O9    S    
