data_mof_unit_19825.cif
_audit_creation_date              2012-12-11T16:30:21-0500
_audit_creation_method            fapswitch 2.2
_symmetry_space_group_name_H-M    P1
_symmetry_Int_Tables_number       1
_space_group_crystal_system       triclinic
_cell_length_a                    8.391033
_cell_length_b                    17.682995
_cell_length_c                    22.975217
_cell_angle_alpha                 96.511852
_cell_angle_beta                  88.867036
_cell_angle_gamma                 97.76047
_cell_volume                      3355.98128334

loop_
_atom_site_label
_atom_site_type_symbol
_atom_type_description
_atom_site_fract_x
_atom_site_fract_y
_atom_site_fract_z
_atom_type_partial_charge
Ba1   Ba    Ba6+2 0.852790 0.535910 0.472200 1.871922
Ba2   Ba    Ba6+2 0.337030 0.464150 0.527810 1.848953
C1    C     C_3   0.697901 0.742840 0.217423 0.190796
C2    C     C_R   0.112460 0.570629 0.940601 -0.070863
C3    C     C_R   0.067476 0.566302 0.880775 0.660892
C4    C     C_3   0.223724 0.733083 0.318209 0.471180
C5    C     C_R   0.883420 0.453355 0.891909 0.708325
C6    C     C_R   0.934480 0.451976 0.950672 -0.102583
C7    C     C_R   0.050430 0.512402 0.975106 -0.088383
C8    C     C_R   0.219193 0.632677 0.966350 -0.061241
C9    C     C_R   0.266358 0.638836 0.025249 0.344513
C10   C     C_R   0.209602 0.578671 0.060628 -0.092212
C11   C     C_R   0.102675 0.515410 0.034467 -0.077048
C12   C     C_3   0.667288 0.724705 0.280678 0.053896
C13   C     C_R   0.874279 0.392558 0.986300 0.409822
C14   C     C_R   0.935319 0.394352 0.042790 -0.070362
C15   C     C_R   0.047709 0.454618 0.067478 -0.073189
C16   C     C_3   0.211941 0.753951 0.255827 0.749099
C17   C     C_R   0.104694 0.454423 0.125009 0.652871
C18   C     C_R   0.253040 0.579134 0.120881 0.635725
C19   C     C_2   0.775437 0.468043 0.770633 0.040288
C20   C     C_3   0.760343 0.427972 0.709149 -0.076935
C21   C     C_1   0.015173 0.508791 0.687633 0.059404
C22   C     C_2   0.052464 0.516438 0.745116 -0.017521
C23   C     C_3   0.480891 0.355537 0.350632 0.402918
C24   C     C_2   0.923768 0.497777 0.791637 0.277032
C25   C     C_R   0.406454 0.547756 0.233372 -0.195289
C26   C     C_R   0.446981 0.557002 0.293073 -0.238782
C27   C     C_R   0.183467 0.493543 0.316844 0.044397
C28   C     C_3   0.205053 0.697109 0.594132 0.468574
C29   C     C_R   0.137901 0.490197 0.257506 -0.106454
C30   C     C_R   0.247780 0.519201 0.214587 0.222825
C31   C     C_2   0.891817 0.457907 0.668040 -0.141092
C32   C     C_R   0.421235 0.719602 0.473657 -0.312587
C33   C     C_R   0.565303 0.745902 0.503876 0.041981
C34   C     C_3   0.439394 0.333876 0.285894 0.360047
C35   C     C_R   0.621493 0.827260 0.510338 0.302138
C36   C     C_R   0.530697 0.877289 0.484972 -0.061840
C37   C     C_R   0.384018 0.848809 0.457638 -0.084063
C38   C     C_R   0.327385 0.770651 0.453406 -0.079984
C39   C     C_R   0.584545 0.158930 0.474840 0.289892
C40   C     C_3   0.252617 0.783990 0.606949 0.255486
C41   C     C_R   0.625249 0.239826 0.488075 0.021513
C42   C     C_R   0.862976 0.220990 0.540255 -0.022795
C43   C     C_R   0.823581 0.141258 0.528104 -0.113347
C44   C     C_R   0.680475 0.110027 0.498593 -0.063872
C45   C     C_3   0.084118 0.275209 0.682081 0.392029
C46   C     C_1   0.631715 0.027573 0.492999 0.250915
C47   C     C_1   0.584410 0.959375 0.488704 0.167098
C48   C     C_R   0.754530 0.268843 0.525379 0.098853
C49   C     C_3   0.004536 0.288336 0.383375 0.620502
C50   C     C_3   0.985812 0.206861 0.352316 -0.150323
C51   C     C_3   0.753440 0.708427 0.656385 0.639970
C52   C     C_3   0.784241 0.784180 0.697816 0.307896
C53   C     C_3   0.115596 0.236253 0.736064 0.677376
C54   C     C_3   0.578056 0.260949 0.698711 0.592305
C55   C     C_3   0.606230 0.256335 0.763584 -0.198758
C56   C     C_R   0.332475 0.532947 0.334581 0.159199
H1    H     H_    0.381990 0.796772 0.618634 0.094731
H2    H     H_    0.893001 0.783095 0.724333 0.076716
H3    H     H_    0.537496 0.704455 0.285147 0.776902
H4    H     H_    0.600508 0.773329 0.203279 0.122985
H5    H     H_    0.371605 0.373523 0.372996 -0.223760
H6    H     H_    0.580140 0.404154 0.355010 0.020826
H7    H     H_    0.334411 0.288117 0.281474 0.059761
H8    H     H_    0.406148 0.384758 0.267300 -0.075560
H9    H     H_    0.313739 0.732327 0.230584 -0.131602
H10   H     H_    0.166653 0.329876 0.681832 0.026081
H11   H     H_    0.958371 0.288011 0.683296 -0.060954
H12   H     H_    0.234989 0.811652 0.566958 0.004362
H13   H     H_    0.234728 0.216178 0.731735 0.074110
H14   H     H_    0.693040 0.281024 0.677302 -0.098288
H15   H     H_    0.701273 0.219729 0.768926 0.176300
H16   H     H_    0.494022 0.232221 0.785040 0.149842
H17   H     H_    0.222010 0.669898 0.315818 -0.188538
H18   H     H_    0.644178 0.314422 0.786035 0.133603
H19   H     H_    0.891459 0.348496 0.068792 0.176992
H20   H     H_    0.498785 0.562338 0.201657 0.188989
H21   H     H_    0.265826 0.677690 0.939960 0.189951
H22   H     H_    0.177149 0.532298 0.758034 0.153209
H23   H     H_    0.097559 0.294577 0.418004 -0.011461
H24   H     H_    0.670534 0.462488 0.798815 0.132296
H25   H     H_    0.017608 0.464326 0.245154 0.177626
H26   H     H_    0.339987 0.761961 0.336780 -0.171507
H27   H     H_    0.889211 0.433600 0.623134 0.110139
H28   H     H_    0.311997 0.887705 0.440575 0.164246
H29   H     H_    0.903529 0.103624 0.542119 0.186274
H30   H     H_    0.374059 0.659409 0.470557 0.123702
H31   H     H_    0.307492 0.671566 0.572721 -0.153709
H32   H     H_    0.101555 0.686452 0.563790 0.000352
H33   H     H_    0.608226 0.913576 0.356073 0.385516
H34   H     H_    0.891147 0.199879 0.318293 0.195988
H35   H     H_    0.195793 0.870384 0.658312 0.360730
H36   H     H_    0.875852 0.347056 0.435184 0.251583
H37   H     H_    0.590502 0.551008 0.627635 0.371339
H38   H     H_    0.364901 0.779403 0.750687 0.395192
H39   H     H_    0.662713 0.285163 0.152057 0.388737
H40   H     H_    0.768380 0.687981 0.145796 0.355281
H41   H     H_    0.137817 0.296489 0.893495 0.390035
H42   H     H_    0.035951 0.141808 0.768547 0.359476
H43   H     H_    0.448249 0.223982 0.590739 0.313058
H44   H     H_    0.692500 0.224819 0.890534 0.381408
H45   H     H_    0.949399 0.164797 0.384128 0.044271
H46   H     H_    0.212082 0.780667 0.094247 0.340492
H47   H     H_    0.424549 0.503315 0.401747 0.300894
H48   H     H_    0.200382 0.162585 0.424137 0.344631
H49   H     H_    0.900016 0.905476 0.467882 0.362368
H50   H     H_    0.874755 0.368811 0.528407 0.287195
H51   H     H_    0.078476 0.718035 0.187879 0.316301
H52   H     H_    0.100897 0.933492 0.212268 0.394023
H53   H     H_    0.100038 0.194719 0.330358 0.115473
H54   H     H_    0.866275 0.701134 0.631915 -0.030712
H55   H     H_    0.813450 0.781154 0.214365 0.231754
H56   H     H_    0.812071 0.833159 0.672086 0.114933
N1    N     N_R   0.957873 0.506398 0.855641 -0.430966
N2    N     N_R   0.201305 0.517477 0.152618 -0.424226
O1    O     O_2   0.894270 0.458150 0.360790 -0.424482
O2    O     O_2   0.184103 0.229145 0.525939 -0.445342
O3    O     O_3   0.111572 0.224723 0.632656 -0.545491
O4    O     O_3   0.134750 0.458940 0.431830 -0.492694
O5    O     O_3   0.566070 0.591710 0.528970 -0.481056
O6    O     O_2   0.362610 0.313970 0.472520 -0.448765
O7    O     O_3   0.526638 0.292095 0.374350 -0.528070
O8    O     O_2   0.430768 0.455092 0.709212 -0.415042
O9    O     O_3   0.458360 0.308718 0.692844 -0.640860
O10   O     O_2   0.124044 0.617095 0.851540 -0.530222
O11   O     O_2   0.771938 0.406617 0.873064 -0.504910
O12   O     O_3   0.622020 0.707329 0.619615 -0.648342
O13   O     O_2   0.069835 0.397053 0.150118 -0.545203
O14   O     O_2   0.335894 0.634889 0.145345 -0.533516
O15   O     O_3   0.663190 0.596710 0.395570 -0.436476
O16   O     O_2   0.753445 0.524590 0.295355 -0.430341
O17   O     O_3   0.048410 0.338367 0.341399 -0.618618
O18   O     O_3   0.767383 0.670969 0.293873 -0.483514
O19   O     O_2   0.827090 0.686050 0.527520 -0.452654
O20   O     O_3   0.077580 0.635890 0.424230 -0.465482
O21   O     O_2   0.994524 0.771690 0.460636 -0.392493
O22   O     O_2   0.721577 0.786658 0.390786 -0.336021
O23   O     O_3   0.094589 0.755481 0.352782 -0.474042
O24   O     O_2   0.873394 0.852691 0.315441 -0.172655
O25   O     O_3   0.571684 0.867934 0.328139 -0.519312
O26   O     O_3   0.158860 0.814332 0.652615 -0.674822
O27   O     O_3   0.856168 0.300737 0.406775 -0.762142
O28   O     O_2   0.839101 0.630222 0.739797 -0.340796
O29   O     O_2   0.548922 0.628521 0.727750 -0.205823
O30   O     O_3   0.698461 0.554916 0.644770 -0.615281
O31   O     O_2   0.646668 0.773187 0.803943 -0.183367
O32   O     O_2   0.629666 0.890983 0.759095 -0.204978
O33   O     O_3   0.443307 0.767614 0.719284 -0.462893
O34   O     O_2   0.295430 0.541870 0.639250 -0.457005
O35   O     O_2   0.755775 0.354330 0.258626 -0.280081
O36   O     O_2   0.623760 0.221573 0.257967 -0.213461
O37   O     O_3   0.563269 0.298030 0.172566 -0.455094
O38   O     O_3   0.701510 0.674587 0.180191 -0.696524
O39   O     O_2   0.250203 0.367756 0.797358 -0.321094
O40   O     O_2   0.958798 0.331145 0.804426 -0.329392
O41   O     O_3   0.144641 0.257069 0.859593 -0.443761
O42   O     O_3   0.995707 0.173734 0.740660 -0.661140
O43   O     O_2   0.665137 0.128048 0.648212 -0.244896
O44   O     O_2   0.409768 0.118494 0.701244 -0.229006
O45   O     O_3   0.054960 0.541130 0.568170 -0.516772
O46   O     O_3   0.419593 0.170588 0.600124 -0.441932
O47   O     O_2   0.693165 0.260493 0.010891 -0.242123
O48   O     O_2   0.570185 0.342998 0.951557 -0.226848
O49   O     O_3   0.786287 0.263074 0.903081 -0.418450
O50   O     O_2   0.555304 0.699822 0.068389 -0.216577
O51   O     O_2   0.434349 0.775171 0.003058 -0.215952
O52   O     O_3   0.318508 0.771894 0.107996 -0.422542
O53   O     O_3   0.367425 0.546183 0.393064 -0.724838
O54   O     O_2   0.489002 0.072457 0.375521 -0.221306
O55   O     O_2   0.316138 0.057883 0.461140 -0.280552
O56   O     O_3   0.526510 0.403350 0.604440 -0.421188
O57   O     O_3   0.306671 0.176314 0.406109 -0.502215
O58   O     O_2   0.739766 0.922782 0.602117 -0.240765
O59   O     O_2   0.901503 0.820661 0.571791 -0.309143
O60   O     O_3   0.911091 0.931486 0.508358 -0.470718
O61   O     O_3   0.774752 0.345175 0.545934 -0.746530
O62   O     O_3   0.066436 0.717824 0.230913 -0.678282
O63   O     O_2   0.222262 0.898366 0.313055 -0.211384
O64   O     O_2   0.390507 0.881966 0.225399 -0.212818
O65   O     O_3   0.083782 0.876821 0.211167 -0.480763
O66   O     O_3   0.164166 0.664477 0.646168 -0.560040
O67   O     O_3   0.623640 0.408350 0.471030 -0.457142
O68   O     O_3   0.112120 0.364170 0.575770 -0.532224
P1    P     P_3+3 0.063260 0.435680 0.369690 1.056875
P2    P     P_3+3 0.650710 0.674870 0.544690 1.070216
P3    P     P_3+3 0.125164 0.734599 0.423969 1.103652
P4    P     P_3+3 0.126450 0.564380 0.630310 1.087323
P5    P     P_3+3 0.063379 0.262700 0.569433 1.005076
P6    P     P_3+3 0.655132 0.589324 0.318543 1.007084
P7    P     P_3+3 0.538624 0.312261 0.450752 1.142773
P8    P     P_3+3 0.547194 0.401213 0.679699 1.059912
S1    S     S_3+6 0.713665 0.809958 0.330385 -0.091473
S2    S     S_3+6 0.796395 0.873305 0.550376 -0.046147
S3    S     S_3+6 0.231212 0.856041 0.252740 0.053801
S4    S     S_3+6 0.707950 0.629592 0.696394 -0.066101
S5    S     S_3+6 0.623718 0.805299 0.747305 0.056569
S6    S     S_3+6 0.603558 0.300811 0.244227 0.010519
S7    S     S_3+6 0.117948 0.301984 0.800551 -0.087831
S8    S     S_3+6 0.517568 0.166245 0.662452 -0.008461
S9    S     S_3+6 0.724480 0.313402 0.963900 0.021762
S10   S     S_3+6 0.399469 0.722953 0.050356 0.026365
S11   S     S_3+6 0.421412 0.115080 0.428631 -0.014148

loop_
_geom_bond_atom_site_label_1
_geom_bond_atom_site_label_2
_ccdc_geom_bond_type
Ba2   O34   S    
C19   C24   D    
H40   O38   S    
C50   H45   S    
C17   O13   D    
C28   O66   S    
C28   H32   S    
C25   H20   S    
O4    P1    S    
Ba1   O67   S    
C4    H17   S    
O44   S8    D    
C36   C47   S    
C52   H2    S    
C43   C44   A    
O56   P8    S    
C26   C56   A    
O33   S5    S    
C49   O17   S    
C52   S5    S    
H47   O53   S    
O31   S5    D    
C32   C38   A    
H36   O27   S    
C55   H18   S    
H43   O46   S    
C33   C35   A    
C34   S6    S    
Ba1   Ba2   S    
O45   P4    S    
O50   S10   D    
C36   C37   A    
O2    P5    D    
C34   H8    S    
O32   S5    D    
Ba2   O5    S    
H49   O60   S    
C5    N1    Am   
C13   C14   A    
O46   S8    S    
C40   H12   S    
C29   H25   S    
C54   C55   S    
C32   C33   A    
C23   H5    S    
O51   S10   D    
C55   H15   S    
C4    O23   S    
C31   H27   S    
C24   N1    S    
C45   H11   S    
O29   S4    D    
C7    C11   A    
O5    P2    S    
H51   O62   S    
C22   H22   S    
C53   O42   S    
C53   S7    S    
H52   O65   S    
O52   S10   S    
C14   C15   A    
C21   C31   D    
C3    O10   D    
C40   O26   S    
C21   C22   D    
H39   O37   S    
C39   S11   S    
Ba1   O20   S    
O24   S1    D    
C49   H23   S    
O19   P2    D    
O17   P1    S    
O7    P7    S    
C45   O3    S    
C25   C30   A    
C41   P7    S    
C19   C20   S    
C3    N1    Am   
C39   C41   A    
O35   S6    D    
C10   C18   A    
H37   O30   S    
C28   H31   S    
O23   P3    S    
Ba2   O45   S    
C13   S9    S    
Ba2   P4    S    
Ba2   O6    S    
C4    C16   S    
C44   C46   S    
C4    H26   S    
C49   C50   S    
O6    P7    D    
C56   O53   S    
C1    H55   S    
C18   O14   D    
C37   C38   A    
C38   P3    S    
Ba2   O4    S    
C34   H7    S    
C6    C7    A    
O63   S3    D    
O37   S6    S    
C12   O18   S    
C50   H53   S    
C54   H14   S    
C16   H9    S    
C51   C52   S    
C12   H3    S    
C1    O38   S    
C26   P6    S    
O41   S7    S    
C9    S10   S    
C55   H16   S    
C35   C36   A    
C18   N2    Am   
C51   O12   S    
C42   P5    S    
H46   O52   S    
C29   C30   A    
C39   C44   A    
C48   O61   S    
O36   S6    D    
O66   P4    S    
C54   O9    S    
C30   N2    S    
C54   S8    S    
C23   O7    S    
O54   S11   D    
O64   S3    D    
C21   P4    S    
C51   H54   S    
O43   S8    D    
C12   S1    S    
O58   S2    D    
C6    C13   A    
C49   O27   S    
C8    C9    A    
H41   O41   S    
O20   P3    S    
O12   P2    S    
C50   H34   S    
O40   S7    D    
C20   P8    S    
O16   P6    D    
C45   H10   S    
O8    P8    D    
O39   S7    D    
C27   C56   A    
C45   C53   S    
C1    H4    S    
C42   C48   A    
C20   C31   S    
O47   S9    D    
O59   S2    D    
C43   H29   S    
C16   S3    S    
C28   C40   S    
C42   C43   A    
O3    P5    S    
C2    C8    A    
O49   S9    S    
C2    C3    A    
Ba1   O15   S    
O67   P7    S    
C40   H1    S    
C8    H21   S    
C41   C48   A    
O28   S4    D    
C1    C12   S    
O22   S1    D    
Ba1   O4    S    
C11   C15   A    
O57   S11   S    
C5    O11   D    
Ba1   P1    S    
O18   P6    S    
C27   C29   A    
O1    P1    D    
C35   S2    S    
O34   P4    D    
C19   H24   S    
O15   P6    S    
C22   C24   S    
Ba1   P2    S    
O25   S1    S    
C17   N2    Am   
C33   P2    S    
C46   C47   T    
H38   O33   S    
C52   H56   S    
H44   O49   S    
C15   C17   A    
H48   O57   S    
C27   P1    S    
H50   O61   S    
Ba2   O68   S    
O9    P8    S    
Ba2   O67   S    
O55   S11   D    
O65   S3    S    
Ba1   O5    S    
C5    C6    A    
O48   S9    D    
C23   C34   S    
Ba1   O45   S    
C32   H30   S    
H42   O42   S    
O21   P3    D    
C10   C11   A    
C16   O62   S    
Ba1   O19   S    
C25   C26   A    
C51   S4    S    
O68   P5    S    
C14   H19   S    
C37   H28   S    
O60   S2    S    
C2    C7    A    
Ba1   O1    S    
O30   S4    S    
C23   H6    S    
C53   H13   S    
H35   O26   S    
C9    C10   A    
Ba2   O56   S    
H33   O25   S    
