data_mof_unit_46035.cif
_audit_creation_date              2012-12-10T16:59:21-0500
_audit_creation_method            fapswitch 2.2
_symmetry_space_group_name_H-M    P1
_symmetry_Int_Tables_number       1
_space_group_crystal_system       triclinic
_cell_length_a                    7.781093
_cell_length_b                    8.540962
_cell_length_c                    27.65525
_cell_angle_alpha                 91.094479
_cell_angle_beta                  85.940357
_cell_angle_gamma                 93.434222
_cell_volume                      1829.80561812

loop_
_atom_site_label
_atom_site_type_symbol
_atom_type_description
_atom_site_fract_x
_atom_site_fract_y
_atom_site_fract_z
_atom_type_partial_charge
C1    C     C_R   0.545652 0.794646 0.498906 0.936007
C2    C     C_R   0.608114 0.597495 0.127068 -0.085469
C3    C     C_R   0.514048 0.500516 0.646769 -0.147315
C4    C     C_R   0.490235 0.491463 0.353388 -0.145873
C5    C     C_R   0.640462 0.589521 0.024002 -0.011434
C6    C     C_R   0.478581 0.329705 0.973736 -0.012411
C7    C     C_R   0.446260 0.349560 0.024572 0.064145
C8    C     C_R   0.667751 0.572077 0.972774 0.064684
C9    C     C_R   0.535994 0.472510 0.049702 0.067796
C10   C     C_R   0.576543 0.449558 0.947917 0.067592
C11   C     C_R   0.701618 0.724672 0.050489 -0.058641
C12   C     C_R   0.454640 0.205536 0.501485 0.949824
C13   C     C_R   0.424179 0.191786 0.947608 -0.063851
C14   C     C_R   0.697623 0.722883 0.101443 -0.047540
C15   C     C_R   0.425647 0.192935 0.896648 -0.049719
C16   C     C_R   0.502995 0.500515 0.594010 0.884348
C17   C     C_R   0.497161 0.498957 0.406086 0.883167
C18   C     C_R   0.791534 0.667146 0.945282 -0.198108
C19   C     C_R   0.315150 0.258583 0.050719 -0.198555
C20   C     C_2   0.570233 0.958172 0.498406 -0.383709
C21   C     C_2   0.431141 0.042407 0.502868 -0.384866
C22   C     C_R   0.666232 0.580802 0.821316 0.522326
C23   C     C_R   0.584913 0.447265 0.896629 -0.063199
C24   C     C_R   0.392746 0.369990 0.176837 0.526918
C25   C     C_R   0.491158 0.341779 0.820300 0.520872
C26   C     C_R   0.598797 0.588119 0.178174 0.525769
C27   C     C_R   0.385457 0.486988 0.729084 -0.208031
C28   C     C_R   0.355314 0.546852 0.279743 -0.231654
C29   C     C_R   0.365634 0.484063 0.679116 0.493876
C30   C     C_R   0.359214 0.561932 0.330109 0.479769
C31   C     C_R   0.678659 0.509380 0.664983 -0.302226
C32   C     C_R   0.617161 0.412091 0.325790 -0.303510
C33   C     C_R   0.696475 0.499337 0.714249 -0.121176
C34   C     C_R   0.516081 0.480069 0.100999 -0.061694
C35   C     C_R   0.615610 0.403551 0.275722 -0.088670
C36   C     C_R   0.550242 0.488355 0.746547 0.256359
C37   C     C_R   0.485443 0.471711 0.252800 0.263728
C38   C     C_3   0.950515 0.315116 0.418323 0.206854
C39   C     C_3   0.052977 0.200437 0.387002 -0.903665
C40   C     C_3   0.042860 0.766310 0.554987 0.216059
C41   C     C_3   0.926600 0.864037 0.588482 -0.882906
C42   C     C_3   0.248568 0.801972 0.347576 0.102078
C43   C     C_3   0.360569 0.885834 0.384190 -0.846714
C44   C     C_3   0.127583 0.313401 0.672494 0.116019
C45   C     C_R   0.680431 0.568190 0.870985 -0.015029
C46   C     C_3   0.216462 0.184835 0.642573 -0.854207
C47   C     C_1   0.776250 0.857130 0.126595 0.295850
C48   C     C_1   0.359581 0.053051 0.871614 0.307728
C49   C     C_1   0.744611 0.875064 0.027417 0.167370
C50   C     C_1   0.388572 0.041696 0.971436 0.168669
C51   C     C_R   0.402753 0.369569 0.126305 -0.016280
C52   C     C_R   0.790825 0.671848 0.895335 -0.137807
C53   C     C_R   0.297761 0.264423 0.100778 -0.136797
C54   C     C_R   0.497370 0.326134 0.870974 -0.081600
H1    H     H_    0.794904 0.520459 0.641063 0.233275
H2    H     H_    0.220041 0.185277 0.033008 0.163178
H3    H     H_    0.702083 0.008644 0.494087 0.187218
H4    H     H_    0.299762 0.992399 0.507138 0.160135
H5    H     H_    0.941995 0.423039 0.396940 0.181610
H6    H     H_    0.821631 0.257195 0.427619 0.165271
H7    H     H_    0.064035 0.091075 0.407346 0.251673
H8    H     H_    0.986429 0.171208 0.353488 0.221243
H9    H     H_    0.184177 0.253004 0.376777 0.271780
H10   H     H_    0.060787 0.825743 0.519347 0.120278
H11   H     H_    0.167845 0.759171 0.571594 0.178195
H12   H     H_    0.717524 0.356005 0.342867 0.165236
H13   H     H_    0.924642 0.821486 0.626231 0.263607
H14   H     H_    0.974693 0.988841 0.587357 0.216454
H15   H     H_    0.792893 0.855954 0.576748 0.267104
H16   H     H_    0.118050 0.848429 0.351994 0.175719
H17   H     H_    0.300770 0.832193 0.310117 0.149029
H18   H     H_    0.491353 0.839772 0.381766 0.240837
H19   H     H_    0.373582 0.013444 0.376833 0.219971
H20   H     H_    0.299411 0.867778 0.421248 0.268408
H21   H     H_    0.991034 0.309718 0.663168 0.170665
H22   H     H_    0.124170 0.286994 0.711791 0.154510
H23   H     H_    0.824415 0.499009 0.727318 0.171422
H24   H     H_    0.353413 0.180584 0.651026 0.246448
H25   H     H_    0.150635 0.069218 0.651594 0.230153
H26   H     H_    0.210330 0.206212 0.603282 0.263943
H27   H     H_    0.716366 0.345416 0.254603 0.162216
H28   H     H_    0.878948 0.755485 0.875855 0.194860
H29   H     H_    0.200257 0.186997 0.119349 0.197536
H30   H     H_    0.254288 0.597946 0.261338 0.156581
H31   H     H_    0.272647 0.481733 0.754426 0.155456
H32   H     H_    0.892214 0.737642 0.961528 0.162749
N1    N     N_R   0.568722 0.470772 0.797285 -0.339509
N2    N     N_R   0.493119 0.475618 0.201293 -0.343624
N3    N     N_2   0.950320 0.457960 0.486880 0.162116
N4    N     N_2   0.049680 0.542040 0.513120 0.168075
N5    N     N_1   0.838965 0.964396 0.146330 -0.168761
N6    N     N_1   0.307031 0.941196 0.851951 -0.163169
N7    N     N_1   0.778768 0.995406 0.009488 -0.203447
N8    N     N_1   0.359983 0.921764 0.990060 -0.200287
O1    O     O_R   0.389250 0.738570 0.503220 -0.668402
O2    O     O_2   0.285573 0.264619 0.201493 -0.557969
O3    O     O_2   0.694230 0.689071 0.204957 -0.552708
O4    O     O_2   0.407764 0.230593 0.793976 -0.563677
O5    O     O_3   0.037272 0.351086 0.460094 -0.519568
O6    O     O_3   0.962676 0.616474 0.549573 -0.518475
O7    O     O_3   0.231220 0.638851 0.356700 -0.614348
O8    O     O_3   0.202780 0.465252 0.661648 -0.612545
O9    O     O_R   0.610750 0.261430 0.496780 -0.641537
O10   O     O_R   0.678390 0.711630 0.494810 -0.603968
O11   O     O_R   0.321610 0.288370 0.505190 -0.582156
O12   O     O_R   0.355440 0.513440 0.575450 -0.582244
O13   O     O_R   0.644560 0.486560 0.424550 -0.684062
O14   O     O_R   0.644590 0.486500 0.567040 -0.581667
O15   O     O_R   0.355410 0.513500 0.432960 -0.537091
O16   O     O_2   0.745593 0.704361 0.797397 -0.554254
Zn1   Zn    Zn3+2 0.306940 0.517990 0.505620 1.043049
Zn2   Zn    Zn3+2 0.693060 0.482010 0.494380 1.008320

loop_
_geom_bond_atom_site_label_1
_geom_bond_atom_site_label_2
_ccdc_geom_bond_type
C19   H2    S    
C43   H19   S    
C43   H18   S    
C23   C45   A    
C28   H30   S    
O13   Zn2   S    
C6    C7    A    
C37   N2    S    
C25   N1    A    
C33   H23   S    
C35   H27   S    
C18   C52   A    
C41   H13   S    
N3    Zn2   S    
C34   C51   A    
C18   H32   S    
N3    O5    S    
C15   C48   S    
C41   H15   S    
C35   C37   A    
C5    C11   A    
O15   Zn1   S    
C12   O11   A    
C11   C14   A    
C27   C29   A    
C42   H16   S    
C33   C36   A    
C3    C29   A    
C27   H31   S    
O10   Zn2   S    
C22   O16   S    
C31   C33   A    
C16   O12   A    
C2    C34   A    
C24   C51   A    
O11   Zn1   S    
N4    Zn1   S    
N4    O6    S    
C44   C46   S    
C41   H14   S    
O12   Zn1   S    
C36   N1    S    
C38   C39   S    
C39   H7    S    
C15   C54   A    
C25   C54   A    
C12   O9    A    
C46   H24   S    
C44   O8    S    
C50   N8    T    
C45   C52   A    
C12   C21   S    
C8    C18   A    
C38   H5    S    
O9    Zn2   S    
C51   C53   A    
C44   H21   S    
C3    C31   A    
C32   C35   A    
C5    C9    A    
C11   C49   S    
C17   O13   A    
C1    O1    A    
C2    C26   A    
C22   N1    A    
C52   H28   S    
C24   N2    A    
C1    O10   A    
C4    C32   A    
C38   H6    S    
C4    C17   S    
C8    C10   A    
C40   C41   S    
C7    C19   A    
C40   H11   S    
C13   C15   A    
C9    C34   A    
C10   C23   A    
C42   C43   S    
C42   O7    S    
C23   C54   A    
C32   H12   S    
C7    C9    A    
C39   H8    S    
C1    C20   S    
C47   N5    T    
C38   O5    S    
C17   O15   A    
C40   O6    S    
C5    C8    A    
C14   C47   S    
C27   C36   A    
C39   H9    S    
C40   H10   S    
C49   N7    T    
C53   H29   S    
C31   H1    S    
C24   O2    S    
N3    N4    D    
C21   H4    S    
O1    Zn1   S    
C6    C13   A    
C46   H26   S    
C19   C53   A    
C46   H25   S    
C28   C37   A    
C43   H20   S    
C30   O7    S    
C28   C30   A    
C42   H17   S    
C29   O8    S    
C2    C14   A    
C6    C10   A    
C16   O14   A    
C26   O3    S    
C13   C50   S    
O14   Zn2   S    
C25   O4    S    
C22   C45   A    
C20   C21   D    
C26   N2    A    
C48   N6    T    
C44   H22   S    
C20   H3    S    
C4    C30   A    
C3    C16   S    
