data_mof_unit_30188.cif
_audit_creation_date              2012-12-11T16:50:59-0500
_audit_creation_method            fapswitch 2.2
_symmetry_space_group_name_H-M    P1
_symmetry_Int_Tables_number       1
_space_group_crystal_system       triclinic
_cell_length_a                    6.911947
_cell_length_b                    28.815164
_cell_length_c                    32.155254
_cell_angle_alpha                 100.764857
_cell_angle_beta                  89.618916
_cell_angle_gamma                 90.377736
_cell_volume                      6291.39031156

loop_
_atom_site_label
_atom_site_type_symbol
_atom_type_description
_atom_site_fract_x
_atom_site_fract_y
_atom_site_fract_z
_atom_type_partial_charge
O1    O     O_R   0.494350 0.453170 0.452520 -0.537525
O2    O     O_R   0.820980 0.455850 0.538220 -0.543315
O3    O     O_R   0.994300 0.546830 0.547480 -0.540646
C1    C     C_R   0.651393 0.445580 0.551642 0.704006
O4    O     O_R   0.823860 0.447590 0.452270 -0.543039
O5    O     O_R   0.997200 0.538510 0.460920 -0.538062
C2    C     C_R   0.654954 0.434650 0.436598 0.706336
O6    O     O_R   0.491440 0.461490 0.539080 -0.539743
O7    O     O_3   0.661790 0.529840 0.502940 -0.366334
V1    V     V_3+5 0.935470 0.494460 0.499450 1.414179
O8    O     O_R   0.327090 0.544150 0.461780 -0.535902
C3    C     C_R   0.158737 0.554276 0.448192 0.741741
O9    O     O_R   0.324210 0.552410 0.547730 -0.544384
C4    C     C_R   0.154926 0.565193 0.563440 0.688461
V2    V     V_3+5 0.435840 0.505540 0.500550 1.423177
O10   O     O_3   0.159650 0.470160 0.497060 -0.369916
C5    C     C_R   0.222101 0.886514 0.874448 0.426220
C6    C     C_R   0.228834 0.848952 0.839782 -0.212109
H1    H     H_    0.365316 0.841226 0.823293 0.116197
C7    C     C_R   0.062744 0.822516 0.825707 0.057678
C8    C     C_R   0.887963 0.833945 0.847724 -0.151037
H2    H     H_    0.757296 0.813998 0.838082 0.124415
C9    C     C_R   0.880652 0.870384 0.883286 -0.224160
H3    H     H_    0.744372 0.877281 0.899966 0.192863
C10   C     C_R   0.047009 0.896964 0.897613 -0.156834
C11   C     C_R   0.922865 0.775474 0.758434 -0.139959
H4    H     H_    0.794794 0.797328 0.762700 0.123031
C12   C     C_R   0.938211 0.740335 0.722095 -0.193085
H5    H     H_    0.820953 0.736041 0.699503 0.146634
C13   C     C_R   0.104502 0.711985 0.714311 -0.021641
C14   C     C_R   0.254047 0.718816 0.744712 0.398607
C15   C     C_R   0.238542 0.754560 0.780785 -0.225939
H6    H     H_    0.355940 0.759237 0.803347 0.126126
C16   C     C_R   0.073701 0.783413 0.788047 0.046413
C17   C     C_R   0.291330 0.667596 0.651463 -0.089431
H7    H     H_    0.416888 0.689723 0.660542 0.141393
C18   C     C_R   0.304165 0.631876 0.615446 -0.193368
H8    H     H_    0.439977 0.626990 0.598236 0.125324
C19   C     C_R   0.142885 0.603305 0.601562 -0.046257
C20   C     C_R   0.968673 0.611367 0.624629 -0.155978
H9    H     H_    0.841469 0.590010 0.614980 0.122266
C21   C     C_R   0.956790 0.646589 0.660924 -0.171134
H10   H     H_    0.821445 0.651216 0.678266 0.120283
C22   C     C_R   0.118171 0.674978 0.675065 0.112560
C23   C     C_R   0.198384 0.661796 0.285787 0.681092
N1    N     N_R   0.123772 0.677024 0.325611 -0.546044
C24   C     C_R   0.042760 0.720994 0.336613 0.628133
C25   C     C_R   0.028644 0.750907 0.306680 -0.038445
C26   C     C_R   0.102312 0.735478 0.265504 -0.013208
C27   C     C_R   0.189151 0.690691 0.254943 -0.069967
C28   C     C_R   0.941433 0.795596 0.316786 -0.132300
C29   C     C_R   0.927732 0.824528 0.286488 -0.127858
C30   C     C_R   0.001610 0.809617 0.245335 -0.058207
C31   C     C_R   0.089190 0.764911 0.234827 -0.010906
C32   C     C_R   0.163434 0.749544 0.193692 -0.031375
C33   C     C_R   0.250506 0.704839 0.183577 -0.122782
C34   C     C_R   0.263240 0.675801 0.213807 -0.123751
C35   C     C_R   0.991354 0.838399 0.214411 0.714071
N2    N     N_R   0.067332 0.823324 0.174688 -0.544269
C36   C     C_R   0.149815 0.779509 0.163792 0.641073
O11   O     O_2   0.280300 0.618746 0.275970 -0.457803
O12   O     O_2   0.973852 0.735507 0.376224 -0.514672
H11   H     H_    0.882935 0.808343 0.348137 0.170121
H12   H     H_    0.859492 0.858688 0.295480 0.169622
O13   O     O_2   0.907117 0.881189 0.224056 -0.468414
O14   O     O_2   0.220143 0.765147 0.124282 -0.513621
H13   H     H_    0.309319 0.692125 0.152250 0.173816
H14   H     H_    0.331109 0.641599 0.204789 0.183425
C37   C     C_R   0.902948 0.851852 0.116580 -0.066193
H15   H     H_    0.787339 0.826769 0.118304 0.183290
C38   C     C_R   0.891725 0.881837 0.087034 -0.146738
H16   H     H_    0.766722 0.879382 0.066593 0.146648
C39   C     C_R   0.041667 0.914048 0.083463 -0.132610
C40   C     C_R   0.201999 0.915933 0.110538 -0.270225
H17   H     H_    0.317522 0.940968 0.108460 0.177215
C41   C     C_R   0.212526 0.886668 0.140957 0.488669
C42   C     C_R   0.061494 0.854127 0.143952 0.247468
C43   C     C_R   0.287614 0.648519 0.383796 -0.071225
H18   H     H_    0.403188 0.673636 0.382147 0.181850
C44   C     C_R   0.298746 0.618465 0.413287 -0.147593
H19   H     H_    0.423479 0.620955 0.433808 0.144137
C45   C     C_R   0.149126 0.586110 0.416679 -0.132607
C46   C     C_R   0.989244 0.584139 0.389473 -0.263871
H20   H     H_    0.874120 0.558941 0.391358 0.177155
C47   C     C_R   0.978806 0.613479 0.359115 0.477247
C48   C     C_R   0.129381 0.646202 0.356330 0.251890
C49   C     C_R   0.713979 0.209358 0.827188 0.692590
N3    N     N_R   0.588519 0.171766 0.821772 -0.564911
C50   C     C_R   0.473888 0.161466 0.786714 0.661553
C51   C     C_R   0.479495 0.189959 0.755316 -0.134354
C52   C     C_R   0.605232 0.229387 0.760849 -0.067256
C53   C     C_R   0.734345 0.237722 0.795759 -0.109159
C54   C     C_R   0.359317 0.180544 0.719087 0.363175
C55   C     C_R   0.339364 0.214395 0.692884 0.387166
C56   C     C_R   0.474161 0.252568 0.696481 -0.193631
C57   C     C_R   0.604124 0.260108 0.731065 -0.030860
C58   C     C_R   0.731419 0.299070 0.736414 -0.019955
C59   C     C_R   0.865977 0.305442 0.769310 -0.165622
C60   C     C_R   0.875283 0.274495 0.797911 0.464808
C61   C     C_R   0.490996 0.282591 0.666090 0.678621
N4    N     N_R   0.610444 0.321449 0.673007 -0.575321
C62   C     C_R   0.726523 0.330480 0.707889 0.632411
O15   O     O_2   0.810575 0.220360 0.863956 -0.457406
O16   O     O_2   0.351319 0.124312 0.782931 -0.516529
O17   O     O_2   0.398233 0.271838 0.628825 -0.458444
O18   O     O_2   0.838881 0.369633 0.714790 -0.519449
H21   H     H_    0.969305 0.334232 0.772067 0.209339
C63   C     C_R   0.796817 0.360505 0.622946 -0.085682
H22   H     H_    0.927479 0.343563 0.630692 0.157334
C64   C     C_R   0.806924 0.390696 0.593630 -0.197002
H23   H     H_    0.945876 0.396276 0.579547 0.134176
C65   C     C_R   0.639926 0.413200 0.582597 -0.057632
C66   C     C_R   0.462459 0.404666 0.601704 -0.201519
H24   H     H_    0.331021 0.421476 0.594103 0.130234
C67   C     C_R   0.452820 0.374657 0.631277 -0.073998
H25   H     H_    0.315202 0.369030 0.645908 0.145407
C68   C     C_R   0.619952 0.352302 0.642233 0.344060
C69   C     C_R   0.399602 0.137464 0.874667 -0.053685
H26   H     H_    0.271516 0.155514 0.867014 0.181134
C70   C     C_R   0.387343 0.108909 0.905356 -0.221299
H27   H     H_    0.249114 0.105372 0.920542 0.137453
C71   C     C_R   0.551858 0.085467 0.916381 -0.054840
C72   C     C_R   0.728530 0.091121 0.895773 -0.211014
H28   H     H_    0.857858 0.073326 0.903164 0.128288
C73   C     C_R   0.739955 0.119169 0.864729 -0.101901
H29   H     H_    0.876803 0.122467 0.848905 0.144871
C74   C     C_R   0.575815 0.142677 0.853900 0.347162
C75   C     C_R   0.724988 0.126032 0.113678 -0.172164
H30   H     H_    0.854753 0.116450 0.095072 0.124393
C76   C     C_R   0.737791 0.161332 0.149949 -0.067026
H31   H     H_    0.876121 0.178502 0.157692 0.137526
C77   C     C_R   0.574038 0.174690 0.175508 0.118359
C78   C     C_R   0.395374 0.152997 0.162745 -0.160171
H32   H     H_    0.265771 0.162638 0.181341 0.131439
C79   C     C_R   0.381997 0.118063 0.126128 -0.140829
H33   H     H_    0.242663 0.101746 0.117609 0.124307
C80   C     C_R   0.547143 0.103758 0.101362 -0.051168
C81   C     C_R   0.445347 0.246857 0.223304 -0.219381
H34   H     H_    0.326831 0.247288 0.201521 0.148062
C82   C     C_R   0.455006 0.282473 0.259299 -0.148564
H35   H     H_    0.343635 0.309215 0.264209 0.132670
C83   C     C_R   0.609029 0.284448 0.287830 0.038789
C84   C     C_R   0.751933 0.249390 0.279672 -0.247325
H36   H     H_    0.871045 0.250870 0.301454 0.113658
C85   C     C_R   0.740868 0.212081 0.244106 0.428019
C86   C     C_R   0.588094 0.211720 0.214834 -0.000041
C87   C     C_R   0.800761 0.343139 0.340224 -0.122383
H37   H     H_    0.932865 0.331682 0.323207 0.103487
C88   C     C_R   0.812062 0.379017 0.376165 -0.147307
H38   H     H_    0.952582 0.393790 0.385977 0.121027
C89   C     C_R   0.644010 0.396014 0.398730 -0.054080
C90   C     C_R   0.464487 0.376000 0.384447 -0.143221
H39   H     H_    0.331989 0.387963 0.401087 0.122129
C91   C     C_R   0.453338 0.339926 0.348696 -0.132710
H40   H     H_    0.313010 0.324825 0.339190 0.098468
C92   C     C_R   0.621219 0.323005 0.325998 0.118079
O19   O     O_R   0.699170 0.038480 0.960880 -0.541402
O20   O     O_R   0.366800 0.052460 0.047690 -0.544663
O21   O     O_R   0.193520 0.961530 0.039110 -0.538848
C93   C     C_R   0.535736 0.065394 0.063344 0.703623
O22   O     O_R   0.369630 0.044100 0.961740 -0.546393
O23   O     O_R   0.196370 0.953120 0.952550 -0.515961
C94   C     C_R   0.539374 0.054511 0.948455 0.682923
O24   O     O_R   0.696320 0.046890 0.047450 -0.538282
O25   O     O_3   0.528890 0.970170 0.997080 -0.355600
V3    V     V_3+5 0.255190 0.005530 0.000540 1.433625
O26   O     O_R   0.866460 0.947530 0.952310 -0.542244
C95   C     C_R   0.035821 0.935002 0.936225 0.707938
O27   O     O_R   0.863630 0.955880 0.038270 -0.537065
C96   C     C_R   0.032004 0.945792 0.051875 0.739300
V4    V     V_3+5 0.754830 0.994440 0.999470 1.442145
O28   O     O_3   0.031000 0.029830 0.002920 -0.374953
O29   O     O_3   0.392655 0.910239 0.886938 -0.577063
C97   C     C_3   0.407470 0.951316 0.868872 0.115280
H41   H     H_    0.505466 0.976012 0.889410 0.141009
H42   H     H_    0.266653 0.969948 0.868331 0.083407
C98   C     C_3   0.497853 0.940459 0.824454 -0.377997
H43   H     H_    0.630281 0.918904 0.824979 0.211539
H44   H     H_    0.393488 0.920110 0.801893 0.191974
C99   C     C_3   0.551390 0.985840 0.808925 -0.782681
H45   H     H_    0.421870 0.008462 0.808857 0.246215
H46   H     H_    0.610091 0.976984 0.776196 0.234291
H47   H     H_    0.663670 0.005759 0.829628 0.229209
S1    S     S_3+6 0.412304 0.892210 0.175721 0.016511
O30   O     O_2   0.499887 0.844502 0.175121 -0.348803
O31   O     O_2   0.563116 0.924739 0.162927 -0.325603
O32   O     O_3   0.335117 0.914370 0.225075 -0.481390
H48   H     H_    0.447253 0.911644 0.243477 0.378209
S2    S     S_3+6 0.780300 0.607572 0.324001 0.040627
O33   O     O_2   0.850464 0.585805 0.280403 -0.297769
O34   O     O_2   0.626293 0.576312 0.337468 -0.308632
O35   O     O_3   0.685510 0.660983 0.322980 -0.515449
H49   H     H_    0.660279 0.661370 0.292763 0.360534
O36   O     O_3   0.252867 0.138988 0.709774 -0.509876
C100  C     C_3   0.374683 0.101361 0.690803 0.139738
H50   H     H_    0.309274 0.068062 0.697209 0.160120
H51   H     H_    0.522888 0.103533 0.704635 0.109589
C101  C     C_3   0.387938 0.098164 0.642784 -0.285759
H52   H     H_    0.239880 0.096009 0.629264 0.251417
H53   H     H_    0.461524 0.130200 0.635705 0.227036
C102  C     C_3   0.502416 0.054865 0.621861 -0.804715
H54   H     H_    0.652002 0.056624 0.634518 0.246296
H55   H     H_    0.510171 0.053661 0.587174 0.253761
H56   H     H_    0.430595 0.022053 0.627678 0.226374
S3    S     S_3+6 0.131381 0.210167 0.659655 0.047441
O37   O     O_2   0.187119 0.188087 0.615126 -0.307962
O38   O     O_2   0.975266 0.180704 0.674897 -0.319266
O39   O     O_3   0.041719 0.264282 0.660036 -0.500964
H57   H     H_    0.933445 0.259048 0.639641 0.358492
S4    S     S_3+6 0.077598 0.281382 0.832498 0.046244
O40   O     O_2   0.164926 0.233975 0.833451 -0.336019
O41   O     O_2   0.229376 0.312396 0.817789 -0.333570
O42   O     O_3   0.004511 0.306499 0.881478 -0.451497
H58   H     H_    0.120141 0.306303 0.899479 0.383788
O43   O     O_3   0.883390 0.177593 0.235321 -0.587952
C103  C     C_3   0.941610 0.159663 0.271409 0.074152
H59   H     H_    0.936856 0.120489 0.262943 0.163400
H60   H     H_    0.843641 0.169170 0.299376 0.110910
C104  C     C_3   0.150836 0.174705 0.282643 -0.322323
H61   H     H_    0.248019 0.159078 0.256143 0.206060
H62   H     H_    0.165338 0.213712 0.287295 0.197358
C105  C     C_3   0.216082 0.158435 0.322771 -0.790969
H63   H     H_    0.124636 0.174704 0.350096 0.233848
H64   H     H_    0.368742 0.169401 0.329555 0.232383
H65   H     H_    0.206252 0.119350 0.318646 0.243248
O44   O     O_3   0.420170 0.691952 0.738633 -0.586081
C106  C     C_3   0.397702 0.653100 0.759237 0.069530
H66   H     H_    0.262769 0.632848 0.748852 0.124355
H67   H     H_    0.393148 0.665454 0.794199 0.129359
C107  C     C_3   0.570177 0.620169 0.747959 -0.308339
H68   H     H_    0.573743 0.607219 0.713156 0.195642
H69   H     H_    0.706549 0.639947 0.757343 0.202372
C108  C     C_3   0.557514 0.577865 0.770180 -0.782277
H70   H     H_    0.557085 0.589884 0.805077 0.236388
H71   H     H_    0.684551 0.554679 0.761202 0.240204
H72   H     H_    0.423798 0.557106 0.760632 0.237803

loop_
_geom_bond_atom_site_label_1
_geom_bond_atom_site_label_2
_ccdc_geom_bond_type
O25   V4    S    
C32   C33   A    
V3    O28   S    
N4    C62   A    
C100  H51   S    
O21   C96   A    
C102  H55   S    
O27   C96   A    
C76   C77   A    
C56   C57   A    
C103  C104  S    
C87   H37   S    
V4    O28   S    
C75   H30   S    
N2    C42   S    
C24   O12   S    
C58   C59   A    
C72   H28   S    
C33   H13   S    
O42   H58   S    
C63   H22   S    
C61   O17   S    
O25   V3    S    
C40   C41   A    
C93   O24   A    
C8    H2    S    
C12   H5    S    
C17   C18   A    
C103  H60   S    
N3    C74   S    
C88   C89   A    
O5    C3    A    
C13   C14   A    
C43   C44   A    
C72   C73   A    
C47   S2    S    
V2    O10   S    
S1    O30   D    
C107  C108  S    
C84   C85   A    
C6    H1    S    
C102  H54   S    
C23   O11   S    
C37   C38   A    
C97   H41   S    
C54   O36   S    
C4    C19   S    
C85   O43   S    
O8    V2    S    
C11   C16   A    
C25   C28   A    
C106  H66   S    
C5    O29   S    
C77   C78   A    
C67   C68   A    
C104  H61   S    
C89   C90   A    
C101  H52   S    
O1    V2    S    
C108  H70   S    
O19   C94   A    
C91   C92   A    
C58   C62   A    
C46   C47   A    
C99   H47   S    
C1    O6    A    
C100  C101  S    
C7    C16   S    
C43   C48   A    
C20   C21   A    
O36   C100  S    
C52   C57   A    
C36   O14   S    
N2    C36   A    
C26   C31   A    
O23   V3    S    
O9    C4    A    
C69   H26   S    
O20   C93   A    
O27   V4    S    
C13   C22   S    
C107  H68   S    
C55   S3    S    
C21   C22   A    
C65   C66   A    
O22   C94   A    
C70   C71   A    
C85   C86   A    
C97   H42   S    
C41   C42   A    
S3    O38   D    
C10   C95   S    
C71   C72   A    
C40   H17   S    
C28   C29   A    
C24   C25   A    
C83   C92   S    
C79   H33   S    
C28   H11   S    
C103  H59   S    
C44   C45   A    
C29   H12   S    
C52   C53   A    
C38   C39   A    
C5    C10   A    
C56   C61   A    
O39   H57   S    
O26   V4    S    
C105  H65   S    
C98   H44   S    
C35   N2    A    
O29   C97   S    
C45   C46   A    
C59   H21   S    
C64   H23   S    
C75   C76   A    
C17   H7    S    
C15   C16   A    
C69   C74   A    
S2    O35   S    
O2    C1    A    
O43   C103  S    
C18   H8    S    
C87   C92   A    
C104  H62   S    
C71   C94   S    
C35   O13   S    
C46   H20   S    
C67   H25   S    
C9    H3    S    
C98   C99   S    
C57   C58   A    
C106  C107  S    
C101  C102  S    
C5    C6    A    
C11   H4    S    
C3    C45   S    
C55   C56   A    
O44   C106  S    
C54   C55   A    
N1    C24   A    
C29   C30   A    
C82   H35   S    
C107  H69   S    
C17   C22   A    
C108  H71   S    
C97   C98   S    
C91   H40   S    
O3    C4    A    
C81   C82   A    
C98   H43   S    
C75   C80   A    
C49   O15   S    
C69   C70   A    
C20   H9    S    
C106  H67   S    
C90   C91   A    
C59   C60   A    
O6    V2    S    
S4    O41   D    
O9    V2    S    
C50   O16   S    
C78   H32   S    
C102  H56   S    
C2    C89   S    
C33   C34   A    
C34   H14   S    
O2    V1    S    
C39   C40   A    
O26   C95   A    
C49   C53   A    
C70   H27   S    
O20   V3    S    
C51   C54   A    
O4    C2    A    
C66   H24   S    
O7    V1    S    
S3    O39   S    
S2    O33   D    
C79   C80   A    
S3    O37   D    
C31   C32   A    
C105  H64   S    
C99   H46   S    
C80   C93   S    
C87   C88   A    
C7    C8    A    
O1    C2    A    
C27   C34   A    
C63   C68   A    
C14   C15   A    
O22   V3    S    
C82   C83   A    
C44   H19   S    
C47   C48   A    
O5    V1    S    
C101  H53   S    
O8    C3    A    
S1    O32   S    
C30   C31   A    
S4    O42   S    
C11   C12   A    
O21   V3    S    
N4    C68   S    
O35   H49   S    
C8    C9    A    
C76   H31   S    
O7    V2    S    
C77   C86   S    
O32   H48   S    
C18   C19   A    
O3    V1    S    
C41   S1    S    
C88   H38   S    
C15   H6    S    
C104  C105  S    
C43   H18   S    
C37   C42   A    
C51   C52   A    
C73   H29   S    
C63   C64   A    
C23   C27   A    
C81   C86   A    
C25   C26   A    
C12   C13   A    
C61   N4    A    
S1    O31   D    
C62   O18   S    
C6    C7    A    
S4    O40   D    
C1    C65   S    
C37   H15   S    
C108  H72   S    
C64   C65   A    
C81   H34   S    
O23   C95   A    
C100  H50   S    
C19   C20   A    
C23   N1    A    
O4    V1    S    
C9    C10   A    
C38   H16   S    
N3    C50   A    
C49   N3    A    
C26   C27   A    
C21   H10   S    
C14   O44   S    
C73   C74   A    
C78   C79   A    
C83   C84   A    
O24   V4    S    
V1    O10   S    
C90   H39   S    
C66   C67   A    
C50   C51   A    
C32   C36   A    
C105  H63   S    
C39   C96   S    
C30   C35   A    
O19   V4    S    
C99   H45   S    
C84   H36   S    
C53   C60   A    
S2    O34   D    
N1    C48   S    
C60   S4    S    
