data_mof_unit_8911.cif
_audit_creation_date              2012-12-10T18:47:40-0500
_audit_creation_method            fapswitch 2.2
_symmetry_space_group_name_H-M    P1
_symmetry_Int_Tables_number       1
_space_group_crystal_system       triclinic
_cell_length_a                    9.799281
_cell_length_b                    10.796548
_cell_length_c                    15.931915
_cell_angle_alpha                 90.676196
_cell_angle_beta                  69.971746
_cell_angle_gamma                 90.737256
_cell_volume                      1583.45421611

loop_
_atom_site_label
_atom_site_type_symbol
_atom_type_description
_atom_site_fract_x
_atom_site_fract_y
_atom_site_fract_z
_atom_type_partial_charge
C1    C     C_R   0.504021 0.740654 0.496030 0.871039
C2    C     C_R   0.498485 0.260509 0.501227 0.911980
C3    C     C_R   0.371474 0.423404 0.082924 -0.253150
C4    C     C_R   0.579018 0.683132 0.949417 -0.281932
C5    C     C_R   0.266770 0.399365 0.043533 0.163564
C6    C     C_R   0.694728 0.698094 0.981719 0.155954
C7    C     C_R   0.595600 0.941184 0.531888 -0.058535
C8    C     C_R   0.443402 0.066344 0.439592 -0.038877
C9    C     C_R   0.569546 0.066096 0.549200 0.094617
C10   C     C_R   0.442346 0.937377 0.438034 0.105440
C11   C     C_R   0.498733 0.128769 0.499225 -0.165137
C12   C     C_R   0.514573 0.874326 0.487874 -0.167868
C13   C     C_R   0.960411 0.427330 0.440768 0.062517
C14   C     C_R   0.039657 0.572148 0.559266 0.067975
C15   C     C_R   0.104635 0.428214 0.440615 -0.149819
C16   C     C_R   0.896606 0.572527 0.558219 -0.141125
C17   C     C_R   0.411404 0.502540 0.675426 0.876462
C18   C     C_R   0.587026 0.511599 0.326125 0.877484
C19   C     C_R   0.360894 0.502184 0.775197 -0.134795
C20   C     C_R   0.628956 0.546562 0.231225 -0.175736
C21   C     C_R   0.188454 0.424681 0.914158 -0.262728
C22   C     C_R   0.800941 0.631891 0.094515 -0.268687
C23   C     C_R   0.222985 0.451403 0.824139 -0.052964
C24   C     C_R   0.773383 0.582171 0.179669 -0.041196
C25   C     C_R   0.454504 0.543818 0.822597 0.113353
C26   C     C_R   0.519405 0.553280 0.190752 0.092744
C27   C     C_R   0.408526 0.529162 0.917176 0.018616
C28   C     C_R   0.567149 0.555381 0.097744 0.070758
C29   C     C_R   0.285457 0.452154 0.959193 0.083844
C30   C     C_R   0.692778 0.625989 0.055209 0.094335
C31   C     C_R   0.489714 0.575824 0.970130 0.016995
C32   C     C_R   0.477044 0.516239 0.049971 0.040829
H1    H     H_    0.087030 0.376608 0.947350 0.162010
H2    H     H_    0.905248 0.675155 0.060307 0.159992
H3    H     H_    0.367839 0.371699 0.141537 0.155588
H4    H     H_    0.566989 0.750048 0.903218 0.184306
H5    H     H_    0.186008 0.371898 0.393231 0.160332
H6    H     H_    0.817333 0.630963 0.603440 0.170793
N1    N     N_R   0.142780 0.500030 0.500020 -0.105729
N2    N     N_R   0.857220 0.499970 0.499980 -0.103251
O1    O     O_R   0.385370 0.683250 0.500010 -0.613273
O2    O     O_R   0.614630 0.316750 0.499990 -0.605732
O3    O     O_R   0.614700 0.683220 0.500000 -0.622890
O4    O     O_R   0.385300 0.316780 0.500000 -0.611892
O5    O     O_R   0.319830 0.500020 0.632250 -0.600380
O6    O     O_R   0.680170 0.499980 0.367750 -0.596916
O7    O     O_R   0.549160 0.499990 0.632240 -0.632807
O8    O     O_R   0.450840 0.500010 0.367760 -0.644962
Zn1   Zn    Zn3+2 0.346870 0.500020 0.500000 0.961782
Zn2   Zn    Zn3+2 0.653130 0.499980 0.500000 0.962197
C33   C     C_3   0.143853 0.310594 0.090951 -0.393632
C34   C     C_3   0.170581 0.181074 0.049277 -0.857440
H7    H     H_    0.178342 0.182529 0.978176 0.256862
H8    H     H_    0.272916 0.143384 0.053590 0.262379
H9    H     H_    0.079363 0.118595 0.086130 0.254438
H10   H     H_    0.133304 0.302476 0.162429 0.218585
H11   H     H_    0.037942 0.346710 0.091631 0.203747
C35   C     C_3   0.808678 0.796916 0.941452 -0.407315
C36   C     C_3   0.785882 0.910785 0.002333 -0.853547
H12   H     H_    0.795957 0.887004 0.067518 0.260890
H13   H     H_    0.869115 0.982360 0.970010 0.251027
H14   H     H_    0.676557 0.950043 0.014153 0.260667
H15   H     H_    0.919248 0.759256 0.927405 0.205653
H16   H     H_    0.803769 0.826794 0.875976 0.211482
C37   C     C_3   0.360205 0.594194 0.239826 -0.362558
C38   C     C_3   0.316220 0.706804 0.196738 -0.858554
H17   H     H_    0.214581 0.747346 0.243058 0.254297
H18   H     H_    0.402743 0.779171 0.180708 0.257802
H19   H     H_    0.293308 0.680833 0.135444 0.272366
H20   H     H_    0.282394 0.516972 0.245170 0.206728
H21   H     H_    0.338319 0.625538 0.308495 0.240087
C39   C     C_3   0.607634 0.592549 0.771943 -0.358965
C40   C     C_3   0.601897 0.722639 0.735476 -0.885538
H22   H     H_    0.580504 0.717430 0.671844 0.280080
H23   H     H_    0.513225 0.778664 0.781990 0.244724
H24   H     H_    0.706386 0.771970 0.725068 0.247161
H25   H     H_    0.683118 0.591375 0.809361 0.192665
H26   H     H_    0.671667 0.525811 0.721739 0.216500
C41   C     C_1   0.890865 0.582907 0.214892 0.202235
N3    N     N_1   0.985402 0.583713 0.242818 -0.225024
C42   C     C_1   0.118436 0.413238 0.782928 0.202900
N4    N     N_1   0.034361 0.382499 0.750349 -0.219352
C43   C     C_1   0.720569 0.890199 0.547393 0.228106
N5    N     N_1   0.823723 0.853068 0.557800 -0.252350
C44   C     C_1   0.394652 0.133928 0.376727 0.188395
N6    N     N_1   0.357003 0.186736 0.325862 -0.243045
C45   C     C_3   0.609576 0.129019 0.624398 -0.379074
C46   C     C_3   0.770296 0.166667 0.596366 -0.754022
H27   H     H_    0.816228 0.186947 0.523995 0.265021
H28   H     H_    0.782465 0.250519 0.634370 0.240952
H29   H     H_    0.834703 0.091729 0.611285 0.243051
H30   H     H_    0.541148 0.211731 0.650276 0.194901
H31   H     H_    0.582794 0.065738 0.682520 0.191358
C47   C     C_3   0.372634 0.869527 0.378922 -0.391701
C48   C     C_3   0.207871 0.860503 0.425298 -0.760040
H32   H     H_    0.160590 0.789850 0.392070 0.238181
H33   H     H_    0.180145 0.834060 0.496247 0.271133
H34   H     H_    0.157202 0.951220 0.422973 0.249785
H35   H     H_    0.397371 0.915971 0.313511 0.200397
H36   H     H_    0.421849 0.777825 0.360478 0.203257
C49   C     C_1   0.923186 0.348477 0.378351 0.209182
N7    N     N_1   0.893646 0.284563 0.328165 -0.220394
C50   C     C_1   0.075355 0.648614 0.623459 0.215420
N8    N     N_1   0.103168 0.710499 0.675316 -0.224989

loop_
_geom_bond_atom_site_label_1
_geom_bond_atom_site_label_2
_ccdc_geom_bond_type
O4    Zn1   S    
C38   H18   S    
C45   C46   S    
C4    H4    S    
C49   N7    T    
C27   C29   A    
C40   H22   S    
C6    C35   S    
C7    C43   S    
C48   H32   S    
C42   N4    T    
C48   H34   S    
C44   N6    T    
C43   N5    T    
C22   C24   A    
C17   O5    A    
C8    C44   S    
C38   H19   S    
C21   H1    S    
C10   C47   S    
C37   H20   S    
C33   H10   S    
C15   H5    S    
C13   N2    A    
C39   H26   S    
C14   N1    A    
C1    O3    A    
C20   C24   A    
C2    O4    A    
C33   H11   S    
C47   H36   S    
C23   C42   S    
C34   H9    S    
C38   H17   S    
C36   H12   S    
C45   H30   S    
C40   H23   S    
C3    C32   A    
C1    C12   S    
C2    C11   S    
C18   O6    A    
O1    Zn1   S    
C34   H8    S    
O7    Zn2   S    
C5    C29   A    
C35   H16   S    
C7    C12   A    
C22   H2    S    
C36   H13   S    
C27   C31   A    
C33   C34   S    
C28   C32   A    
C4    C6    A    
C35   C36   S    
C37   H21   S    
C21   C29   A    
C19   C23   A    
C39   H25   S    
C24   C41   S    
C31   C32   A    
C46   H29   S    
C3    H3    S    
O5    Zn1   S    
C25   C39   S    
C9    C11   A    
C15   N1    A    
C10   C12   A    
O2    Zn2   S    
C1    O1    A    
O8    Zn1   S    
N1    Zn1   S    
C16   N2    A    
C13   C15   A    
C40   H24   S    
C14   C16   A    
C13   C49   S    
C34   H7    S    
C35   H15   S    
C7    C9    A    
C36   H14   S    
C22   C30   A    
C6    C30   A    
C26   C37   S    
C17   O7    A    
C46   H28   S    
C39   C40   S    
C3    C5    A    
C18   O8    A    
C48   H33   S    
O3    Zn2   S    
C25   C27   A    
O6    Zn2   S    
C26   C28   A    
C21   C23   A    
C9    C45   S    
C14   C50   S    
C20   C26   A    
C47   H35   S    
C2    O2    A    
C8    C11   A    
N2    Zn2   S    
C45   H31   S    
C28   C30   A    
C17   C19   S    
C18   C20   S    
C47   C48   S    
C19   C25   A    
C4    C31   A    
C41   N3    T    
C46   H27   S    
C8    C10   A    
C37   C38   S    
C50   N8    T    
C5    C33   S    
C16   H6    S    
