data_mof_unit_58663.cif
_audit_creation_date              2012-12-10T20:31:09-0500
_audit_creation_method            fapswitch 2.2
_symmetry_space_group_name_H-M    P1
_symmetry_Int_Tables_number       1
_space_group_crystal_system       triclinic
_cell_length_a                    14.960936
_cell_length_b                    10.670999
_cell_length_c                    9.884881
_cell_angle_alpha                 90.476387
_cell_angle_beta                  90.643809
_cell_angle_gamma                 90.58445
_cell_volume                      1577.86500739

loop_
_atom_site_label
_atom_site_type_symbol
_atom_type_description
_atom_site_fract_x
_atom_site_fract_y
_atom_site_fract_z
_atom_type_partial_charge
C1    C     C_R   0.493854 0.260385 0.499523 0.905947
C2    C     C_R   0.908051 0.557698 0.596679 0.111484
C3    C     C_R   0.955064 0.340469 0.307791 -0.213895
C4    C     C_R   0.047729 0.346556 0.306287 -0.197150
C5    C     C_R   0.093795 0.421194 0.400831 0.123602
C6    C     C_R   0.047035 0.490598 0.498690 0.069941
C7    C     C_R   0.093783 0.563734 0.596722 0.117897
C8    C     C_R   0.047539 0.633033 0.693396 -0.216220
C9    C     C_R   0.954830 0.630461 0.692994 -0.193133
C10   C     C_R   0.186255 0.426609 0.400274 -0.269379
C11   C     C_R   0.231612 0.498203 0.498080 -0.051167
C12   C     C_R   0.326986 0.499998 0.499362 0.858735
C13   C     C_R   0.186270 0.566041 0.596369 -0.258520
C14   C     C_R   0.504445 0.065786 0.617994 0.131171
C15   C     C_R   0.478369 0.128558 0.501579 -0.187347
C16   C     C_R   0.437016 0.061235 0.393359 -0.025149
C17   C     C_R   0.443076 0.930699 0.393979 -0.183647
C18   C     C_R   0.485277 0.871277 0.502996 -0.152099
C19   C     C_R   0.506713 0.938557 0.619717 0.125307
C20   C     C_3   0.589649 0.937811 0.705446 -0.403347
C21   C     C_3   0.587365 0.079625 0.702623 -0.459866
C22   C     C_R   0.441141 0.425579 0.069370 0.220560
C23   C     C_R   0.498244 0.739958 0.500523 0.893695
C24   C     C_R   0.562531 0.565144 0.074479 -0.169479
C25   C     C_R   0.562555 0.565739 0.931159 0.410838
C26   C     C_R   0.441186 0.425634 0.926846 0.156096
C27   C     C_3   0.341849 0.432861 0.919229 -0.466980
C28   C     C_3   0.341623 0.432754 0.072564 -0.503075
C29   C     C_R   0.673030 0.495117 0.500439 0.961421
C30   C     C_R   0.816014 0.556510 0.595949 -0.265989
C31   C     C_R   0.768748 0.484140 0.501221 -0.109238
C32   C     C_R   0.812690 0.407510 0.405896 -0.074852
C33   C     C_R   0.906620 0.411312 0.402606 0.038536
C34   C     C_R   0.953771 0.486650 0.498996 0.058623
H1    H     H_    0.780810 0.615006 0.667325 0.212010
H2    H     H_    0.416609 0.875908 0.309512 0.203428
H3    H     H_    0.576736 0.900178 0.807858 0.252055
H4    H     H_    0.647983 0.897378 0.652353 0.218366
H5    H     H_    0.573876 0.122670 0.803064 0.217283
H6    H     H_    0.643951 0.122274 0.646568 0.226961
H7    H     H_    0.611678 0.620035 0.130860 0.185648
H8    H     H_    0.318157 0.522480 0.875639 0.213537
H9    H     H_    0.311272 0.346944 0.873322 0.214425
H10   H     H_    0.317660 0.522090 0.117326 0.222031
H11   H     H_    0.310421 0.346756 0.114231 0.204549
H12   H     H_    0.922549 0.279840 0.233874 0.141598
H13   H     H_    0.083443 0.292063 0.231692 0.152435
H14   H     H_    0.223082 0.372929 0.326228 0.139650
H15   H     H_    0.223087 0.621572 0.671152 0.149058
H16   H     H_    0.083017 0.689338 0.768758 0.154158
H17   H     H_    0.919663 0.685103 0.768054 0.167428
N1    N     N_R   0.499390 0.499140 0.142800 -0.137006
N2    N     N_R   0.499390 0.499180 0.857150 -0.143733
O1    O     O_R   0.500010 0.316790 0.614690 -0.617782
O2    O     O_R   0.500000 0.316760 0.385350 -0.600308
O3    O     O_R   0.367850 0.499990 0.614680 -0.632105
O4    O     O_R   0.367840 0.499950 0.385340 -0.637186
O5    O     O_R   0.500000 0.683240 0.614650 -0.578591
O6    O     O_R   0.499990 0.683210 0.385310 -0.625106
O7    O     O_R   0.632160 0.500050 0.614660 -0.569314
O8    O     O_R   0.632150 0.500010 0.385320 -0.612613
Zn1   Zn    Zn3+2 0.500010 0.500020 0.653130 0.997241
Zn2   Zn    Zn3+2 0.499990 0.499980 0.346870 0.972143
Cl1   Cl    Cl    0.643120 0.658473 0.852209 -0.680522
C35   C     C_2   0.761052 0.321911 0.313641 0.421881
H18   H     H_    0.777169 0.315688 0.207140 0.059133
O9    O     O_2   0.700789 0.256028 0.356934 -0.568455
C36   C     C_2   0.387542 0.123533 0.282122 0.422169
H19   H     H_    0.364502 0.218770 0.294482 0.054856
O10   O     O_2   0.370086 0.068112 0.176350 -0.582641

loop_
_geom_bond_atom_site_label_1
_geom_bond_atom_site_label_2
_ccdc_geom_bond_type
C24   N1    A    
C23   O5    A    
C11   C12   S    
O5    Zn1   S    
C6    C7    A    
C16   C36   S    
C17   H2    S    
C27   H9    S    
O2    Zn2   S    
C20   H4    S    
N2    Zn1   S    
C3    H12   S    
O6    Zn2   S    
C19   C20   S    
C9    H17   S    
C29   O7    A    
C30   C31   A    
C2    C30   A    
C6    C34   A    
C32   C33   A    
C2    C34   A    
C17   C18   A    
C1    O2    A    
C5    C10   A    
C29   C31   S    
C22   C28   S    
C4    C5    A    
C24   C25   A    
C23   O6    A    
C20   H3    S    
C11   C13   A    
C27   H8    S    
C26   C27   S    
C12   O3    A    
C21   H6    S    
C24   H7    S    
C30   H1    S    
C1    O1    A    
C1    C15   S    
C12   O4    A    
C14   C21   S    
C22   N1    A    
C28   H10   S    
C33   C34   A    
O3    Zn1   S    
C10   H14   S    
C5    C6    A    
C29   O8    A    
C28   H11   S    
C7    C8    A    
C10   C11   A    
C3    C33   A    
C18   C23   S    
C26   N2    A    
C8    H16   S    
C7    C13   A    
C18   C19   A    
C20   C21   S    
C8    C9    A    
O7    Zn1   S    
C35   H18   S    
C22   C26   A    
C27   C28   S    
O8    Zn2   S    
C36   O10   D    
C14   C15   A    
C16   C17   A    
C4    H13   S    
O1    Zn1   S    
C13   H15   S    
C36   H19   S    
C2    C9    A    
C14   C19   A    
N1    Zn2   S    
C31   C32   A    
C3    C4    A    
C15   C16   A    
O4    Zn2   S    
C25   N2    A    
C32   C35   S    
C35   O9    D    
C25   Cl1   S    
C21   H5    S    
