data_mof_unit_31068.cif
_audit_creation_date              2012-12-10T18:41:17-0500
_audit_creation_method            fapswitch 2.2
_symmetry_space_group_name_H-M    P1
_symmetry_Int_Tables_number       1
_space_group_crystal_system       triclinic
_cell_length_a                    15.112025
_cell_length_b                    13.807816
_cell_length_c                    10.850659
_cell_angle_alpha                 90.02167
_cell_angle_beta                  89.758261
_cell_angle_gamma                 89.954645
_cell_volume                      2264.12154066

loop_
_atom_site_label
_atom_site_type_symbol
_atom_type_description
_atom_site_fract_x
_atom_site_fract_y
_atom_site_fract_z
_atom_type_partial_charge
C1    C     C_R   0.330002 0.500020 0.499790 0.878040
C2    C     C_R   0.670461 0.500034 0.500049 0.861332
C3    C     C_R   0.188329 0.434392 0.575678 -0.381994
C4    C     C_R   0.813484 0.413888 0.473760 -0.373178
C5    C     C_R   0.096124 0.435560 0.579991 0.528525
C6    C     C_R   0.905749 0.412804 0.470903 0.520250
C7    C     C_R   0.049398 0.498787 0.501757 -0.053056
C8    C     C_R   0.952576 0.498123 0.498634 -0.050864
C9    C     C_R   0.558222 0.106925 0.575242 0.347667
C10   C     C_R   0.440015 0.107071 0.424991 0.364819
C11   C     C_R   0.558808 0.209030 0.570927 -0.042096
C12   C     C_R   0.440781 0.209749 0.429016 -0.072332
C13   C     C_R   0.498683 0.054510 0.500495 0.047689
C14   C     C_R   0.434077 0.892629 0.564252 0.462487
C15   C     C_R   0.564024 0.893249 0.434867 0.494215
C16   C     C_R   0.436331 0.790640 0.564013 -0.032875
C17   C     C_R   0.563006 0.791183 0.435556 -0.015575
C18   C     C_R   0.498870 0.945530 0.499723 -0.066163
C19   C     C_R   0.499560 0.499873 0.262481 0.814831
C20   C     C_R   0.499518 0.499898 0.737533 0.800562
C21   C     C_R   0.501341 0.583559 0.062037 0.131508
C22   C     C_R   0.501327 0.583582 0.938070 0.126948
C23   C     C_R   0.498116 0.498641 0.130021 -0.090648
C24   C     C_R   0.498074 0.498685 0.870028 -0.095164
C25   C     C_R   0.493450 0.410373 0.064606 -0.217330
C26   C     C_R   0.493395 0.410415 0.935421 -0.218495
C27   C     C_3   0.508247 0.690988 0.929093 -0.459165
C28   C     C_3   0.508270 0.690962 0.071076 -0.447151
C29   C     C_R   0.095340 0.564324 0.426642 -0.326773
C30   C     C_R   0.906832 0.584106 0.523302 -0.323352
C31   C     C_R   0.187225 0.565855 0.426818 0.620834
C32   C     C_R   0.814981 0.585536 0.523498 0.624177
C33   C     C_R   0.233891 0.500035 0.500337 -0.224362
C34   C     C_R   0.767458 0.500066 0.499229 -0.236060
Cu1   Cu    Cu3+1 0.500000 0.596430 0.500000 1.002328
Cu2   Cu    Cu3+1 0.500000 0.403570 0.500000 0.942192
H1    H     H_    0.490149 0.341596 0.112427 0.163145
H2    H     H_    0.489944 0.341702 0.887560 0.165406
H3    H     H_    0.386738 0.750867 0.615252 0.171942
H4    H     H_    0.612900 0.751824 0.384205 0.183722
H5    H     H_    0.572136 0.714557 0.887803 0.213593
H6    H     H_    0.448097 0.724195 0.112550 0.223126
H7    H     H_    0.448063 0.724235 0.888392 0.207678
H8    H     H_    0.572170 0.714503 0.111640 0.203878
H9    H     H_    0.059803 0.613656 0.366983 0.192854
H10   H     H_    0.942575 0.650025 0.544411 0.196974
H11   H     H_    0.224249 0.384335 0.633947 0.190983
H12   H     H_    0.778150 0.347330 0.454743 0.203616
H13   H     H_    0.606013 0.248808 0.625884 0.154612
H14   H     H_    0.394209 0.250616 0.374460 0.150810
N1    N     N_R   0.500000 0.258690 0.500000 -0.217758
N2    N     N_R   0.500000 0.741330 0.500000 -0.241101
O1    O     O_R   0.371460 0.581430 0.500010 -0.540189
O2    O     O_R   0.628540 0.581430 0.499990 -0.526185
O3    O     O_R   0.371470 0.418560 0.500010 -0.591697
O4    O     O_R   0.628530 0.418560 0.499990 -0.595030
O5    O     O_R   0.499990 0.581450 0.319660 -0.574259
O6    O     O_R   0.500010 0.581450 0.680340 -0.581416
O7    O     O_R   0.500010 0.418580 0.319660 -0.594173
O8    O     O_R   0.499990 0.418580 0.680340 -0.594212
F1    F     F_    0.369544 0.939310 0.628228 -0.652688
F2    F     F_    0.627717 0.940596 0.370242 -0.640110
F3    F     F_    0.230494 0.629267 0.352350 -0.650555
F4    F     F_    0.773182 0.670140 0.550040 -0.643336
O9    O     O_3   0.052075 0.373340 0.658887 -0.566526
C35   C     C_3   0.035142 0.422667 0.770619 0.047588
H15   H     H_    0.000539 0.492864 0.754098 0.145922
H16   H     H_    0.098396 0.436738 0.819901 0.140662
C36   C     C_3   0.975806 0.359854 0.852156 -0.289218
H17   H     H_    0.914149 0.341971 0.801456 0.236424
H18   H     H_    0.010659 0.291163 0.874392 0.229248
C37   C     C_3   0.951386 0.411904 0.971739 -0.945980
H19   H     H_    0.011885 0.429383 0.025068 0.259198
H20   H     H_    0.908220 0.364571 0.028700 0.254344
H21   H     H_    0.914889 0.479886 0.951506 0.268122
O10   O     O_3   0.949679 0.326770 0.448155 -0.563921
C38   C     C_3   0.969094 0.320612 0.321020 0.038715
H22   H     H_    0.005295 0.386106 0.288003 0.140405
H23   H     H_    0.906766 0.312376 0.267540 0.142603
C39   C     C_3   0.027735 0.232033 0.298710 -0.273981
H24   H     H_    0.089633 0.239372 0.352977 0.232427
H25   H     H_    0.992457 0.165881 0.330335 0.242853
C40   C     C_3   0.051596 0.220801 0.162684 -0.934576
H26   H     H_    0.990761 0.212850 0.106545 0.267998
H27   H     H_    0.092882 0.155021 0.149918 0.266788
H28   H     H_    0.089763 0.284625 0.130101 0.259146
O11   O     O_3   0.619308 0.059194 0.647850 -0.577542
C41   C     C_3   0.580443 0.035454 0.762950 0.059622
H29   H     H_    0.610798 0.966536 0.794559 0.182452
H30   H     H_    0.507691 0.021999 0.758046 0.161792
C42   C     C_3   0.599892 0.114353 0.858434 -0.366944
H31   H     H_    0.672431 0.126951 0.863165 0.243188
H32   H     H_    0.567289 0.182983 0.830730 0.200781
C43   C     C_3   0.565754 0.085790 0.985818 -0.891472
H33   H     H_    0.493293 0.072970 0.982736 0.249980
H34   H     H_    0.579160 0.145133 0.052260 0.255493
H35   H     H_    0.599402 0.019018 0.018296 0.277816
O12   O     O_3   0.379030 0.057260 0.353868 -0.574856
C44   C     C_3   0.386779 0.082521 0.227628 0.061269
H36   H     H_    0.399314 0.014892 0.174809 0.176936
H37   H     H_    0.442970 0.132264 0.205784 0.119592
C45   C     C_3   0.299837 0.127002 0.182977 -0.344737
H38   H     H_    0.245634 0.073352 0.194428 0.243107
H39   H     H_    0.283253 0.191777 0.239239 0.216722
C46   C     C_3   0.305869 0.156767 0.047725 -0.901960
H40   H     H_    0.358948 0.211471 0.034463 0.252579
H41   H     H_    0.242010 0.188988 0.018358 0.265900
H42   H     H_    0.320026 0.092644 0.989001 0.270643

loop_
_geom_bond_atom_site_label_1
_geom_bond_atom_site_label_2
_ccdc_geom_bond_type
C15   C18   A    
C35   H16   S    
O11   C41   S    
C7    C29   A    
Cu1   O1    S    
C37   H20   S    
C14   C18   A    
Cu1   Cu2   S    
Cu2   O7    S    
C1    C33   S    
C7    C8    S    
C38   H22   S    
C19   O5    A    
C46   H41   S    
C13   C18   S    
Cu1   O6    S    
Cu2   O4    S    
C24   C26   A    
C36   H17   S    
C39   C40   S    
C45   H39   S    
C35   C36   S    
C3    C33   A    
C45   C46   S    
C36   H18   S    
C28   H6    S    
C10   O12   S    
C9    C13   A    
C1    O1    A    
C25   H1    S    
C44   H36   S    
C31   C33   A    
C20   O8    A    
C37   H19   S    
C2    C34   S    
C35   H15   S    
C21   C22   A    
Cu1   O2    S    
C45   H38   S    
C37   H21   S    
C17   N2    A    
C38   H23   S    
C46   H42   S    
C4    C34   A    
C31   F3    S    
O10   C38   S    
C32   F4    S    
C5    O9    S    
C2    O2    A    
C42   H31   S    
C5    C7    A    
C26   H2    S    
C6    C8    A    
C43   H35   S    
C19   O7    A    
C25   C26   A    
C14   F1    S    
C28   H8    S    
C29   H9    S    
C17   H4    S    
C32   C34   A    
C36   C37   S    
C19   C23   S    
C11   H13   S    
C42   H32   S    
C27   H5    S    
C40   H26   S    
C41   C42   S    
C40   H28   S    
C43   H34   S    
C9    C11   A    
Cu2   N1    S    
C10   C12   A    
C39   H25   S    
C40   H27   S    
C21   C28   S    
C41   H30   S    
O12   C44   S    
C22   C27   S    
C21   C23   A    
C14   C16   A    
C4    C6    A    
C20   O6    A    
Cu1   N2    S    
C12   N1    A    
C4    H12   S    
C38   C39   S    
C15   C17   A    
C44   H37   S    
C30   H10   S    
C16   N2    A    
C39   H24   S    
C3    C5    A    
C10   C13   A    
C12   H14   S    
C6    O10   S    
C46   H40   S    
Cu1   O5    S    
C8    C30   A    
C1    O3    A    
C29   C31   A    
Cu2   O3    S    
C2    O4    A    
C9    O11   S    
C42   C43   S    
C30   C32   A    
C3    H11   S    
C15   F2    S    
C22   C24   A    
C23   C25   A    
C43   H33   S    
C11   N1    A    
C16   H3    S    
C27   H7    S    
C44   C45   S    
C41   H29   S    
O9    C35   S    
C27   C28   S    
Cu2   O8    S    
C20   C24   S    
