data_mof_unit_13090.cif
_audit_creation_date              2012-12-10T17:06:40-0500
_audit_creation_method            fapswitch 2.2
_symmetry_space_group_name_H-M    P1
_symmetry_Int_Tables_number       1
_space_group_crystal_system       triclinic
_cell_length_a                    15.863346
_cell_length_b                    11.047678
_cell_length_c                    9.874476
_cell_angle_alpha                 111.558813
_cell_angle_beta                  98.247106
_cell_angle_gamma                 90.943309
_cell_volume                      1588.31785209

loop_
_atom_site_label
_atom_site_type_symbol
_atom_type_description
_atom_site_fract_x
_atom_site_fract_y
_atom_site_fract_z
_atom_type_partial_charge
C1    C     C_R   0.493837 0.253970 0.440312 0.849018
C2    C     C_R   0.506163 0.746030 0.559688 0.849017
C3    C     C_2   0.501470 0.069668 0.516193 -0.144622
C4    C     C_2   0.498530 0.930332 0.483807 -0.144607
C5    C     C_2   0.509873 0.505515 0.079775 0.095043
C6    C     C_2   0.490134 0.494474 0.920223 0.095051
C7    C     C_R   0.339959 0.500035 0.501039 0.810184
C8    C     C_R   0.660041 0.499965 0.498961 0.810184
C9    C     C_3   0.971976 0.389863 0.515632 -0.299953
C10   C     C_3   0.028024 0.610137 0.484368 -0.299951
C11   C     C_3   0.017596 0.397022 0.390650 0.597923
C12   C     C_3   0.982404 0.602978 0.609349 0.597925
C13   C     C_1   0.250457 0.500718 0.503350 -0.163312
C14   C     C_1   0.749542 0.499282 0.496650 -0.163310
C15   C     C_3   0.038460 0.496469 0.630361 -0.296742
C16   C     C_3   0.961539 0.503531 0.369639 -0.296741
C17   C     C_3   0.083210 0.501621 0.503248 0.049266
C18   C     C_3   0.916789 0.498379 0.496752 0.049266
C19   C     C_1   0.174955 0.501214 0.503945 0.015785
C20   C     C_1   0.825045 0.498786 0.496055 0.015786
C21   C     C_2   0.490496 0.114181 0.406714 -0.358499
C22   C     C_2   0.509504 0.885818 0.593286 -0.358508
Cu1   Cu    Cu3+1 0.514700 0.521810 0.644910 0.970505
Cu2   Cu    Cu3+1 0.485300 0.478190 0.355090 0.970520
H1    H     H_    0.947679 0.299630 0.526561 0.156974
H2    H     H_    0.052321 0.700370 0.473438 0.156974
H3    H     H_    0.928862 0.504899 0.263042 0.161789
H4    H     H_    0.071138 0.495101 0.736958 0.161789
H5    H     H_    0.487217 0.863700 0.368972 0.181969
H6    H     H_    0.512783 0.136300 0.631028 0.181961
H7    H     H_    0.520866 0.952689 0.707948 0.140186
H8    H     H_    0.479134 0.047311 0.292052 0.140192
H9    H     H_    0.433283 0.436242 0.850904 0.139319
H10   H     H_    0.566731 0.563729 0.149089 0.139342
N1    N     N_2   0.463210 0.445420 0.137360 -0.009303
N2    N     N_2   0.536790 0.554580 0.862640 -0.009300
O1    O     O_R   0.507840 0.332340 0.577400 -0.581458
O2    O     O_R   0.492160 0.667660 0.422600 -0.581438
O3    O     O_R   0.483020 0.295500 0.332650 -0.604639
O4    O     O_R   0.516980 0.704500 0.667350 -0.604665
O5    O     O_R   0.391490 0.518400 0.622350 -0.596667
O6    O     O_R   0.608510 0.481600 0.377650 -0.596674
O7    O     O_R   0.366660 0.481570 0.377600 -0.545357
O8    O     O_R   0.633340 0.518430 0.622400 -0.545370
O9    O     O_3   0.042959 0.289867 0.277070 -0.572090
C23   C     C_3   0.970123 0.209463 0.189974 -0.317686
H11   H     H_    0.926872 0.262439 0.135858 0.161621
H12   H     H_    0.935189 0.169123 0.255825 0.156685
H13   H     H_    0.991057 0.125712 0.101352 0.187828
O10   O     O_3   0.957041 0.710133 0.722929 -0.572087
C24   C     C_3   0.029877 0.790537 0.810026 -0.317684
H14   H     H_    0.064811 0.830877 0.744174 0.156683
H15   H     H_    0.073128 0.737561 0.864142 0.161622
H16   H     H_    0.008943 0.874288 0.898647 0.187828
O11   O     O_3   0.614257 0.604310 0.943325 -0.513868
C25   C     C_3   0.628313 0.730596 0.944405 -0.104030
H17   H     H_    0.570090 0.786159 0.958437 0.126576
H18   H     H_    0.653284 0.726957 0.843933 0.185518
H19   H     H_    0.678080 0.785192 0.040017 0.122033
O12   O     O_3   0.385728 0.395746 0.056708 -0.513839
C26   C     C_3   0.371644 0.269448 0.055571 -0.104067
H20   H     H_    0.346690 0.273070 0.156048 0.185519
H21   H     H_    0.429853 0.213841 0.041482 0.126531
H22   H     H_    0.321851 0.214905 0.959973 0.122056

loop_
_geom_bond_atom_site_label_1
_geom_bond_atom_site_label_2
_ccdc_geom_bond_type
C2    C22   S    
C3    H6    S    
C12   O10   S    
O11   C25   S    
C6    H9    S    
C1    C21   S    
C7    O7    A    
C26   H22   S    
C25   H19   S    
C4    C22   D    
C11   C16   S    
C2    O2    A    
Cu2   O2    S    
C4    H5    S    
Cu1   O5    S    
C12   C15   S    
C1    O1    A    
Cu1   Cu2   S    
C24   H16   S    
C5    H10   S    
C10   H2    S    
C16   H3    S    
C26   H21   S    
O10   C24   S    
C9    C15   S    
C9    H1    S    
N2    O11   S    
C10   C16   S    
O9    C23   S    
C9    C11   S    
C23   H13   S    
C8    O8    A    
C15   H4    S    
C5    C6    S    
C10   C12   S    
O12   C26   S    
C5    N1    D    
C17   C19   S    
C25   H18   S    
C18   C20   S    
C7    O5    A    
C26   H20   S    
C21   H8    S    
C23   H12   S    
C3    C21   D    
Cu2   N1    S    
C11   O9    S    
C22   H7    S    
C13   C19   T    
C10   C17   S    
C8    O6    A    
Cu1   O4    S    
C2    O4    A    
C9    C18   S    
C7    C13   S    
Cu2   O3    S    
Cu2   O6    S    
C25   H17   S    
C14   C20   T    
C16   C18   S    
Cu1   N2    S    
C12   C18   S    
C15   C17   S    
Cu2   O7    S    
C1    O3    A    
C23   H11   S    
C11   C17   S    
C8    C14   S    
C24   H15   S    
Cu1   O1    S    
C3    C4    S    
C24   H14   S    
C6    N2    D    
N1    O12   S    
Cu1   O8    S    
