data_mof_unit_46019.cif
_audit_creation_date              2012-10-26T20:51:05-0400
_audit_creation_method            fapswitch 2.2
_symmetry_space_group_name_H-M    P1
_symmetry_Int_Tables_number       1
_space_group_crystal_system       triclinic
_cell_length_a                    13.007618
_cell_length_b                    10.920824
_cell_length_c                    9.655094
_cell_angle_alpha                 88.851838
_cell_angle_beta                  96.119331
_cell_angle_gamma                 94.358676
_cell_volume                      1359.68611943

loop_
_atom_site_label
_atom_site_type_symbol
_atom_type_description
_atom_site_fract_x
_atom_site_fract_y
_atom_site_fract_z
_atom_type_partial_charge
C1    C     C_R   0.499093 0.262545 0.500688 0.544790
C2    C     C_R   0.515751 0.940415 0.374511 -0.168847
C3    C     C_R   0.500657 0.870779 0.495329 -0.023875
C4    C     C_R   0.301264 0.505319 0.473694 0.560526
C5    C     C_R   0.477718 0.931970 0.611762 0.031722
C6    C     C_3   0.524586 0.929013 0.759700 0.016012
C7    C     C_3   0.501085 0.064653 0.765092 0.176824
C8    C     C_R   0.589188 0.525171 0.085428 0.120687
C9    C     C_R   0.414521 0.455679 0.064221 0.325004
C10   C     C_R   0.415235 0.453696 0.915903 0.125545
C11   C     C_R   0.589940 0.522115 0.939716 0.098569
C12   C     C_R   0.028672 0.512731 0.563862 0.009338
C13   C     C_3   0.664981 0.631768 0.942143 -0.254767
C14   C     C_3   0.660626 0.638164 0.098455 -0.240714
C15   C     C_R   0.502561 0.737507 0.498906 0.536968
C16   C     C_R   0.699040 0.496621 0.525907 0.538696
C17   C     C_R   0.812059 0.492929 0.539717 0.001917
C18   C     C_R   0.188768 0.511838 0.457733 0.001791
C19   C     C_R   0.024968 0.490260 0.313023 -0.136457
C20   C     C_R   0.132491 0.503773 0.325687 -0.164418
C21   C     C_R   0.136445 0.522696 0.575645 -0.100038
C22   C     C_3   0.797724 0.306405 0.295628 -0.002262
C23   C     C_R   0.972226 0.491330 0.432165 0.057898
C24   C     C_3   0.729611 0.264053 0.164838 -0.361064
C25   C     C_2   0.640043 0.916350 0.773308 0.108787
C26   C     C_3   0.444547 0.082673 0.983307 -0.009293
C27   C     C_3   0.357198 0.015598 0.056096 -0.367461
C28   C     C_3   0.311061 0.292182 0.136438 -0.026516
C29   C     C_3   0.221852 0.252955 0.221298 -0.365767
C30   C     C_2   0.323113 0.393134 0.836732 0.279019
C31   C     C_2   0.466398 0.838996 0.850095 0.292835
C32   C     C_R   0.864119 0.472600 0.421945 0.245056
C33   C     C_R   0.869209 0.513521 0.669761 -0.177244
C34   C     C_R   0.976780 0.521580 0.682233 -0.146699
C35   C     C_R   0.466654 0.056539 0.611818 0.076838
C36   C     C_R   0.494887 0.128748 0.498674 -0.031582
C37   C     C_R   0.515662 0.068633 0.377449 -0.185271
Cu1   Cu    Cu3+1 0.499990 0.499980 0.640670 1.020071
Cu2   Cu    Cu3+1 0.500010 0.500020 0.359330 0.991628
H1    H     H_    0.568420 0.133104 0.789619 0.127296
H2    H     H_    0.179269 0.538054 0.676810 0.131780
H3    H     H_    0.534553 0.120549 0.285730 0.120677
H4    H     H_    0.532186 0.897015 0.280220 0.133783
H5    H     H_    0.759807 0.269150 0.387519 0.132373
H6    H     H_    0.874433 0.267548 0.295301 0.129742
H7    H     H_    0.649900 0.292879 0.167683 0.154885
H8    H     H_    0.762097 0.304121 0.070710 0.160345
H9    H     H_    0.725539 0.162319 0.158900 0.116362
H10   H     H_    0.675322 0.871202 0.693138 0.122457
H11   H     H_    0.458296 0.179313 0.016585 0.116900
H12   H     H_    0.742116 0.609815 0.915417 0.126828
H13   H     H_    0.517792 0.038357 0.016790 0.113968
H14   H     H_    0.359716 0.914794 0.049838 0.167808
H15   H     H_    0.364154 0.039260 0.167550 0.095074
H16   H     H_    0.280327 0.039999 0.006742 0.183533
H17   H     H_    0.381772 0.254959 0.189251 0.155831
H18   H     H_    0.291354 0.249300 0.033573 0.141004
H19   H     H_    0.148940 0.289063 0.172439 0.145108
H20   H     H_    0.210531 0.151199 0.224481 0.105588
H21   H     H_    0.239251 0.284975 0.329966 0.175979
H22   H     H_    0.246497 0.416292 0.856831 0.084678
H23   H     H_    0.631865 0.708064 0.882465 0.162141
H24   H     H_    0.498651 0.820997 0.956128 0.077106
H25   H     H_    0.735864 0.622587 0.159373 0.187906
H26   H     H_    0.622262 0.718991 0.130653 0.132533
H27   H     H_    0.830949 0.524034 0.762037 0.133246
H28   H     H_    0.983549 0.479091 0.210080 0.150692
H29   H     H_    0.019325 0.537088 0.783906 0.122535
H30   H     H_    0.171300 0.503981 0.232195 0.185783
N1    N     N_R   0.500660 0.500930 0.148010 -0.238771
N2    N     N_R   0.500660 0.500890 0.852110 -0.249940
O1    O     O_R   0.500000 0.319640 0.618810 -0.452600
O2    O     O_2   0.694643 0.953862 0.876802 -0.549164
O3    O     O_3   0.415119 0.081932 0.838117 -0.492559
O4    O     O_3   0.323304 0.421362 0.122206 -0.563611
O5    O     O_2   0.330970 0.308305 0.759266 -0.452350
O6    O     O_2   0.382643 0.787535 0.807299 -0.483320
O7    O     O_R   0.500010 0.319680 0.381230 -0.533373
O8    O     O_R   0.348990 0.499960 0.599490 -0.470668
O9    O     O_R   0.349000 0.500000 0.361910 -0.446789
O10   O     O_R   0.499990 0.680320 0.618770 -0.483856
O11   O     O_R   0.500000 0.680360 0.381190 -0.512821
O12   O     O_R   0.651000 0.500000 0.638090 -0.530974
O13   O     O_R   0.651010 0.500040 0.400510 -0.459558
O14   O     O_3   0.809681 0.436157 0.296525 -0.571831

loop_
_geom_bond_atom_site_label_1
_geom_bond_atom_site_label_2
_ccdc_geom_bond_type
Cu1   O12   S    
C18   C21   A    
C35   C36   A    
C28   H17   S    
C27   H15   S    
C15   O10   A    
C28   H18   S    
C12   C23   A    
C26   C27   S    
C36   C37   A    
Cu2   O13   S    
C4    O9    A    
C26   H11   S    
Cu1   Cu2   S    
C11   N2    A    
C6    C25   S    
Cu1   O8    S    
C16   O13   A    
C22   O14   S    
C37   H3    S    
C13   H12   S    
Cu2   N1    S    
C22   H5    S    
C13   H23   S    
C19   C20   A    
C16   C17   S    
C7    H1    S    
C19   H28   S    
C7    O3    S    
C9    C10   A    
C18   C20   A    
C4    C18   S    
C10   N2    A    
C6    C31   S    
C13   C14   S    
C1    O7    A    
C17   C33   A    
C33   H27   S    
C31   O6    D    
C15   O11   A    
Cu1   O1    S    
C1    O1    A    
C24   H9    S    
Cu2   O7    S    
C31   H24   S    
C9    N1    A    
C4    O8    A    
C34   H29   S    
C12   C21   A    
C16   O12   A    
C19   C23   A    
C26   H13   S    
C30   O5    D    
C10   C30   S    
C29   H21   S    
C2    H4    S    
C14   H25   S    
C33   C34   A    
C21   H2    S    
Cu1   O10   S    
C22   C24   S    
C20   H30   S    
C12   C34   A    
C3    C15   S    
Cu1   N2    S    
C28   C29   S    
C8    C14   S    
C24   H8    S    
C7    C35   S    
Cu2   O11   S    
C3    C5    A    
C27   H14   S    
C6    C7    S    
C27   H16   S    
C8    N1    A    
C24   H7    S    
C23   C32   A    
C2    C3    A    
Cu2   O9    S    
C11   C13   S    
C2    C37   A    
C5    C6    S    
C8    C11   A    
C32   O14   S    
C5    C35   A    
C26   O3    S    
C14   H26   S    
C25   O2    D    
C25   H10   S    
C22   H6    S    
C29   H19   S    
C30   H22   S    
C17   C32   A    
C29   H20   S    
C9    O4    S    
C28   O4    S    
C1    C36   S    
