data_mof_unit_65847.cif
_audit_creation_date              2012-12-10T19:25:15-0500
_audit_creation_method            fapswitch 2.2
_symmetry_space_group_name_H-M    P1
_symmetry_Int_Tables_number       1
_space_group_crystal_system       triclinic
_cell_length_a                    18.659776
_cell_length_b                    18.555739
_cell_length_c                    19.022713
_cell_angle_alpha                 109.723145
_cell_angle_beta                  109.625438
_cell_angle_gamma                 108.897444
_cell_volume                      5080.54520362

loop_
_atom_site_label
_atom_site_type_symbol
_atom_type_description
_atom_site_fract_x
_atom_site_fract_y
_atom_site_fract_z
_atom_type_partial_charge
C1    C     C_R   0.879336 0.379386 0.999043 0.880732
C2    C     C_R   0.184808 0.498464 0.182367 -0.099194
C3    C     C_R   0.256085 0.495198 0.174191 -0.221760
C4    C     C_R   0.882477 0.502915 0.881034 0.928481
C5    C     C_R   0.320931 0.496024 0.239126 -0.217743
C6    C     C_R   0.312531 0.497451 0.310334 -0.095078
C7    C     C_R   0.240210 0.498120 0.314279 0.127672
C8    C     C_3   0.197501 0.502565 0.367943 -0.490412
C9    C     C_3   0.127298 0.504007 0.297645 -0.494910
C10   C     C_R   0.254659 0.759146 0.074226 0.130481
C11   C     C_R   0.183278 0.686132 0.998516 -0.095820
C12   C     C_R   0.815051 0.311437 0.998599 -0.088540
C13   C     C_R   0.176064 0.677191 0.919565 -0.215110
C14   C     C_R   0.240641 0.741979 0.919450 -0.217758
C15   C     C_R   0.313455 0.813851 0.998296 -0.097616
C16   C     C_R   0.119764 0.620285 0.000120 0.880005
C17   C     C_R   0.318034 0.819437 0.074126 0.133023
C18   C     C_3   0.371660 0.872810 0.169889 -0.494646
C19   C     C_3   0.299284 0.802885 0.170013 -0.486754
C20   C     C_R   0.497532 0.379360 0.377914 0.875392
C21   C     C_R   0.616431 0.497888 0.614666 0.928459
C22   C     C_R   0.496694 0.620203 0.616360 0.883650
C23   C     C_R   0.745367 0.237143 0.919952 -0.212503
C24   C     C_R   0.377548 0.499514 0.377351 0.884244
C25   C     C_R   0.501515 0.880204 0.881126 0.883516
C26   C     C_R   0.620418 0.120239 0.000280 0.876345
C27   C     C_R   0.498536 0.120039 0.118941 0.876106
C28   C     C_R   0.119249 0.499512 0.118683 0.885327
C29   C     C_R   0.379815 0.879966 0.999770 0.884300
C30   C     C_R   0.475906 0.309444 0.233147 0.108705
C31   C     C_R   0.494269 0.311347 0.311111 -0.081341
C32   C     C_R   0.499207 0.240955 0.320273 -0.215871
C33   C     C_R   0.499472 0.176547 0.256242 -0.220409
C34   C     C_R   0.680608 0.173253 0.919955 -0.221262
C35   C     C_R   0.492045 0.181768 0.182489 -0.096267
C36   C     C_R   0.473845 0.244614 0.168952 0.150431
C37   C     C_3   0.516889 0.306870 0.143967 -0.498403
C38   C     C_3   0.519305 0.378521 0.215108 -0.481408
C39   C     C_R   0.502259 0.760453 0.683778 0.128785
C40   C     C_2   0.758773 0.508802 0.682013 -0.154106
C41   C     C_R   0.501069 0.686249 0.685379 -0.096911
C42   C     C_R   0.504101 0.677480 0.756900 -0.214047
C43   C     C_R   0.506887 0.742997 0.823674 -0.219645
C44   C     C_R   0.503902 0.815425 0.817137 -0.099102
C45   C     C_R   0.687695 0.182926 0.998682 -0.089054
C46   C     C_R   0.501868 0.821511 0.746105 0.135633
C47   C     C_3   0.494868 0.873621 0.701857 -0.489522
C48   C     C_3   0.494548 0.802914 0.629798 -0.493526
C49   C     C_2   0.680644 0.490492 0.675616 -0.336983
C50   C     C_2   0.820262 0.497399 0.743378 -0.157320
C51   C     C_2   0.822692 0.512536 0.818283 -0.333490
C52   C     C_R   0.826010 0.314802 0.075911 0.107118
C53   C     C_R   0.763443 0.250358 0.075860 0.147165
C54   C     C_3   0.772603 0.314769 0.155652 -0.509116
C55   C     C_3   0.841420 0.386018 0.155446 -0.470133
C56   C     C_R   0.179775 0.500305 0.253701 0.136862
H1    H     H_    0.775925 0.527930 0.639406 0.165108
H2    H     H_    0.234642 0.735260 0.858613 0.159017
H3    H     H_    0.435021 0.873346 0.194818 0.211220
H4    H     H_    0.659743 0.461805 0.711236 0.156513
H5    H     H_    0.375902 0.938398 0.195368 0.198723
H6    H     H_    0.320722 0.762630 0.194398 0.200151
H7    H     H_    0.262105 0.828190 0.196207 0.212771
H8    H     H_    0.507672 0.238596 0.378521 0.154379
H9    H     H_    0.508042 0.124705 0.265326 0.158113
H10   H     H_    0.582811 0.316380 0.156454 0.190818
H11   H     H_    0.472523 0.291200 0.078272 0.209512
H12   H     H_    0.908115 0.417088 0.210742 0.195447
H13   H     H_    0.586712 0.429613 0.268962 0.217338
H14   H     H_    0.476335 0.404218 0.190487 0.196663
H15   H     H_    0.504452 0.620773 0.761059 0.158177
H16   H     H_    0.865605 0.479854 0.728424 0.162469
H17   H     H_    0.508662 0.735886 0.878378 0.159665
H18   H     H_    0.431727 0.873824 0.681610 0.211478
H19   H     H_    0.554395 0.939253 0.737855 0.196467
H20   H     H_    0.431032 0.762116 0.568295 0.196928
H21   H     H_    0.553663 0.827656 0.623681 0.213877
H22   H     H_    0.784580 0.539872 0.837573 0.157335
H23   H     H_    0.262352 0.493804 0.119215 0.159497
H24   H     H_    0.738688 0.231110 0.859113 0.157820
H25   H     H_    0.624510 0.118006 0.859244 0.152747
H26   H     H_    0.712605 0.320292 0.143915 0.191832
H27   H     H_    0.799664 0.304487 0.210856 0.209643
H28   H     H_    0.821198 0.432796 0.143385 0.217079
H29   H     H_    0.376511 0.494849 0.233555 0.153731
H30   H     H_    0.172980 0.441579 0.371663 0.213866
H31   H     H_    0.237691 0.565208 0.430701 0.196953
H32   H     H_    0.062409 0.443469 0.260207 0.196264
H33   H     H_    0.126403 0.567159 0.320009 0.210631
H34   H     H_    0.120832 0.621146 0.858798 0.157047
O1    O     O_R   0.908050 0.460100 0.051390 -0.625935
O2    O     O_R   0.551950 0.908320 0.960240 -0.622295
O3    O     O_R   0.540220 0.091590 0.948580 -0.625170
O4    O     O_R   0.908730 0.356680 0.948620 -0.621163
O5    O     O_R   0.643000 0.091540 0.051310 -0.618170
O6    O     O_R   0.448050 0.091580 0.039660 -0.618451
O7    O     O_R   0.550830 0.091520 0.142390 -0.625570
O8    O     O_R   0.357000 0.908370 0.948590 -0.622193
O9    O     O_R   0.459780 0.908310 0.051320 -0.625653
O10   O     O_R   0.908630 0.551710 0.960350 -0.622458
O11   O     O_R   0.909310 0.448290 0.857570 -0.620191
O12   O     O_R   0.445680 0.356610 0.405790 -0.621324
O13   O     O_R   0.091270 0.643320 0.051380 -0.620926
O14   O     O_R   0.091950 0.539900 0.948610 -0.628916
O15   O     O_R   0.090690 0.551710 0.142430 -0.624986
O16   O     O_R   0.091370 0.448290 0.039650 -0.621697
O17   O     O_R   0.549120 0.460050 0.405790 -0.629109
O18   O     O_R   0.639540 0.551640 0.587850 -0.615033
O19   O     O_R   0.536110 0.448210 0.587860 -0.627927
O20   O     O_R   0.547900 0.643240 0.587840 -0.618792
O21   O     O_R   0.444470 0.539800 0.587850 -0.625763
O22   O     O_R   0.457480 0.551640 0.405780 -0.626645
O23   O     O_R   0.354050 0.448210 0.405780 -0.619640
O24   O     O_R   0.449170 0.908380 0.857510 -0.626270
Zn1   Zn    Zn3+2 0.999540 0.569060 0.068630 0.944571
Zn2   Zn    Zn3+2 0.000460 0.430940 0.931370 0.950172
Zn3   Zn    Zn3+2 0.565860 0.568990 0.496810 0.945826
Zn4   Zn    Zn3+2 0.427730 0.430860 0.496820 0.950248
Zn5   Zn    Zn3+2 0.431370 0.999990 0.931350 0.948329
Zn6   Zn    Zn3+2 0.568630 0.999910 0.068550 0.949183

loop_
_geom_bond_atom_site_label_1
_geom_bond_atom_site_label_2
_ccdc_geom_bond_type
C43   H17   S    
C38   H14   S    
C13   H34   S    
C41   C42   A    
C48   H20   S    
O6    Zn5   S    
C35   C36   A    
C24   O22   A    
C3    H23   S    
C21   C49   S    
C55   H12   S    
C33   H9    S    
C7    C8    S    
C39   C41   A    
C53   C54   S    
C1    C12   S    
C12   C23   A    
C30   C38   S    
C49   H4    S    
C29   O8    A    
O21   Zn4   S    
C5    C6    A    
C36   C37   S    
C9    H32   S    
C30   C31   A    
C22   C41   S    
C20   O12   A    
C10   C17   A    
C40   C49   D    
C25   C44   S    
C18   C19   S    
C46   C47   S    
C50   H16   S    
C26   C45   S    
O9    Zn6   S    
O14   Zn2   S    
C16   O14   A    
C31   C32   A    
C28   O16   A    
C1    O4    A    
C22   O20   A    
C34   H25   S    
C23   H24   S    
C28   O15   A    
O24   Zn5   S    
O12   Zn4   S    
C52   C55   S    
C20   O17   A    
C5    H29   S    
C26   O3    A    
C38   H13   S    
C45   C53   A    
C24   O23   A    
C1    O1    A    
C13   C14   A    
C37   H10   S    
C27   O6    A    
O10   Zn1   S    
C7    C56   A    
O20   Zn3   S    
C54   H27   S    
C12   C52   A    
C44   C46   A    
O19   Zn4   S    
C15   C29   S    
C14   H2    S    
C29   O9    A    
C4    C51   S    
C19   H6    S    
O8    Zn5   S    
C32   H8    S    
C9    H33   S    
C9    C56   S    
O4    Zn2   S    
C8    C9    S    
C27   C35   S    
O16   Zn2   S    
C48   H21   S    
O13   Zn1   S    
C43   C44   A    
C37   C38   S    
C11   C16   S    
C16   O13   A    
C47   C48   S    
C10   C19   S    
C23   C34   A    
C6    C24   S    
C4    O11   A    
C17   C18   S    
C50   C51   D    
C34   C45   A    
C19   H7    S    
C39   C46   A    
C4    O10   A    
C42   C43   A    
C54   H26   S    
C52   C53   A    
C26   O5    A    
C15   C17   A    
C54   C55   S    
C27   O7    A    
C25   O2    A    
C40   H1    S    
O18   Zn3   S    
O15   Zn1   S    
C47   H18   S    
C3    C5    A    
C21   O19   A    
C18   H5    S    
C6    C7    A    
O5    Zn6   S    
C30   C36   A    
C8    H31   S    
C32   C33   A    
O7    Zn6   S    
C2    C3    A    
O2    Zn6   S    
C51   H22   S    
C47   H19   S    
C2    C56   A    
C25   O24   A    
C11   C13   A    
O22   Zn3   S    
C40   C50   S    
C37   H11   S    
C42   H15   S    
C33   C35   A    
O1    Zn1   S    
C8    H30   S    
C21   O18   A    
C10   C11   A    
O23   Zn4   S    
C18   H3    S    
C22   O21   A    
O11   Zn2   S    
C14   C15   A    
C2    C28   S    
O3    Zn5   S    
C55   H28   S    
O17   Zn3   S    
C39   C48   S    
C20   C31   S    
