data_mof_unit_60688.cif
_audit_creation_date              2012-12-10T19:59:57-0500
_audit_creation_method            fapswitch 2.2
_symmetry_space_group_name_H-M    P1
_symmetry_Int_Tables_number       1
_space_group_crystal_system       triclinic
_cell_length_a                    18.432036
_cell_length_b                    18.449954
_cell_length_c                    36.13002
_cell_angle_alpha                 89.925069
_cell_angle_beta                  89.942284
_cell_angle_gamma                 89.976732
_cell_volume                      12286.7259697

loop_
_atom_site_label
_atom_site_type_symbol
_atom_type_description
_atom_site_fract_x
_atom_site_fract_y
_atom_site_fract_z
_atom_type_partial_charge
C1    C     C_R   0.500063 0.999917 0.901144 0.815968
C2    C     C_R   0.999855 0.500030 0.901138 0.815634
C3    C     C_R   0.000066 0.499993 0.401145 0.816356
C4    C     C_R   0.500040 0.000032 0.401154 0.816199
C5    C     C_R   0.488366 0.065927 0.230766 0.091589
C6    C     C_R   0.932742 0.499826 0.230956 0.088557
C7    C     C_R   0.506043 0.933882 0.230652 0.093013
C8    C     C_R   0.065870 0.494608 0.230397 0.095918
C9    C     C_R   0.003593 0.566853 0.730711 0.088808
C10   C     C_R   0.432928 0.996096 0.731146 0.091963
C11   C     C_R   0.001714 0.433837 0.730649 0.092335
C12   C     C_R   0.565792 0.007410 0.730582 0.098581
C13   C     C_R   0.496994 0.999945 0.211253 0.110155
C14   C     C_R   0.999154 0.497501 0.211244 0.111001
C15   C     C_R   0.003208 0.500367 0.711215 0.113985
C16   C     C_R   0.499116 0.002466 0.711257 0.101565
C17   C     C_1   0.997490 0.500040 0.828331 -0.055215
C18   C     C_1   0.500532 0.999001 0.828396 -0.056225
C19   C     C_1   0.501353 0.000066 0.328379 -0.055053
C20   C     C_1   0.000551 0.501285 0.328358 -0.055031
C21   C     C_1   0.497122 0.999850 0.171475 -0.065978
C22   C     C_1   0.999413 0.497691 0.171451 -0.062841
C23   C     C_1   0.003195 0.500160 0.671509 -0.056945
C24   C     C_1   0.499441 0.002003 0.671575 -0.073737
C25   C     C_1   0.498364 0.999869 0.138241 -0.144109
C26   C     C_1   0.999757 0.498744 0.138246 -0.143637
C27   C     C_1   0.001879 0.499979 0.638217 -0.143360
C28   C     C_1   0.499780 0.001094 0.638213 -0.145695
C29   C     C_1   0.998598 0.500057 0.861607 -0.147033
C30   C     C_1   0.500294 0.999407 0.861698 -0.146224
C31   C     C_1   0.500718 0.000073 0.361614 -0.145654
C32   C     C_1   0.000315 0.500622 0.361594 -0.145914
C33   C     C_R   0.499810 0.999959 0.098799 0.820183
C34   C     C_R   0.999949 0.499884 0.098806 0.820499
C35   C     C_R   0.000257 0.499972 0.598808 0.817324
C36   C     C_R   0.499953 0.000112 0.598846 0.817603
C37   C     C_R   0.638553 0.858527 0.999514 0.823441
C38   C     C_R   0.140428 0.639816 0.000316 0.829680
C39   C     C_R   0.359104 0.139255 0.001223 0.831392
C40   C     C_R   0.859463 0.360324 0.000311 0.826362
C41   C     C_R   0.639593 0.140606 0.000111 0.830781
C42   C     C_R   0.139317 0.359166 0.001190 0.831399
C43   C     C_R   0.360254 0.859484 0.000344 0.824148
C44   C     C_R   0.858731 0.638874 0.999824 0.826902
C45   C     C_R   0.139530 0.359094 0.500192 0.827357
C46   C     C_R   0.641509 0.138514 0.499407 0.829168
C47   C     C_R   0.861568 0.641666 0.499295 0.830079
C48   C     C_R   0.358684 0.861247 0.499620 0.834319
C49   C     C_R   0.138527 0.641490 0.499383 0.830281
C50   C     C_R   0.641683 0.861616 0.499230 0.831493
C51   C     C_R   0.861088 0.358762 0.499719 0.831474
C52   C     C_R   0.360164 0.140508 0.501023 0.820540
C53   C     C_R   0.240137 0.811720 0.984033 0.085263
C54   C     C_R   0.192133 0.243620 0.981546 0.087497
C55   C     C_R   0.760334 0.188124 0.984423 0.079992
C56   C     C_R   0.803280 0.751877 0.978711 0.084615
C57   C     C_R   0.243554 0.192186 0.981568 0.087197
C58   C     C_R   0.188363 0.759886 0.983889 0.079947
C59   C     C_R   0.752129 0.803319 0.978673 0.088317
C60   C     C_R   0.812104 0.239872 0.984585 0.085370
C61   C     C_R   0.738959 0.312508 0.486290 0.080694
C62   C     C_R   0.686104 0.738288 0.488595 0.075347
C63   C     C_R   0.252909 0.695815 0.478459 0.084481
C64   C     C_R   0.314679 0.262879 0.487319 0.086137
C65   C     C_R   0.738189 0.686213 0.488678 0.076559
C66   C     C_R   0.687259 0.260629 0.486216 0.083501
C67   C     C_R   0.262456 0.314802 0.487207 0.079685
C68   C     C_R   0.304551 0.746932 0.478741 0.081367
C69   C     C_R   0.304075 0.804287 0.003880 -0.131978
C70   C     C_R   0.192300 0.301073 0.005932 -0.132959
C71   C     C_R   0.695155 0.196417 0.002898 -0.125022
C72   C     C_R   0.798116 0.689487 0.999509 -0.138277
C73   C     C_R   0.300972 0.192218 0.005971 -0.132714
C74   C     C_R   0.195597 0.695993 0.003652 -0.125751
C75   C     C_R   0.689022 0.797906 0.998915 -0.143711
C76   C     C_R   0.803878 0.304551 0.003521 -0.132255
C77   C     C_R   0.807208 0.301123 0.501342 -0.120574
C78   C     C_R   0.700508 0.808845 0.499528 -0.117384
C79   C     C_R   0.188989 0.702143 0.498236 -0.134105
C80   C     C_R   0.306385 0.197939 0.506246 -0.143605
C81   C     C_R   0.808722 0.700443 0.499901 -0.120342
C82   C     C_R   0.699383 0.192004 0.500666 -0.122613
C83   C     C_R   0.196089 0.304216 0.504439 -0.131345
C84   C     C_R   0.298357 0.810391 0.498848 -0.129016
C85   C     C_R   0.309988 0.744624 0.029240 0.048289
C86   C     C_R   0.244299 0.299745 0.035578 0.056054
C87   C     C_R   0.687163 0.257531 0.026944 0.052020
C88   C     C_R   0.732235 0.677465 0.020097 0.060282
C89   C     C_R   0.299635 0.244169 0.035678 0.056603
C90   C     C_R   0.254758 0.690006 0.029099 0.054040
C91   C     C_R   0.675889 0.731583 0.018843 0.060044
C92   C     C_R   0.742284 0.312134 0.027542 0.048179
C93   C     C_R   0.819972 0.234563 0.520690 0.044111
C94   C     C_R   0.770003 0.825027 0.515062 0.049253
C95   C     C_R   0.175558 0.769125 0.517359 0.051700
C96   C     C_R   0.246288 0.191699 0.531628 0.058313
C97   C     C_R   0.824891 0.770026 0.515502 0.048256
C98   C     C_R   0.765959 0.178994 0.519904 0.047455
C99   C     C_R   0.188175 0.243121 0.528710 0.063083
C100  C     C_R   0.231174 0.823722 0.517891 0.052980
C101  C     C_3   0.158246 0.783106 0.947463 -0.454093
C102  C     C_3   0.221277 0.162359 0.944998 -0.456139
C103  C     C_3   0.845924 0.213636 0.949566 -0.451748
C104  C     C_3   0.793401 0.851832 0.953400 -0.454534
C105  C     C_3   0.162326 0.221310 0.944973 -0.456063
C106  C     C_3   0.216977 0.841914 0.947546 -0.451688
C107  C     C_3   0.852263 0.792682 0.953465 -0.454225
C108  C     C_3   0.787091 0.154793 0.949406 -0.454696
C109  C     C_3   0.649467 0.291643 0.453194 -0.453469
C110  C     C_3   0.704949 0.646363 0.456898 -0.450108
C111  C     C_3   0.355343 0.703960 0.454817 -0.446791
C112  C     C_3   0.285968 0.344150 0.450693 -0.453563
C113  C     C_3   0.646352 0.704924 0.456817 -0.450561
C114  C     C_3   0.708163 0.350638 0.453328 -0.453970
C115  C     C_3   0.344766 0.285740 0.450943 -0.450801
C116  C     C_3   0.296102 0.645082 0.454644 -0.446984
C117  C     C_R   0.997626 0.434491 0.769395 -0.216394
C118  C     C_R   0.565585 0.004814 0.769340 -0.213513
C119  C     C_R   0.000324 0.565863 0.769452 -0.210538
C120  C     C_R   0.434609 0.994608 0.769815 -0.197347
C121  C     C_R   0.508884 0.934940 0.269452 -0.212122
C122  C     C_R   0.065776 0.497939 0.269218 -0.217132
C123  C     C_R   0.490787 0.065077 0.269538 -0.206727
C124  C     C_R   0.934357 0.501781 0.269712 -0.203935
C125  C     C_R   0.996941 0.500142 0.788672 0.103806
C126  C     C_R   0.500360 0.998918 0.788813 0.095627
C127  C     C_R   0.501644 0.000172 0.288693 0.100524
C128  C     C_R   0.000338 0.501697 0.288656 0.101207
H1    H     H_    0.165883 0.741961 0.925428 0.206346
H2    H     H_    0.263286 0.170564 0.923339 0.203613
H3    H     H_    0.840573 0.252951 0.926414 0.206158
H4    H     H_    0.765566 0.858132 0.926299 0.206483
H5    H     H_    0.170606 0.263207 0.923285 0.203756
H6    H     H_    0.258281 0.834545 0.925505 0.205920
H7    H     H_    0.858570 0.764649 0.926422 0.206758
H8    H     H_    0.747990 0.160345 0.926188 0.206375
H9    H     H_    0.651853 0.256053 0.428374 0.206756
H10   H     H_    0.739362 0.646879 0.431539 0.208851
H11   H     H_    0.363526 0.730479 0.427173 0.206156
H12   H     H_    0.244814 0.336451 0.428576 0.207218
H13   H     H_    0.646945 0.739205 0.431417 0.208673
H14   H     H_    0.744080 0.348781 0.428593 0.207851
H15   H     H_    0.337471 0.244425 0.428916 0.208208
H16   H     H_    0.269981 0.637272 0.426906 0.205055
H17   H     H_    0.102329 0.805023 0.950227 0.204658
H18   H     H_    0.199426 0.106409 0.947406 0.207347
H19   H     H_    0.901434 0.191992 0.954242 0.203754
H20   H     H_    0.810405 0.902914 0.967162 0.203428
H21   H     H_    0.106302 0.199509 0.947365 0.207086
H22   H     H_    0.194755 0.897663 0.950265 0.204526
H23   H     H_    0.903437 0.809386 0.967292 0.203751
H24   H     H_    0.808713 0.099287 0.954045 0.203797
H25   H     H_    0.594538 0.312511 0.460280 0.201926
H26   H     H_    0.684268 0.592132 0.465453 0.199521
H27   H     H_    0.405838 0.687422 0.469861 0.199038
H28   H     H_    0.307941 0.400006 0.453168 0.203296
H29   H     H_    0.592017 0.684348 0.465345 0.199677
H30   H     H_    0.686900 0.405278 0.460561 0.201386
H31   H     H_    0.400492 0.308071 0.453599 0.202138
H32   H     H_    0.312125 0.594418 0.469697 0.200312
H33   H     H_    0.997387 0.383829 0.784675 0.142736
H34   H     H_    0.616243 0.008841 0.784472 0.143485
H35   H     H_    0.002427 0.616377 0.784759 0.144412
H36   H     H_    0.384188 0.990486 0.785179 0.150146
H37   H     H_    0.514568 0.884568 0.284694 0.143686
H38   H     H_    0.116476 0.495143 0.284298 0.143233
H39   H     H_    0.482532 0.114972 0.284812 0.145900
H40   H     H_    0.883883 0.501946 0.285125 0.146452
O1    O     O_3   0.500000 0.000000 0.000000 -0.483985
O2    O     O_3   0.000000 0.500000 0.000000 -0.483853
O3    O     O_3   0.000000 0.500000 0.500000 -0.484931
O4    O     O_3   0.500000 0.000000 0.500000 -0.485368
O5    O     O_R   0.439300 0.000000 0.918540 -0.639289
O6    O     O_R   0.000000 0.439300 0.918540 -0.639341
O7    O     O_R   0.560700 0.000000 0.918540 -0.640354
O8    O     O_R   0.000000 0.560700 0.918540 -0.639762
O9    O     O_R   0.939300 0.500000 0.418540 -0.640165
O10   O     O_R   0.500000 0.939300 0.418540 -0.639873
O11   O     O_R   0.060700 0.500000 0.418540 -0.640004
O12   O     O_R   0.500000 0.060700 0.418540 -0.639715
O13   O     O_R   0.500000 0.939270 0.081460 -0.636162
O14   O     O_R   0.060730 0.500000 0.081460 -0.634400
O15   O     O_R   0.500000 0.060730 0.081460 -0.636961
O16   O     O_R   0.939270 0.500000 0.081460 -0.639100
O17   O     O_R   0.000000 0.439270 0.581460 -0.640250
O18   O     O_R   0.560730 0.000000 0.581460 -0.635300
O19   O     O_R   0.000000 0.560730 0.581460 -0.636289
O20   O     O_R   0.439270 0.000000 0.581460 -0.643401
O21   O     O_R   0.646180 0.914510 0.978640 -0.645294
O22   O     O_R   0.085490 0.646180 0.978640 -0.647785
O23   O     O_R   0.353820 0.085490 0.978640 -0.644399
O24   O     O_R   0.914510 0.353820 0.978640 -0.645591
O25   O     O_R   0.646180 0.085490 0.978640 -0.648083
O26   O     O_R   0.085490 0.353820 0.978640 -0.644420
O27   O     O_R   0.353820 0.914510 0.978640 -0.645228
O28   O     O_R   0.914510 0.646180 0.978640 -0.645866
O29   O     O_R   0.146180 0.414510 0.478640 -0.644698
O30   O     O_R   0.585490 0.146180 0.478640 -0.650124
O31   O     O_R   0.853820 0.585490 0.478640 -0.647059
O32   O     O_R   0.414510 0.853820 0.478640 -0.648727
O33   O     O_R   0.146180 0.585490 0.478640 -0.648377
O34   O     O_R   0.585490 0.853820 0.478640 -0.648937
O35   O     O_R   0.853820 0.414510 0.478640 -0.649157
O36   O     O_R   0.414510 0.146180 0.478640 -0.641815
O37   O     O_R   0.414550 0.146120 0.021350 -0.638378
O38   O     O_R   0.853880 0.414550 0.021350 -0.634553
O39   O     O_R   0.585450 0.853880 0.021350 -0.629190
O40   O     O_R   0.146120 0.585450 0.021350 -0.624434
O41   O     O_R   0.414550 0.853880 0.021350 -0.633775
O42   O     O_R   0.853880 0.585450 0.021350 -0.629617
O43   O     O_R   0.585450 0.146120 0.021350 -0.624743
O44   O     O_R   0.146120 0.414550 0.021350 -0.637892
O45   O     O_R   0.914550 0.646120 0.521350 -0.635719
O46   O     O_R   0.353880 0.914550 0.521350 -0.615247
O47   O     O_R   0.085450 0.353880 0.521350 -0.637043
O48   O     O_R   0.646120 0.085450 0.521350 -0.616021
O49   O     O_R   0.914550 0.353880 0.521350 -0.615992
O50   O     O_R   0.353880 0.085450 0.521350 -0.642805
O51   O     O_R   0.085450 0.646120 0.521350 -0.619352
O52   O     O_R   0.646120 0.914550 0.521350 -0.628223
Zn1   Zn    Zn3+2 0.500000 0.913220 0.030510 0.970485
Zn2   Zn    Zn3+2 0.086780 0.500000 0.030510 0.970267
Zn3   Zn    Zn3+2 0.500000 0.086780 0.030510 0.968549
Zn4   Zn    Zn3+2 0.913220 0.500000 0.030510 0.968110
Zn5   Zn    Zn3+2 0.000000 0.413220 0.530510 0.971424
Zn6   Zn    Zn3+2 0.586780 0.000000 0.530510 0.974568
Zn7   Zn    Zn3+2 0.000000 0.586780 0.530510 0.971980
Zn8   Zn    Zn3+2 0.413220 0.000000 0.530510 0.970298
Zn9   Zn    Zn3+2 0.586770 0.000000 0.969480 0.955665
Zn10  Zn    Zn3+2 0.000000 0.586770 0.969480 0.955941
Zn11  Zn    Zn3+2 0.413230 0.000000 0.969480 0.957736
Zn12  Zn    Zn3+2 0.000000 0.413230 0.969480 0.957878
Zn13  Zn    Zn3+2 0.086770 0.500000 0.469480 0.956890
Zn14  Zn    Zn3+2 0.500000 0.086770 0.469480 0.955884
Zn15  Zn    Zn3+2 0.913230 0.500000 0.469480 0.955780
Zn16  Zn    Zn3+2 0.500000 0.913230 0.469480 0.956375
N1    N     N_3   0.372026 0.740122 0.053694 -0.416858
H41   H     H_    0.367685 0.781413 0.073447 0.204181
H42   H     H_    0.376397 0.692295 0.068644 0.165536
N2    N     N_3   0.238957 0.354344 0.064327 -0.419399
H43   H     H_    0.256450 0.403976 0.053734 0.209209
H44   H     H_    0.269296 0.345632 0.088072 0.168400
N3    N     N_3   0.624233 0.262367 0.050456 -0.427358
H45   H     H_    0.634353 0.239469 0.076300 0.194379
H46   H     H_    0.600473 0.314523 0.050460 0.175028
N4    N     N_3   0.725679 0.612174 0.042200 -0.412492
H47   H     H_    0.723823 0.567385 0.024557 0.202528
H48   H     H_    0.681429 0.608606 0.060029 0.171863
N5    N     N_3   0.353761 0.238379 0.064613 -0.420760
H49   H     H_    0.403754 0.255441 0.054263 0.209495
H50   H     H_    0.344859 0.268904 0.088286 0.167839
N6    N     N_3   0.257071 0.629304 0.054236 -0.425815
H51   H     H_    0.230231 0.641436 0.079060 0.190667
H52   H     H_    0.308204 0.606711 0.057676 0.176069
N7    N     N_3   0.606275 0.721487 0.036869 -0.402329
H53   H     H_    0.565732 0.727446 0.016853 0.198272
H54   H     H_    0.596420 0.669857 0.046918 0.158719
N8    N     N_3   0.736392 0.375204 0.051295 -0.419593
H55   H     H_    0.775948 0.370612 0.071905 0.204507
H56   H     H_    0.687035 0.380433 0.065325 0.163387
N9    N     N_3   0.887629 0.223973 0.539984 -0.413741
H57   H     H_    0.923446 0.193086 0.524058 0.187238
H58   H     H_    0.880231 0.201172 0.566242 0.176741
N10   N     N_3   0.782895 0.896595 0.529887 -0.434492
H59   H     H_    0.770330 0.897702 0.558126 0.203762
H60   H     H_    0.834440 0.917073 0.524106 0.166076
N11   N     N_3   0.106335 0.779598 0.535620 -0.407448
H61   H     H_    0.066430 0.788326 0.515220 0.191941
H62   H     H_    0.104708 0.823306 0.554241 0.168340
N12   N     N_3   0.242255 0.132764 0.558303 -0.415646
H63   H     H_    0.292680 0.125641 0.570689 0.210060
H64   H     H_    0.214342 0.149099 0.581895 0.148552
N13   N     N_3   0.896545 0.783252 0.530471 -0.435384
H65   H     H_    0.899130 0.761030 0.557192 0.208625
H66   H     H_    0.911091 0.837532 0.532167 0.162388
N14   N     N_3   0.778203 0.109389 0.537178 -0.414293
H67   H     H_    0.801218 0.073262 0.518230 0.184087
H68   H     H_    0.809244 0.111958 0.561240 0.174108
N15   N     N_3   0.119881 0.231426 0.547676 -0.422627
H69   H     H_    0.113117 0.270386 0.568541 0.208467
H70   H     H_    0.116045 0.181301 0.560639 0.178642
N16   N     N_3   0.219948 0.893150 0.535713 -0.413938
H71   H     H_    0.194491 0.929795 0.517554 0.187351
H72   H     H_    0.194403 0.890127 0.561720 0.182611
N17   N     N_3   0.504772 0.865396 0.211471 -0.447828
H73   H     H_    0.529089 0.825538 0.227943 0.174183
H74   H     H_    0.537124 0.868678 0.187826 0.190346
N18   N     N_3   0.132604 0.481550 0.210715 -0.445415
H75   H     H_    0.177049 0.488623 0.228322 0.175692
H76   H     H_    0.138259 0.520298 0.189853 0.186301
N19   N     N_3   0.469312 0.132257 0.211972 -0.446197
H77   H     H_    0.489664 0.176208 0.226987 0.173792
H78   H     H_    0.495596 0.135054 0.186420 0.189715
N20   N     N_3   0.863784 0.492036 0.212597 -0.451436
H79   H     H_    0.825291 0.523798 0.226342 0.174741
H80   H     H_    0.866121 0.513149 0.185818 0.192037
N21   N     N_3   0.010803 0.366280 0.711156 -0.449613
H81   H     H_    0.999516 0.322703 0.728817 0.175484
H82   H     H_    0.972528 0.363355 0.689974 0.187352
N22   N     N_3   0.632917 0.020231 0.711077 -0.448418
H83   H     H_    0.676575 0.004502 0.727768 0.172957
H84   H     H_    0.635723 0.986341 0.688054 0.190469
N23   N     N_3   0.014869 0.634611 0.711597 -0.444653
H85   H     H_    0.994614 0.677082 0.727773 0.174307
H86   H     H_    0.983883 0.635614 0.687466 0.188210
N24   N     N_3   0.363644 0.988953 0.713005 -0.453200
H87   H     H_    0.328347 0.027465 0.724289 0.176604
H88   H     H_    0.366995 0.001601 0.684908 0.194628

loop_
_geom_bond_atom_site_label_1
_geom_bond_atom_site_label_2
_ccdc_geom_bond_type
C94   N10   S    
N7    H54   S    
O7    Zn9   S    
N19   H77   S    
O11   Zn13  S    
C53   C69   A    
C111  H11   S    
N23   H86   S    
C57   C102  S    
N16   H71   S    
C2    C29   S    
C59   C104  S    
C9    N23   S    
C46   O30   A    
C10   N24   S    
C96   C99   A    
O41   Zn1   S    
C41   O25   A    
O5    Zn11  S    
C124  H40   S    
C11   C15   A    
C53   C106  S    
C12   C16   A    
C38   O22   A    
C86   N2    S    
C60   C103  S    
C5    C13   A    
C37   C75   S    
O12   Zn14  S    
C64   C115  S    
C82   C98   A    
C5    N19   S    
O50   Zn8   S    
C115  H15   S    
C50   O34   A    
C44   O28   A    
O42   Zn4   S    
O13   Zn1   S    
C84   C100  A    
C110  H10   S    
O9    Zn15  S    
C94   C97   A    
C27   C35   S    
O37   Zn3   S    
O48   Zn6   S    
O1    Zn11  S    
C36   O20   A    
O31   Zn15  S    
C66   C82   A    
C39   O23   A    
N23   H85   S    
C40   O24   A    
C53   C58   A    
O43   Zn3   S    
N24   H87   S    
C13   C21   S    
C58   C101  S    
C98   N14   S    
O2    Zn4   S    
O28   Zn10  S    
N12   H64   S    
N22   H83   S    
C105  H5    S    
C118  H34   S    
C54   C105  S    
C102  H2    S    
C85   C90   A    
C121  C127  A    
C63   C68   A    
C56   C59   A    
C74   C90   A    
C9    C15   A    
N17   H74   S    
C10   C16   A    
O10   Zn16  S    
C91   N7    S    
C78   C94   A    
C45   O47   A    
C44   C72   S    
C47   C81   S    
C43   O41   A    
C65   C110  S    
C88   N4    S    
C8    N18   S    
C95   N11   S    
C7    C13   A    
O23   Zn11  S    
C113  H29   S    
C37   O39   A    
O6    Zn12  S    
C104  C107  S    
C55   C71   A    
N6    H51   S    
C67   C83   A    
C106  H22   S    
N11   H62   S    
C112  H12   S    
C103  H19   S    
O44   Zn2   S    
C101  H17   S    
N5    H49   S    
C49   O51   A    
N19   H78   S    
N9    H57   S    
O40   Zn2   S    
C42   C70   S    
C43   O27   A    
C57   C73   A    
C116  H16   S    
C99   N15   S    
C61   C77   A    
N10   H59   S    
O2    Zn12  S    
O36   Zn14  S    
C44   O42   A    
C75   C91   A    
C41   C71   S    
C107  H23   S    
N15   H70   S    
C43   C69   S    
N1    H41   S    
N21   H82   S    
C47   O31   A    
C45   C83   S    
C7    C121  A    
C11   N21   S    
C49   O33   A    
C46   C82   S    
O29   Zn13  S    
C56   C72   A    
N18   H76   S    
C6    C14   A    
O19   Zn7   S    
C67   C112  S    
C123  C127  A    
C88   C91   A    
O17   Zn5   S    
O52   Zn6   S    
C109  C114  S    
C35   O19   A    
O39   Zn1   S    
C104  H4    S    
O22   Zn10  S    
C42   O44   A    
C58   C74   A    
C20   C32   T    
C101  C106  S    
C21   C25   T    
N4    H47   S    
C1    O7    A    
C62   C78   A    
C24   C28   T    
C4    O10   A    
O20   Zn8   S    
N11   H61   S    
C121  H37   S    
N16   H72   S    
C55   C108  S    
O51   Zn7   S    
C14   C22   S    
N8    H55   S    
C18   C126  S    
C8    C122  A    
C111  H27   S    
O2    Zn10  S    
N2    H43   S    
N13   H66   S    
C113  H13   S    
C39   C73   S    
C120  H36   S    
C106  H6    S    
N14   H67   S    
O15   Zn3   S    
C112  H28   S    
C61   C114  S    
C87   C92   A    
C103  H3    S    
O49   Zn5   S    
C54   C57   A    
C70   C86   A    
C17   C29   T    
C104  H20   S    
O25   Zn9   S    
C19   C31   T    
C69   C85   A    
C51   O49   A    
C89   N5    S    
C48   O32   A    
C116  H32   S    
C38   C74   S    
N20   H79   S    
C120  C126  A    
N3    H45   S    
C102  C105  S    
C114  H30   S    
C107  H7    S    
C108  H24   S    
O4    Zn6   S    
C51   O35   A    
N24   H88   S    
N15   H69   S    
C111  C116  S    
C109  H25   S    
C124  C128  A    
O4    Zn16  S    
C83   C99   A    
C55   C60   A    
C64   C80   A    
C4    O12   A    
C50   C78   S    
N22   H84   S    
C48   O46   A    
O14   Zn2   S    
C68   C84   A    
C50   O52   A    
C62   C113  S    
C95   C100  A    
O3    Zn15  S    
C49   C79   S    
C115  H31   S    
O47   Zn5   S    
O3    Zn13  S    
O21   Zn9   S    
C51   C77   S    
O35   Zn15  S    
N17   H73   S    
O45   Zn7   S    
C65   C81   A    
C1    O5    A    
C71   C87   A    
C63   C116  S    
C119  C125  A    
O3    Zn7   S    
C46   O48   A    
C33   O13   A    
N6    H52   S    
O24   Zn12  S    
C86   C89   A    
C92   N8    S    
C108  H8    S    
C52   O50   A    
C73   C89   A    
O4    Zn8   S    
C47   O45   A    
C77   C93   A    
C1    C30   S    
C60   C76   A    
C85   N1    S    
C66   C109  S    
C122  C128  A    
C3    C32   S    
C4    C31   S    
C10   C120  A    
C40   C76   S    
C28   C36   S    
N10   H60   S    
C22   C26   T    
N12   H63   S    
C52   O36   A    
C52   C80   S    
C45   O29   A    
C102  H18   S    
C37   O21   A    
C122  H38   S    
N21   H81   S    
C6    C124  A    
C63   C79   A    
C79   C95   A    
C38   O40   A    
C7    N17   S    
C114  H14   S    
C20   C128  S    
C96   N12   S    
C109  H9    S    
C42   O26   A    
C3    O11   A    
C2    O8    A    
O33   Zn13  S    
C61   C66   A    
C26   C34   S    
O1    Zn1   S    
O3    Zn5   S    
N3    H46   S    
C54   C70   A    
C33   O15   A    
C34   O16   A    
C103  C108  S    
C18   C30   T    
C23   C27   T    
C80   C96   A    
O46   Zn8   S    
C123  H39   S    
C15   C23   S    
C16   C24   S    
O2    Zn2   S    
C72   C88   A    
C93   N9    S    
N4    H48   S    
N5    H50   S    
C64   C67   A    
O26   Zn12  S    
O30   Zn14  S    
C119  H35   S    
N9    H58   S    
C117  H33   S    
C90   N6    S    
C48   C84   S    
C68   C111  S    
N8    H56   S    
C56   C107  S    
C110  H26   S    
C87   N3    S    
O18   Zn6   S    
C35   O17   A    
O8    Zn10  S    
N2    H44   S    
N13   H65   S    
O27   Zn11  S    
C110  C113  S    
C76   C92   A    
N14   H68   S    
O38   Zn4   S    
N1    H42   S    
C9    C119  A    
C12   C118  A    
C100  N16   S    
N7    H53   S    
C11   C117  A    
C59   C75   A    
O16   Zn4   S    
C8    C14   A    
C62   C65   A    
O32   Zn16  S    
C6    N20   S    
O4    Zn14  S    
C105  H21   S    
C5    C123  A    
N18   H75   S    
C3    O9    A    
C2    O6    A    
N20   H80   S    
C17   C125  S    
O1    Zn3   S    
C81   C97   A    
C39   O37   A    
C19   C127  S    
O1    Zn9   S    
C34   O14   A    
C36   O18   A    
C40   O38   A    
O34   Zn16  S    
C41   O43   A    
C12   N22   S    
C25   C33   S    
C118  C126  A    
C117  C125  A    
C97   N13   S    
C93   C98   A    
C112  C115  S    
C101  H1    S    
