data_mof_unit_13353.cif
_audit_creation_date              2012-12-10T19:11:18-0500
_audit_creation_method            fapswitch 2.2
_symmetry_space_group_name_H-M    P1
_symmetry_Int_Tables_number       1
_space_group_crystal_system       triclinic
_cell_length_a                    15.938445
_cell_length_b                    9.077209
_cell_length_c                    7.928233
_cell_angle_alpha                 90.000029
_cell_angle_beta                  90.772102
_cell_angle_gamma                 90.0
_cell_volume                      1146.92562

loop_
_atom_site_label
_atom_site_type_symbol
_atom_type_description
_atom_site_fract_x
_atom_site_fract_y
_atom_site_fract_z
_atom_type_partial_charge
C1    C     C_R   0.500000 0.220609 0.500000 0.842685
C2    C     C_1   0.824130 0.494711 0.506652 0.099476
C3    C     C_1   0.175870 0.494711 0.493348 0.099476
C4    C     C_R   0.340341 0.499910 0.498834 0.805981
C5    C     C_R   0.659659 0.499910 0.501166 0.805981
C6    C     C_1   0.500000 0.934473 0.500000 -0.129682
C7    C     C_1   0.500000 0.065536 0.500000 -0.125883
C8    C     C_R   0.500000 0.779399 0.500000 0.831686
C9    C     C_3   0.053882 0.425462 0.670089 0.177643
C10   C     C_3   0.045710 0.399356 0.339462 0.267821
C11   C     C_3   0.954290 0.399357 0.660538 0.267821
C12   C     C_3   0.946118 0.425461 0.329911 0.177642
C13   C     C_1   0.748899 0.497670 0.504386 -0.065130
C14   C     C_1   0.251101 0.497669 0.495614 -0.065129
C15   C     C_3   0.083317 0.490052 0.494842 -0.009035
C16   C     C_3   0.916683 0.490052 0.505158 -0.009033
C17   C     C_3   0.952169 0.651162 0.518432 -0.420472
C18   C     C_3   0.047831 0.651162 0.481567 -0.420475
Cu1   Cu    Cu3+1 0.500000 0.500010 0.669080 1.057714
Cu2   Cu    Cu3+1 0.500000 0.500010 0.330920 1.057714
H1    H     H_    0.080665 0.728274 0.569025 0.245886
H2    H     H_    0.059757 0.698963 0.355759 0.288790
H3    H     H_    0.940243 0.698964 0.644240 0.288789
H4    H     H_    0.919335 0.728274 0.430974 0.245888
N1    N     N_1   0.500000 0.499970 0.076820 -0.030013
N2    N     N_1   0.500000 0.499970 0.923180 -0.030013
O1    O     O_R   0.500000 0.288400 0.642760 -0.571492
O2    O     O_R   0.500000 0.288400 0.357240 -0.571492
O3    O     O_R   0.379440 0.500020 0.642850 -0.575423
O4    O     O_R   0.379440 0.500020 0.357150 -0.560875
O5    O     O_R   0.620560 0.500020 0.642850 -0.560876
O6    O     O_R   0.620560 0.500020 0.357150 -0.575423
O7    O     O_R   0.500000 0.711620 0.642810 -0.573680
O8    O     O_R   0.500000 0.711620 0.357190 -0.573679
Cl1   Cl    Cl    0.927113 0.206790 0.641171 -0.398204
Cl2   Cl    Cl    0.890753 0.258873 0.268466 -0.492299
Cl3   Cl    Cl    0.109247 0.258874 0.731535 -0.492298
Cl4   Cl    Cl    0.072887 0.206790 0.358829 -0.398203
C19   C     C_2   0.086709 0.435283 0.173907 0.462565
H5    H     H_    0.070536 0.367993 0.065637 0.115620
O9    O     O_2   0.138268 0.533868 0.159461 -0.536107
C20   C     C_2   0.084916 0.534256 0.804520 0.293102
H6    H     H_    0.150402 0.530060 0.843856 0.166086
O10   O     O_2   0.041963 0.634357 0.858414 -0.457355
C21   C     C_2   0.915084 0.534254 0.195479 0.293099
H7    H     H_    0.849598 0.530056 0.156141 0.166087
O11   O     O_2   0.958036 0.634358 0.141588 -0.457355
C22   C     C_2   0.913290 0.435283 0.826093 0.462562
H8    H     H_    0.929462 0.367993 0.934362 0.115620
O12   O     O_2   0.861733 0.533870 0.840539 -0.536107

loop_
_geom_bond_atom_site_label_1
_geom_bond_atom_site_label_2
_ccdc_geom_bond_type
C15   C18   S    
C6    C7    T    
C12   C21   S    
C1    O2    A    
C18   H1    S    
C2    C16   S    
C11   C16   S    
C5    C13   S    
C4    O3    A    
C10   Cl4   S    
C5    O6    A    
Cu1   O5    S    
C9    Cl3   S    
C17   C18   S    
C11   C22   S    
Cu2   O8    S    
C19   O9    D    
C8    O8    A    
C21   H7    S    
Cu2   O4    S    
C9    C11   S    
C9    C20   S    
C17   H3    S    
C3    C14   T    
C20   O10   D    
C10   C12   S    
C22   O12   D    
C22   H8    S    
C10   C15   S    
C21   O11   D    
C4    C14   S    
C17   H4    S    
C12   Cl2   S    
Cu2   N1    S    
Cu1   O3    S    
C12   C16   S    
C2    C13   T    
Cu1   O1    S    
Cu2   O6    S    
C19   H5    S    
C1    O1    A    
Cu1   N2    S    
C10   C19   S    
C3    C15   S    
C6    C8    S    
C8    O7    A    
Cu2   O2    S    
C1    C7    S    
N1    N2    T    
C18   H2    S    
C11   Cl1   S    
C4    O4    A    
Cu1   Cu2   S    
C20   H6    S    
Cu1   O7    S    
C16   C17   S    
C5    O5    A    
C9    C15   S    
