data_mof_unit_20012.cif
_audit_creation_date              2013-03-05T16:31:46-0500
_audit_creation_method            fapswitch 2.2
_symmetry_space_group_name_H-M    P1
_symmetry_Int_Tables_number       1
_space_group_crystal_system       triclinic
_cell_length_a                    22.393803
_cell_length_b                    26.054902
_cell_length_c                    22.408379
_cell_angle_alpha                 89.9673
_cell_angle_beta                  90.000164
_cell_angle_gamma                 90.000302
_cell_volume                      13074.5776253

loop_
_atom_site_label
_atom_site_type_symbol
_atom_site_description
_atom_site_fract_x
_atom_site_fract_y
_atom_site_fract_z
_atom_type_partial_charge
Zn1   Zn    Zn3+2 0.450550 0.206230 0.700550 1.015817
Zn2   Zn    Zn3+2 0.450550 0.206230 0.299450 0.995942
Zn3   Zn    Zn3+2 0.450550 0.793770 0.299450 1.015968
Zn4   Zn    Zn3+2 0.450550 0.793770 0.700550 0.995854
Zn5   Zn    Zn3+2 0.450550 0.706230 0.200550 1.015705
Zn6   Zn    Zn3+2 0.450550 0.706230 0.799450 0.995732
Zn7   Zn    Zn3+2 0.450550 0.293770 0.799450 1.015664
Zn8   Zn    Zn3+2 0.450550 0.293770 0.200550 0.995732
Zn9   Zn    Zn3+2 0.950550 0.206230 0.200550 1.015549
Zn10  Zn    Zn3+2 0.950550 0.206230 0.799450 0.995695
Zn11  Zn    Zn3+2 0.950550 0.793770 0.799450 1.015472
Zn12  Zn    Zn3+2 0.950550 0.793770 0.200550 0.996066
Zn13  Zn    Zn3+2 0.950550 0.706230 0.700550 1.015607
Zn14  Zn    Zn3+2 0.950550 0.706230 0.299450 0.996365
Zn15  Zn    Zn3+2 0.950550 0.293770 0.299450 1.015757
Zn16  Zn    Zn3+2 0.950550 0.293770 0.700550 0.995851
Zn17  Zn    Zn3+2 0.549450 0.293780 0.700550 1.042312
Zn18  Zn    Zn3+2 0.549450 0.293780 0.299450 1.028166
Zn19  Zn    Zn3+2 0.549450 0.706220 0.299450 1.042367
Zn20  Zn    Zn3+2 0.549450 0.706220 0.700550 1.028099
Zn21  Zn    Zn3+2 0.549450 0.793780 0.200550 1.042326
Zn22  Zn    Zn3+2 0.549450 0.793780 0.799450 1.028065
Zn23  Zn    Zn3+2 0.549450 0.206220 0.799450 1.042285
Zn24  Zn    Zn3+2 0.549450 0.206220 0.200550 1.028082
Zn25  Zn    Zn3+2 0.049450 0.293780 0.200550 1.041860
Zn26  Zn    Zn3+2 0.049450 0.293780 0.799450 1.027866
Zn27  Zn    Zn3+2 0.049450 0.706220 0.799450 1.042048
Zn28  Zn    Zn3+2 0.049450 0.706220 0.200550 1.027456
Zn29  Zn    Zn3+2 0.049450 0.793780 0.700550 1.042052
Zn30  Zn    Zn3+2 0.049450 0.793780 0.299450 1.027521
Zn31  Zn    Zn3+2 0.049450 0.206220 0.299450 1.041986
Zn32  Zn    Zn3+2 0.049450 0.206220 0.700550 1.027940
O1    O     O_3   0.500000 0.250000 0.750000 -0.510685
O2    O     O_3   0.500000 0.250000 0.250000 -0.505134
O3    O     O_3   0.500000 0.750000 0.250000 -0.510720
O4    O     O_3   0.500000 0.750000 0.750000 -0.505108
O5    O     O_3   1.000000 0.250000 0.250000 -0.510654
O6    O     O_3   0.000000 0.250000 0.750000 -0.505020
O7    O     O_3   0.000000 0.750000 0.750000 -0.510590
O8    O     O_3   0.000000 0.750000 0.250000 -0.504917
O9    O     O_R   0.465380 0.366870 0.784620 -0.648070
O10   O     O_R   0.465380 0.366870 0.215380 -0.663025
O11   O     O_R   0.465380 0.633130 0.215380 -0.648064
O12   O     O_R   0.465380 0.633130 0.784620 -0.663015
O13   O     O_R   0.465380 0.866870 0.284620 -0.648041
O14   O     O_R   0.465380 0.866870 0.715380 -0.662991
O15   O     O_R   0.465380 0.133130 0.715380 -0.648031
O16   O     O_R   0.465380 0.133130 0.284620 -0.663037
O17   O     O_R   0.965380 0.366870 0.284620 -0.647525
O18   O     O_R   0.965380 0.366870 0.715380 -0.662933
O19   O     O_R   0.965380 0.633130 0.715380 -0.647938
O20   O     O_R   0.965380 0.633130 0.284620 -0.662636
O21   O     O_R   0.965380 0.866870 0.784620 -0.647841
O22   O     O_R   0.965380 0.866870 0.215380 -0.662211
O23   O     O_R   0.965380 0.133130 0.215380 -0.647023
O24   O     O_R   0.965380 0.133130 0.784620 -0.662866
O25   O     O_R   0.534610 0.280640 0.617980 -0.633175
O26   O     O_R   0.534610 0.280640 0.382020 -0.638399
O27   O     O_R   0.534610 0.719360 0.382020 -0.633177
O28   O     O_R   0.534610 0.719360 0.617980 -0.638423
O29   O     O_R   0.534610 0.780640 0.117980 -0.633181
O30   O     O_R   0.534610 0.780640 0.882020 -0.638434
O31   O     O_R   0.534610 0.219360 0.882020 -0.633178
O32   O     O_R   0.534610 0.219360 0.117980 -0.638374
O33   O     O_R   0.034610 0.280640 0.117980 -0.633420
O34   O     O_R   0.034610 0.280640 0.882020 -0.638665
O35   O     O_R   0.034610 0.719360 0.882020 -0.633311
O36   O     O_R   0.034610 0.719360 0.117980 -0.639271
O37   O     O_R   0.034610 0.780640 0.617980 -0.633427
O38   O     O_R   0.034610 0.780640 0.382020 -0.640038
O39   O     O_R   0.034610 0.219360 0.382020 -0.633576
O40   O     O_R   0.034610 0.219360 0.617980 -0.638835
O41   O     O_R   0.632030 0.280640 0.715400 -0.618403
O42   O     O_R   0.632030 0.280640 0.284600 -0.634261
O43   O     O_R   0.632030 0.719360 0.284600 -0.618415
O44   O     O_R   0.632030 0.719360 0.715400 -0.634253
O45   O     O_R   0.632030 0.780640 0.215400 -0.618442
O46   O     O_R   0.632030 0.780640 0.784600 -0.634272
O47   O     O_R   0.632030 0.219360 0.784600 -0.618415
O48   O     O_R   0.632030 0.219360 0.215400 -0.634364
O49   O     O_R   0.132030 0.280640 0.215400 -0.618150
O50   O     O_R   0.132030 0.280640 0.784600 -0.634125
O51   O     O_R   0.132030 0.719360 0.784600 -0.618336
O52   O     O_R   0.132030 0.719360 0.215400 -0.633824
O53   O     O_R   0.132030 0.780640 0.715400 -0.618223
O54   O     O_R   0.132030 0.780640 0.284600 -0.633108
O55   O     O_R   0.132030 0.219360 0.284600 -0.617904
O56   O     O_R   0.132030 0.219360 0.715400 -0.633896
O57   O     O_R   0.367970 0.280650 0.784620 -0.629775
O58   O     O_R   0.367970 0.280650 0.215380 -0.644231
O59   O     O_R   0.367970 0.719350 0.215380 -0.629756
O60   O     O_R   0.367970 0.719350 0.784620 -0.644242
O61   O     O_R   0.367970 0.780650 0.284620 -0.629586
O62   O     O_R   0.367970 0.780650 0.715380 -0.644179
O63   O     O_R   0.367970 0.219350 0.715380 -0.629687
O64   O     O_R   0.367970 0.219350 0.284620 -0.644109
O65   O     O_R   0.867970 0.280650 0.284620 -0.629668
O66   O     O_R   0.867970 0.280650 0.715380 -0.644221
O67   O     O_R   0.867970 0.719350 0.715380 -0.629749
O68   O     O_R   0.867970 0.719350 0.284620 -0.644202
O69   O     O_R   0.867970 0.780650 0.784620 -0.629738
O70   O     O_R   0.867970 0.780650 0.215380 -0.644255
O71   O     O_R   0.867970 0.219350 0.215380 -0.629601
O72   O     O_R   0.867970 0.219350 0.784620 -0.644250
O73   O     O_R   0.465380 0.219370 0.617980 -0.640708
O74   O     O_R   0.465380 0.219370 0.382020 -0.637622
O75   O     O_R   0.465380 0.780630 0.382020 -0.640667
O76   O     O_R   0.465380 0.780630 0.617980 -0.637672
O77   O     O_R   0.465380 0.719370 0.117980 -0.640769
O78   O     O_R   0.465380 0.719370 0.882020 -0.637732
O79   O     O_R   0.465380 0.280630 0.882020 -0.640774
O80   O     O_R   0.465380 0.280630 0.117980 -0.637732
O81   O     O_R   0.965380 0.219370 0.117980 -0.640915
O82   O     O_R   0.965380 0.219370 0.882020 -0.637850
O83   O     O_R   0.965380 0.780630 0.882020 -0.640859
O84   O     O_R   0.965380 0.780630 0.117980 -0.637941
O85   O     O_R   0.965380 0.719370 0.617980 -0.640716
O86   O     O_R   0.965380 0.719370 0.382020 -0.637464
O87   O     O_R   0.965380 0.280630 0.382020 -0.640645
O88   O     O_R   0.965380 0.280630 0.617980 -0.637689
O89   O     O_R   0.534610 0.366870 0.715390 -0.612396
O90   O     O_R   0.534610 0.366870 0.284610 -0.595520
O91   O     O_R   0.534610 0.633130 0.284610 -0.612389
O92   O     O_R   0.534610 0.633130 0.715390 -0.595517
O93   O     O_R   0.534610 0.866870 0.215390 -0.612360
O94   O     O_R   0.534610 0.866870 0.784610 -0.595528
O95   O     O_R   0.534610 0.133130 0.784610 -0.612398
O96   O     O_R   0.534610 0.133130 0.215390 -0.595499
O97   O     O_R   0.034610 0.366870 0.215390 -0.612758
O98   O     O_R   0.034610 0.366870 0.784610 -0.595605
O99   O     O_R   0.034610 0.633130 0.784610 -0.612503
O100  O     O_R   0.034610 0.633130 0.215390 -0.595941
O101  O     O_R   0.034610 0.866870 0.715390 -0.612612
O102  O     O_R   0.034610 0.866870 0.284610 -0.596419
O103  O     O_R   0.034610 0.133130 0.284610 -0.613175
O104  O     O_R   0.034610 0.133130 0.715390 -0.595693
C1    C     C_R   0.499401 0.391510 0.748621 0.924552
C2    C     C_R   0.500152 0.391484 0.250476 0.991141
C3    C     C_R   0.499404 0.608490 0.251377 0.924592
C4    C     C_R   0.500151 0.608516 0.749524 0.991149
C5    C     C_R   0.499408 0.891510 0.248625 0.924684
C6    C     C_R   0.500152 0.891484 0.750476 0.991151
C7    C     C_R   0.499400 0.108490 0.751380 0.924535
C8    C     C_R   0.500153 0.108516 0.249525 0.991145
C9    C     C_R   0.999333 0.391507 0.248564 0.922926
C10   C     C_R   0.000149 0.391485 0.750480 0.991057
C11   C     C_R   0.999379 0.608491 0.751398 0.924068
C12   C     C_R   0.000146 0.608513 0.249516 0.990816
C13   C     C_R   0.999364 0.891508 0.748589 0.923699
C14   C     C_R   0.000141 0.891490 0.250492 0.990491
C15   C     C_R   0.999274 0.108496 0.251485 0.921447
C16   C     C_R   0.000146 0.108514 0.749516 0.990967
C17   C     C_R   0.499972 0.250041 0.590036 0.860821
C18   C     C_R   0.499957 0.250036 0.409962 0.869713
C19   C     C_R   0.499972 0.749959 0.409964 0.860846
C20   C     C_R   0.499957 0.749964 0.590038 0.869654
C21   C     C_R   0.499972 0.750041 0.090036 0.860797
C22   C     C_R   0.499957 0.750036 0.909962 0.869625
C23   C     C_R   0.499972 0.249959 0.909964 0.860772
C24   C     C_R   0.499957 0.249964 0.090038 0.869632
C25   C     C_R   0.999971 0.250041 0.090036 0.860040
C26   C     C_R   0.999957 0.250036 0.909962 0.869398
C27   C     C_R   0.999971 0.749958 0.909964 0.860521
C28   C     C_R   0.999957 0.749963 0.090038 0.868947
C29   C     C_R   0.999971 0.750042 0.590036 0.860529
C30   C     C_R   0.999956 0.750037 0.409962 0.869129
C31   C     C_R   0.999971 0.249958 0.409964 0.859882
C32   C     C_R   0.999957 0.249963 0.590038 0.869478
C33   C     C_R   0.659972 0.250000 0.750000 0.854657
C34   C     C_R   0.659960 0.250000 0.250000 0.869878
C35   C     C_R   0.659971 0.750000 0.250000 0.854844
C36   C     C_R   0.659960 0.750000 0.750000 0.869707
C37   C     C_R   0.159971 0.250000 0.250000 0.853026
C38   C     C_R   0.159960 0.250000 0.750000 0.869259
C39   C     C_R   0.159971 0.750000 0.750000 0.854103
C40   C     C_R   0.159960 0.750000 0.250000 0.868461
C41   C     C_R   0.340046 0.250000 0.750000 0.872670
C42   C     C_R   0.340042 0.250000 0.250000 0.851883
C43   C     C_R   0.340047 0.750000 0.250000 0.872529
C44   C     C_R   0.340042 0.750000 0.750000 0.852036
C45   C     C_R   0.840047 0.250000 0.250000 0.874001
C46   C     C_R   0.840042 0.250000 0.750000 0.852610
C47   C     C_R   0.840047 0.750000 0.750000 0.873122
C48   C     C_R   0.840042 0.750000 0.250000 0.853775
C49   C     C_1   0.276707 0.250000 0.750000 -0.137235
C50   C     C_1   0.276714 0.250000 0.250000 -0.133693
C51   C     C_1   0.276707 0.749999 0.250000 -0.137148
C52   C     C_1   0.276713 0.750000 0.750000 -0.133768
C53   C     C_1   0.776707 0.249999 0.250000 -0.137197
C54   C     C_1   0.776713 0.250000 0.750000 -0.133766
C55   C     C_1   0.776707 0.750000 0.750000 -0.137291
C56   C     C_1   0.776713 0.750000 0.250000 -0.133719
C57   C     C_1   0.223300 0.250000 0.750000 -0.117654
C58   C     C_1   0.223309 0.250001 0.250000 -0.106647
C59   C     C_1   0.223300 0.749999 0.250000 -0.117347
C60   C     C_1   0.223309 0.750000 0.750000 -0.106638
C61   C     C_1   0.723300 0.250000 0.250000 -0.117679
C62   C     C_1   0.723309 0.250000 0.750000 -0.106475
C63   C     C_1   0.723300 0.750000 0.750000 -0.117759
C64   C     C_1   0.723309 0.750000 0.250000 -0.106188
C65   C     C_3   0.436714 0.031272 0.785124 0.286312
C66   C     C_3   0.434777 0.031047 0.222028 0.303699
C67   C     C_3   0.436764 0.968726 0.214812 0.286444
C68   C     C_3   0.434739 0.968950 0.777908 0.303797
C69   C     C_3   0.436741 0.531272 0.285159 0.286336
C70   C     C_3   0.434747 0.531049 0.722074 0.303785
C71   C     C_3   0.436725 0.468727 0.714857 0.286275
C72   C     C_3   0.434760 0.468951 0.277943 0.303734
C73   C     C_3   0.935682 0.031252 0.283647 0.286271
C74   C     C_3   0.934524 0.031060 0.722473 0.304055
C75   C     C_3   0.936433 0.968732 0.715256 0.286502
C76   C     C_3   0.933955 0.968911 0.276429 0.304512
C77   C     C_3   0.936551 0.531269 0.784906 0.286375
C78   C     C_3   0.934320 0.531071 0.222875 0.304188
C79   C     C_3   0.936161 0.468739 0.215658 0.286255
C80   C     C_3   0.934615 0.468944 0.777689 0.303949
H1    H     H_    0.463657 0.039626 0.663372 0.183017
H2    H     H_    0.478395 0.045978 0.342014 0.198929
H3    H     H_    0.463569 0.960375 0.336596 0.183102
H4    H     H_    0.478484 0.954024 0.657971 0.198853
H5    H     H_    0.463607 0.539625 0.163389 0.183000
H6    H     H_    0.478457 0.545976 0.842024 0.198806
H7    H     H_    0.463630 0.460374 0.836618 0.182963
H8    H     H_    0.478434 0.454022 0.157979 0.198836
H9    H     H_    0.965854 0.039689 0.162650 0.182261
H10   H     H_    0.979070 0.045960 0.842111 0.198405
H11   H     H_    0.964233 0.960358 0.836816 0.182665
H12   H     H_    0.980701 0.954083 0.157650 0.197757
H13   H     H_    0.963986 0.539635 0.663263 0.182769
H14   H     H_    0.979665 0.545945 0.342206 0.198223
H15   H     H_    0.964823 0.460341 0.337020 0.182561
H16   H     H_    0.978819 0.454033 0.657923 0.198556
C81   C     C_3   0.502760 0.029580 0.691015 -0.476142
C82   C     C_3   0.509714 0.028791 0.309182 -0.468689
C83   C     C_3   0.502703 0.970421 0.308996 -0.476203
C84   C     C_3   0.509770 0.971210 0.690836 -0.468739
C85   C     C_3   0.502727 0.529579 0.191009 -0.476208
C86   C     C_3   0.509753 0.528790 0.809169 -0.468774
C87   C     C_3   0.502742 0.470420 0.808987 -0.476182
C88   C     C_3   0.509738 0.471209 0.190826 -0.468756
C89   C     C_3   0.004200 0.029610 0.191316 -0.475760
C90   C     C_3   0.010141 0.028778 0.809041 -0.469385
C91   C     C_3   0.003139 0.970412 0.808901 -0.476270
C92   C     C_3   0.011172 0.971254 0.191280 -0.470057
C93   C     C_3   0.002976 0.529585 0.691063 -0.476226
C94   C     C_3   0.010519 0.528767 0.308932 -0.469483
C95   C     C_3   0.003527 0.470404 0.308830 -0.475952
C96   C     C_3   0.009982 0.471217 0.690906 -0.469131
C97   C     C_3   0.556692 0.030615 0.793486 0.313242
C98   C     C_3   0.555652 0.031349 0.204583 0.319066
C99   C     C_3   0.556754 0.969386 0.206593 0.313206
C100  C     C_3   0.555594 0.968653 0.795488 0.318964
C101  C     C_3   0.556725 0.530615 0.293442 0.313241
C102  C     C_3   0.555608 0.531348 0.704531 0.318944
C103  C     C_3   0.556707 0.469385 0.706535 0.313260
C104  C     C_3   0.555626 0.468652 0.295449 0.318997
C105  C     C_3   0.055301 0.030638 0.295318 0.312465
C106  C     C_3   0.055239 0.031342 0.704051 0.319191
C107  C     C_3   0.056324 0.969378 0.706015 0.313160
C108  C     C_3   0.054259 0.968674 0.297167 0.318856
C109  C     C_3   0.056481 0.530619 0.793772 0.313200
C110  C     C_3   0.054892 0.531336 0.203615 0.318911
C111  C     C_3   0.055961 0.469373 0.205538 0.312818
C112  C     C_3   0.055390 0.468656 0.795752 0.319063
C113  C     C_3   0.498526 0.050750 0.756239 -0.220082
C114  C     C_3   0.499918 0.050877 0.245035 -0.170299
C115  C     C_3   0.498542 0.949250 0.243768 -0.220264
C116  C     C_3   0.499907 0.949123 0.754971 -0.170176
C117  C     C_3   0.498534 0.550750 0.256235 -0.220094
C118  C     C_3   0.499908 0.550877 0.745030 -0.170113
C119  C     C_3   0.498528 0.449249 0.743762 -0.220015
C120  C     C_3   0.499913 0.449123 0.254968 -0.170168
C121  C     C_3   0.998234 0.050756 0.256400 -0.218724
C122  C     C_3   0.999852 0.050875 0.744980 -0.169754
C123  C     C_3   0.998445 0.949248 0.743711 -0.219530
C124  C     C_3   0.999711 0.949131 0.255123 -0.169219
C125  C     C_3   0.998479 0.550751 0.756268 -0.219720
C126  C     C_3   0.999805 0.550873 0.244947 -0.169639
C127  C     C_3   0.998371 0.449246 0.243675 -0.219317
C128  C     C_3   0.999875 0.449124 0.754999 -0.169895
H17   H     H_    0.539436 0.047918 0.665582 0.243994
H18   H     H_    0.553923 0.038100 0.328011 0.270875
H19   H     H_    0.539351 0.952084 0.334470 0.244040
H20   H     H_    0.553998 0.961904 0.672050 0.270814
H21   H     H_    0.539388 0.547917 0.165553 0.243974
H22   H     H_    0.553975 0.538097 0.827967 0.270781
H23   H     H_    0.539410 0.452082 0.834432 0.243953
H24   H     H_    0.553956 0.461902 0.172016 0.270811
H25   H     H_    0.041535 0.047944 0.166860 0.243591
H26   H     H_    0.054484 0.038082 0.827549 0.270606
H27   H     H_    0.039992 0.952075 0.834078 0.243726
H28   H     H_    0.055823 0.961955 0.173542 0.270493
H29   H     H_    0.039753 0.547922 0.665777 0.243817
H30   H     H_    0.054975 0.538069 0.327161 0.270619
H31   H     H_    0.040556 0.452068 0.333747 0.243750
H32   H     H_    0.054276 0.461912 0.672279 0.270672
C129  C     C_1   0.499957 0.249921 0.973304 -0.129311
C130  C     C_1   0.499942 0.249931 0.026700 -0.134011
C131  C     C_1   0.499957 0.750079 0.026696 -0.129307
C132  C     C_1   0.499942 0.750069 0.973299 -0.134069
C133  C     C_1   0.499957 0.749921 0.473304 -0.129182
C134  C     C_1   0.499942 0.749931 0.526701 -0.133943
C135  C     C_1   0.499957 0.250079 0.526696 -0.129189
C136  C     C_1   0.499942 0.250069 0.473299 -0.133898
C137  C     C_1   0.999956 0.249920 0.473304 -0.129866
C138  C     C_1   0.999942 0.249930 0.526701 -0.134578
C139  C     C_1   0.999956 0.750081 0.526696 -0.129867
C140  C     C_1   0.999941 0.750071 0.473299 -0.135308
C141  C     C_1   0.999956 0.749920 0.973304 -0.129836
C142  C     C_1   0.999941 0.749930 0.026700 -0.134861
C143  C     C_1   0.999956 0.250079 0.026696 -0.129814
C144  C     C_1   0.999942 0.250070 0.973299 -0.134533
N1    N     N_2   0.385718 0.054989 0.753406 -0.316810
H33   H     H_    0.386667 0.060414 0.708059 0.215036
C145  C     C_3   0.325454 0.051301 0.777134 -0.492116
H34   H     H_    0.301630 0.018447 0.756779 0.238422
H35   H     H_    0.300568 0.086768 0.765489 0.229191
H36   H     H_    0.324698 0.047300 0.826344 0.291043
N2    N     N_2   0.390890 0.044673 0.268885 -0.335535
H37   H     H_    0.389114 0.024574 0.308402 0.211998
C146  C     C_3   0.348077 0.086412 0.263352 -0.540536
H38   H     H_    0.337412 0.101768 0.308324 0.216573
H39   H     H_    0.306140 0.072164 0.242936 0.255946
H40   H     H_    0.365770 0.118494 0.236094 0.256763
N3    N     N_2   0.385733 0.945005 0.246471 -0.316473
H41   H     H_    0.386631 0.939584 0.291820 0.215288
C147  C     C_3   0.325496 0.948696 0.222676 -0.493296
H42   H     H_    0.301667 0.981576 0.242967 0.238472
H43   H     H_    0.300580 0.913247 0.234333 0.229046
H44   H     H_    0.324795 0.952656 0.173460 0.290845
N4    N     N_2   0.390903 0.955320 0.731005 -0.335538
H45   H     H_    0.389167 0.975421 0.691487 0.211750
C148  C     C_3   0.348053 0.913607 0.736511 -0.541189
H46   H     H_    0.337404 0.898256 0.691532 0.216074
H47   H     H_    0.306114 0.927877 0.756900 0.256184
H48   H     H_    0.365705 0.881514 0.763778 0.257124
N5    N     N_2   0.385725 0.554991 0.253473 -0.316712
H49   H     H_    0.386647 0.560416 0.208125 0.215083
C149  C     C_3   0.325476 0.551300 0.277237 -0.492467
H50   H     H_    0.301647 0.518437 0.256910 0.238426
H51   H     H_    0.300576 0.586760 0.265592 0.229136
H52   H     H_    0.324750 0.547315 0.326449 0.291022
N6    N     N_2   0.390897 0.544677 0.768964 -0.335548
H53   H     H_    0.389150 0.524576 0.808481 0.211669
C150  C     C_3   0.348057 0.586397 0.763451 -0.541395
H54   H     H_    0.337402 0.601747 0.808428 0.215954
H55   H     H_    0.306119 0.572132 0.743053 0.256240
H56   H     H_    0.365721 0.618488 0.736188 0.257176
N7    N     N_2   0.385720 0.445009 0.746559 -0.316881
H57   H     H_    0.386655 0.439584 0.791906 0.214951
C151  C     C_3   0.325463 0.448698 0.722812 -0.491899
H58   H     H_    0.301639 0.481560 0.743148 0.238421
H59   H     H_    0.300567 0.413237 0.734463 0.229186
H60   H     H_    0.324722 0.452686 0.673601 0.291119
N8    N     N_2   0.390895 0.455323 0.231066 -0.335549
H61   H     H_    0.389136 0.475423 0.191549 0.211790
C152  C     C_3   0.348063 0.413597 0.236588 -0.540987
H62   H     H_    0.337402 0.398244 0.191613 0.216192
H63   H     H_    0.306128 0.427856 0.256995 0.256133
H64   H     H_    0.365738 0.381508 0.263848 0.257014
N9    N     N_2   0.885519 0.054891 0.250557 -0.316822
H65   H     H_    0.887647 0.060328 0.205251 0.214556
C153  C     C_3   0.824664 0.051362 0.272751 -0.489967
H66   H     H_    0.800990 0.019050 0.251081 0.236664
H67   H     H_    0.800479 0.087225 0.261274 0.229980
H68   H     H_    0.822646 0.046564 0.321827 0.291753
N10   N     N_2   0.891002 0.044705 0.769664 -0.335479
H69   H     H_    0.889525 0.024606 0.809194 0.211304
C154  C     C_3   0.847954 0.086287 0.764346 -0.541112
H70   H     H_    0.837460 0.101618 0.809370 0.215321
H71   H     H_    0.805974 0.071891 0.744162 0.256349
H72   H     H_    0.865354 0.118424 0.736989 0.257906
N11   N     N_2   0.885653 0.945036 0.747339 -0.316934
H73   H     H_    0.886912 0.939613 0.792679 0.214718
C155  C     C_3   0.825229 0.948684 0.724014 -0.491086
H74   H     H_    0.801450 0.981411 0.744693 0.237943
H75   H     H_    0.800519 0.913122 0.735642 0.229386
H76   H     H_    0.824141 0.952870 0.674831 0.291383
N12   N     N_2   0.891315 0.955223 0.228447 -0.335172
H77   H     H_    0.890558 0.975327 0.188901 0.210797
C156  C     C_3   0.847700 0.914033 0.233238 -0.539757
H78   H     H_    0.837618 0.898760 0.188093 0.214125
H79   H     H_    0.805625 0.928794 0.252857 0.256414
H80   H     H_    0.864377 0.881763 0.260832 0.259568
N13   N     N_2   0.885679 0.554974 0.752979 -0.316955
H81   H     H_    0.886806 0.560398 0.707635 0.214777
C157  C     C_3   0.825323 0.551308 0.776476 -0.491310
H82   H     H_    0.801525 0.518526 0.755935 0.238135
H83   H     H_    0.800537 0.586829 0.764840 0.229309
H84   H     H_    0.824376 0.547201 0.825670 0.291310
N14   N     N_2   0.891115 0.544732 0.270354 -0.335340
H85   H     H_    0.889899 0.524631 0.309891 0.211157
C158  C     C_3   0.847856 0.586168 0.265222 -0.540672
H86   H     H_    0.837507 0.601478 0.310289 0.214915
H87   H     H_    0.805843 0.571635 0.245241 0.256372
H88   H     H_    0.864993 0.618355 0.237777 0.258453
N15   N     N_2   0.885603 0.445064 0.248108 -0.316895
H89   H     H_    0.887180 0.439631 0.293438 0.214699
C159  C     C_3   0.825019 0.448670 0.225196 -0.490744
H90   H     H_    0.801269 0.481235 0.246256 0.237490
H91   H     H_    0.800508 0.412989 0.236753 0.229613
H92   H     H_    0.823592 0.453099 0.176052 0.291493
N16   N     N_2   0.890958 0.455305 0.730621 -0.335503
H93   H     H_    0.889371 0.475405 0.691096 0.211417
C160  C     C_3   0.847994 0.413667 0.736020 -0.541354
H94   H     H_    0.837432 0.398328 0.691015 0.215523
H95   H     H_    0.806033 0.428009 0.756292 0.256331
H96   H     H_    0.865502 0.381548 0.763338 0.257632
N17   N     N_R   0.433054 0.051445 0.847355 0.186781
O105  O     O_R   0.437754 0.023423 0.895076 -0.337124
O106  O     O_R   0.422484 0.100198 0.855102 -0.413762
N18   N     N_R   0.414478 0.055969 0.165789 0.225760
O107  O     O_R   0.439571 0.097323 0.145027 -0.421133
O108  O     O_R   0.362272 0.043936 0.144259 -0.320101
N19   N     N_R   0.433175 0.948555 0.152576 0.186769
O109  O     O_R   0.437916 0.976580 0.104862 -0.337226
O110  O     O_R   0.422618 0.899802 0.144814 -0.413828
N20   N     N_R   0.414386 0.944025 0.834127 0.225726
O111  O     O_R   0.439451 0.902662 0.854899 -0.421175
O112  O     O_R   0.362164 0.956061 0.855612 -0.319684
N21   N     N_R   0.433119 0.551444 0.347393 0.186775
O113  O     O_R   0.437844 0.523421 0.395110 -0.337126
O114  O     O_R   0.422555 0.600197 0.355147 -0.413718
N22   N     N_R   0.414409 0.555973 0.665850 0.225728
O115  O     O_R   0.439481 0.597334 0.645081 -0.421125
O116  O     O_R   0.362191 0.543937 0.644352 -0.319463
N23   N     N_R   0.433084 0.448555 0.652625 0.186773
O117  O     O_R   0.437796 0.476578 0.604906 -0.337090
O118  O     O_R   0.422518 0.399802 0.644874 -0.413694
N24   N     N_R   0.414437 0.444027 0.334174 0.225740
O119  O     O_R   0.439517 0.402669 0.354940 -0.421108
O120  O     O_R   0.362225 0.456062 0.355685 -0.319678
N25   N     N_R   0.930364 0.051476 0.345736 0.187467
O121  O     O_R   0.934008 0.023518 0.393598 -0.336434
O122  O     O_R   0.919538 0.100226 0.353144 -0.413873
N26   N     N_R   0.913831 0.055997 0.666385 0.225564
O123  O     O_R   0.938710 0.097420 0.645547 -0.421797
O124  O     O_R   0.861497 0.043943 0.645187 -0.319117
N27   N     N_R   0.932333 0.948545 0.653059 0.186941
O125  O     O_R   0.936747 0.976549 0.605298 -0.338139
O126  O     O_R   0.921699 0.899791 0.645403 -0.414034
N28   N     N_R   0.912322 0.943937 0.332145 0.225235
O127  O     O_R   0.936687 0.902353 0.353163 -0.422905
O128  O     O_R   0.859688 0.956043 0.352545 -0.319186
N29   N     N_R   0.932639 0.551450 0.847118 0.186873
O129  O     O_R   0.937177 0.523438 0.894862 -0.337610
O130  O     O_R   0.922032 0.600203 0.854813 -0.413852
N30   N     N_R   0.913287 0.556021 0.166919 0.225456
O131  O     O_R   0.937981 0.597501 0.146012 -0.422023
O132  O     O_R   0.860842 0.543949 0.146008 -0.319240
N31   N     N_R   0.931618 0.448538 0.153497 0.187131
O133  O     O_R   0.935761 0.476525 0.105698 -0.336736
O134  O     O_R   0.920906 0.399787 0.145930 -0.413792
N32   N     N_R   0.914067 0.444012 0.833833 0.225629
O135  O     O_R   0.939025 0.402614 0.854643 -0.421490
O136  O     O_R   0.861780 0.456058 0.855154 -0.319174
N33   N     N_R   0.611663 0.050370 0.762851 0.246434
O137  O     O_R   0.629718 0.031968 0.711943 -0.369443
O138  O     O_R   0.641928 0.088576 0.784983 -0.359699
N34   N     N_R   0.614491 0.051855 0.226379 0.255407
O139  O     O_R   0.619143 0.084199 0.270397 -0.411919
O140  O     O_R   0.663777 0.039241 0.199278 -0.394930
N35   N     N_R   0.611685 0.949634 0.237300 0.246380
O141  O     O_R   0.629690 0.968054 0.288218 -0.368560
O142  O     O_R   0.641949 0.911399 0.215236 -0.359804
N36   N     N_R   0.614462 0.948156 0.773759 0.255339
O143  O     O_R   0.619173 0.915832 0.729727 -0.412228
O144  O     O_R   0.663712 0.960767 0.800926 -0.393965
N37   N     N_R   0.611675 0.550368 0.262768 0.246400
O145  O     O_R   0.629701 0.531957 0.211854 -0.369202
O146  O     O_R   0.641939 0.588590 0.284863 -0.359779
N38   N     N_R   0.614468 0.551847 0.726280 0.255323
O147  O     O_R   0.619163 0.584176 0.770308 -0.412340
O148  O     O_R   0.663728 0.539236 0.699130 -0.393819
N39   N     N_R   0.611667 0.449631 0.737189 0.246421
O149  O     O_R   0.629707 0.468037 0.788101 -0.369626
O150  O     O_R   0.641933 0.411419 0.715075 -0.359726
N40   N     N_R   0.614478 0.448151 0.273682 0.255360
O151  O     O_R   0.619156 0.415816 0.229658 -0.412185
O152  O     O_R   0.663748 0.460764 0.300813 -0.394311
N41   N     N_R   0.111190 0.050424 0.266416 0.247900
O153  O     O_R   0.130460 0.032424 0.215760 -0.371474
O154  O     O_R   0.141428 0.087948 0.290113 -0.357265
N42   N     N_R   0.114287 0.051789 0.725354 0.255429
O155  O     O_R   0.119380 0.083985 0.769470 -0.412200
O156  O     O_R   0.163311 0.039210 0.697761 -0.392927
N43   N     N_R   0.111545 0.949617 0.736194 0.246806
O157  O     O_R   0.129919 0.967915 0.787039 -0.370515
O158  O     O_R   0.141814 0.911594 0.713647 -0.358989
N44   N     N_R   0.113786 0.948371 0.277039 0.255571
O159  O     O_R   0.119937 0.916519 0.232724 -0.411171
O160  O     O_R   0.162163 0.960855 0.305807 -0.391576
N45   N     N_R   0.111595 0.550378 0.763399 0.246654
O161  O     O_R   0.129833 0.532037 0.712527 -0.370231
O162  O     O_R   0.141864 0.588479 0.785771 -0.359280
N46   N     N_R   0.114115 0.551732 0.224498 0.255488
O163  O     O_R   0.119587 0.583810 0.268683 -0.411705
O164  O     O_R   0.162911 0.539182 0.196486 -0.392554
N47   N     N_R   0.111425 0.449601 0.235259 0.247188
O165  O     O_R   0.130125 0.467793 0.286035 -0.370716
O166  O     O_R   0.141685 0.411754 0.212299 -0.358361
N48   N     N_R   0.114362 0.448188 0.774267 0.255378
O167  O     O_R   0.119292 0.415938 0.730187 -0.412273
O168  O     O_R   0.163483 0.460782 0.801678 -0.393211
N49   N     N_2   0.556382 0.050803 0.855477 -0.308202
H97   H     H_    0.531193 0.082240 0.866363 0.296321
C161  C     C_3   0.608085 0.046955 0.894392 -0.644798
H98   H     H_    0.593991 0.031267 0.938248 0.218555
H99   H     H_    0.627346 0.085709 0.901973 0.250399
H100  H     H_    0.643449 0.022446 0.875660 0.283326
N50   N     N_2   0.546310 0.050204 0.143019 -0.302273
H101  H     H_    0.516546 0.031766 0.115958 0.296904
C162  C     C_3   0.587922 0.082973 0.110700 -0.537868
H102  H     H_    0.623622 0.059749 0.089762 0.205605
H103  H     H_    0.608408 0.112585 0.139638 0.277727
H104  H     H_    0.563595 0.103356 0.074584 0.226956
N51   N     N_2   0.556529 0.949200 0.144600 -0.308187
H105  H     H_    0.531327 0.917785 0.133660 0.296363
C163  C     C_3   0.608295 0.953028 0.105766 -0.645113
H106  H     H_    0.594276 0.968711 0.061884 0.218504
H107  H     H_    0.627556 0.914269 0.098228 0.250413
H108  H     H_    0.643637 0.977534 0.124548 0.283248
N52   N     N_2   0.546182 0.949792 0.857039 -0.302379
H109  H     H_    0.516385 0.968224 0.884069 0.296940
C164  C     C_3   0.587750 0.917012 0.889399 -0.537737
H110  H     H_    0.623421 0.940228 0.910398 0.205602
H111  H     H_    0.608279 0.887410 0.860476 0.277745
H112  H     H_    0.563374 0.896615 0.925472 0.227012
N53   N     N_2   0.556462 0.550802 0.355434 -0.308231
H113  H     H_    0.531266 0.582226 0.366350 0.296333
C165  C     C_3   0.608200 0.546965 0.394305 -0.644833
H114  H     H_    0.594147 0.531282 0.438176 0.218509
H115  H     H_    0.627463 0.585722 0.401860 0.250432
H116  H     H_    0.643551 0.522456 0.375546 0.283306
N54   N     N_2   0.546215 0.550207 0.642977 -0.302401
H117  H     H_    0.516426 0.531775 0.615938 0.296923
C166  C     C_3   0.587793 0.582987 0.610629 -0.537684
H118  H     H_    0.623466 0.559770 0.589636 0.205622
H119  H     H_    0.608317 0.612587 0.639559 0.277754
H120  H     H_    0.563426 0.603388 0.574553 0.227003
N55   N     N_2   0.556419 0.449198 0.644543 -0.308250
H121  H     H_    0.531228 0.417766 0.633643 0.296321
C167  C     C_3   0.608138 0.453042 0.605649 -0.644688
H122  H     H_    0.594063 0.468725 0.561785 0.218512
H123  H     H_    0.627403 0.414288 0.598084 0.250437
H124  H     H_    0.643493 0.477555 0.624393 0.283347
N56   N     N_2   0.546253 0.449795 0.357007 -0.302358
H125  H     H_    0.516474 0.468229 0.384054 0.296913
C168  C     C_3   0.587845 0.417020 0.389344 -0.537734
H126  H     H_    0.623530 0.440240 0.410313 0.205629
H127  H     H_    0.608352 0.387414 0.360411 0.277743
H128  H     H_    0.563495 0.396628 0.425438 0.226979
N57   N     N_2   0.052983 0.050859 0.357250 -0.307330
H129  H     H_    0.028198 0.082853 0.366863 0.295396
C169  C     C_3   0.103159 0.046516 0.398058 -0.643972
H130  H     H_    0.087269 0.030855 0.441312 0.219768
H131  H     H_    0.122563 0.085088 0.406482 0.249939
H132  H     H_    0.138923 0.021757 0.380572 0.283481
N58   N     N_2   0.045384 0.050236 0.642584 -0.302755
H133  H     H_    0.015390 0.031825 0.615753 0.296727
C170  C     C_3   0.086662 0.083096 0.609962 -0.539010
H134  H     H_    0.122135 0.059929 0.588559 0.205812
H135  H     H_    0.107464 0.112624 0.638790 0.278208
H136  H     H_    0.061963 0.103582 0.574178 0.226765
N59   N     N_2   0.055479 0.949179 0.644034 -0.308192
H137  H     H_    0.030391 0.917592 0.633491 0.295911
C171  C     C_3   0.106782 0.953157 0.604607 -0.644769
H138  H     H_    0.092215 0.968867 0.560916 0.217809
H139  H     H_    0.126060 0.914446 0.596775 0.250445
H140  H     H_    0.142276 0.977703 0.623026 0.283729
N60   N     N_2   0.043198 0.949680 0.358385 -0.303879
H141  H     H_    0.012650 0.968010 0.384665 0.297467
C172  C     C_3   0.083599 0.916503 0.391664 -0.537305
H142  H     H_    0.118355 0.939498 0.414465 0.204818
H143  H     H_    0.105345 0.887343 0.363032 0.278037
H144  H     H_    0.057910 0.895565 0.426384 0.228394
N61   N     N_2   0.055863 0.550813 0.855759 -0.308209
H145  H     H_    0.030732 0.582337 0.866447 0.296090
C173  C     C_3   0.107337 0.546890 0.894969 -0.644714
H146  H     H_    0.092971 0.531190 0.938731 0.218148
H147  H     H_    0.126609 0.585619 0.902693 0.250417
H148  H     H_    0.142776 0.522360 0.876416 0.283569
N62   N     N_2   0.044604 0.550268 0.142235 -0.303113
H149  H     H_    0.014409 0.531884 0.115602 0.297199
C174  C     C_3   0.085587 0.583223 0.109371 -0.537654
H150  H     H_    0.120842 0.560108 0.087530 0.205356
H151  H     H_    0.106685 0.612652 0.138119 0.277939
H152  H     H_    0.060555 0.603830 0.073913 0.227609
N63   N     N_2   0.054585 0.449166 0.143570 -0.307771
H153  H     H_    0.029593 0.417436 0.133361 0.295838
C175  C     C_3   0.105489 0.453270 0.103645 -0.644258
H154  H     H_    0.090456 0.468999 0.060121 0.219140
H155  H     H_    0.124783 0.414602 0.095569 0.250094
H156  H     H_    0.141105 0.477860 0.121751 0.283452
N64   N     N_2   0.045725 0.449776 0.857256 -0.302607
H157  H     H_    0.015814 0.468195 0.884172 0.296829
C176  C     C_3   0.087127 0.416949 0.889766 -0.538396
H158  H     H_    0.122682 0.440137 0.911000 0.205716
H159  H     H_    0.107815 0.387392 0.860895 0.277999
H160  H     H_    0.062564 0.396498 0.925670 0.226898

loop_
_geom_bond_atom_site_label_1
_geom_bond_atom_site_label_2
_geom_bond_distance
_ccdc_geom_bond_type
C163  H108  1.100677 S    
Zn29  O101  1.961710 S    
N23   O117  1.298743 A    
Zn4   O4    1.937339 S    
C152  H62   1.110475 S    
O87   C31   1.276800 A    
C97   C100  1.615217 S    
O98   C10   1.261429 A    
Zn6   O78   1.910935 S    
N33   O137  1.302056 A    
C165  H114  1.109955 S    
O48   C34   1.276858 A    
C171  H138  1.109969 S    
C157  H84   1.107692 S    
N57   C169  1.453072 S    
N5    H49   1.026086 S    
C2    C120  1.505220 S    
N63   H153  1.024312 S    
C166  H120  1.110541 S    
C3    C117  1.508402 S    
C99   N51   1.485673 S    
C5    C115  1.508397 S    
Zn23  O95   1.961706 S    
N16   C160  1.455021 S    
Zn14  O8    1.937336 S    
C14   C124  1.505502 S    
N15   C159  1.453616 S    
C161  H99   1.111142 S    
Zn28  O52   1.909948 S    
Zn28  O8    1.938242 S    
C53   C61   1.195990 T    
O15   C7    1.281692 A    
O16   C8    1.279334 A    
C36   C63   1.418412 S    
C174  H150  1.107201 S    
C86   C118  1.563485 S    
N41   O154  1.302680 A    
O60   C44   1.276712 A    
Zn13  O19   1.961520 S    
O63   C41   1.277220 A    
Zn14  O20   1.961888 S    
Zn24  O96   1.961338 S    
O50   C38   1.276860 A    
N47   O166  1.302646 A    
C70   N6    1.481503 S    
C25   C143  1.419344 S    
C26   C144  1.419292 S    
Zn11  O83   1.910557 S    
C97   N49   1.485674 S    
Zn26  O98   1.961341 S    
O47   C33   1.276429 A    
C154  H72   1.108241 S    
Zn2   O2    1.937336 S    
C76   C124  1.631600 S    
Zn25  O97   1.961710 S    
Zn5   O11   1.961520 S    
C112  N48   1.503486 S    
Zn6   O12   1.961888 S    
Zn25  O49   1.909883 S    
Zn7   O1    1.938086 S    
C20   C134  1.419291 S    
C65   C113  1.610020 S    
Zn15  O65   1.909776 S    
O104  C16   1.261424 A    
Zn29  O37   1.910975 S    
C68   C116  1.631285 S    
C91   H27   1.107845 S    
N48   O168  1.301999 A    
Zn31  O55   1.909882 S    
C66   C67   1.632490 S    
N35   O141  1.302059 A    
Zn7   O79   1.910557 S    
Zn22  O46   1.909953 S    
O14   C6    1.279329 A    
O69   C47   1.277218 A    
H1    C81   1.104004 S    
O21   C13   1.281633 A    
C70   C71   1.632509 S    
Zn26  O6    1.938229 S    
N37   O145  1.302059 A    
C110  N46   1.503508 S    
C94   H30   1.103098 S    
C83   H19   1.107861 S    
Zn31  O5    1.937493 S    
H5    C85   1.104004 S    
C7    C113  1.508402 S    
Zn12  O8    1.937339 S    
C172  H144  1.110570 S    
N25   O121  1.298738 A    
N39   O150  1.302598 A    
N9    C153  1.453569 S    
H16   C96   1.110903 S    
N8    H61   1.029286 S    
H12   C92   1.110890 S    
O45   C35   1.276429 A    
O46   C36   1.276861 A    
O101  C13   1.260574 A    
N43   O158  1.302611 A    
O95   C7    1.260498 A    
C150  H56   1.108249 S    
O23   C15   1.281429 A    
O96   C8    1.261425 A    
C90   C122  1.563424 S    
C100  N36   1.503473 S    
Zn18  O90   1.961341 S    
N34   O140  1.301997 A    
C152  H64   1.108251 S    
N45   O162  1.302605 A    
C156  H78   1.110474 S    
C174  H152  1.110552 S    
C73   N9    1.480045 S    
N44   O159  1.301844 A    
C157  H82   1.107178 S    
C99   C115  1.633421 S    
N26   O123  1.301029 A    
O88   C32   1.276951 A    
C148  H48   1.108249 S    
C105  N41   1.500424 S    
C159  H91   1.110108 S    
C87   H23   1.107856 S    
C88   H24   1.103211 S    
O71   C45   1.277217 A    
H15   C95   1.103991 S    
C155  H74   1.107189 S    
O64   C42   1.276709 A    
Zn14  O68   1.909712 S    
Zn21  O3    1.937489 S    
Zn22  O4    1.938229 S    
C158  H86   1.110476 S    
C68   N20   1.488472 S    
Zn10  O6    1.937336 S    
Zn19  O27   1.910977 S    
N30   O131  1.301054 A    
Zn2   O64   1.909712 S    
C168  H127  1.107630 S    
Zn19  O3    1.937493 S    
C160  H94   1.110475 S    
Zn16  O66   1.909710 S    
Zn6   O60   1.909712 S    
N18   O108  1.303058 A    
C102  C118  1.624451 S    
Zn24  O32   1.910597 S    
C56   C64   1.195919 T    
C72   N8    1.481498 S    
O83   C27   1.276799 A    
N29   O129  1.298741 A    
N24   O120  1.303059 A    
C90   H26   1.103150 S    
O81   C25   1.276795 A    
C42   C50   1.418175 S    
N36   O143  1.301883 A    
C93   C96   1.528835 S    
C111  N47   1.500412 S    
C37   C58   1.418379 S    
H7    C87   1.104006 S    
C46   C54   1.418177 S    
C162  H103  1.107633 S    
N17   O105  1.298742 A    
C97   C113  1.633412 S    
O75   C19   1.276798 A    
Zn1   O73   1.910559 S    
N13   C157  1.453658 S    
O73   C17   1.276793 A    
N2    C146  1.455013 S    
N7    H57   1.026084 S    
C106  C122  1.624539 S    
C102  N54   1.479008 S    
C100  N52   1.479005 S    
C151  H58   1.107170 S    
O31   C23   1.276707 A    
O77   C21   1.276793 A    
C74   N10   1.481554 S    
C75   N11   1.480081 S    
C1    C119  1.508404 S    
C151  H60   1.107703 S    
O22   C14   1.279474 A    
C176  H158  1.107132 S    
N23   O118  1.303829 A    
Zn19  O91   1.961706 S    
N55   H121  1.024119 S    
C105  N57   1.485640 S    
N18   O107  1.300995 A    
C165  H115  1.111140 S    
C6    C116  1.505225 S    
N27   O126  1.303823 A    
Zn12  O84   1.910938 S    
N1    C145  1.453665 S    
C28   C142  1.419292 S    
C159  H90   1.107246 S    
Zn32  O56   1.909948 S    
O91   C3    1.260487 A    
O56   C38   1.276860 A    
O94   C6    1.261433 A    
O53   C39   1.276430 A    
C104  N40   1.503471 S    
C98   N50   1.479008 S    
N3    C147  1.453663 S    
N57   H129  1.024481 S    
Zn15  O5    1.938086 S    
N14   H85   1.029290 S    
C71   C119  1.610022 S    
C167  H122  1.109956 S    
O93   C5    1.260478 A    
Zn30  O102  1.961341 S    
C156  H80   1.108221 S    
C65   N1    1.480093 S    
N19   O110  1.303828 A    
O99   C11   1.260541 A    
N32   O135  1.301014 A    
O26   C18   1.276507 A    
Zn29  O53   1.909883 S    
H13   C93   1.104005 S    
Zn15  O17   1.961517 S    
O20   C12   1.279416 A    
C80   N32   1.488486 S    
O39   C31   1.276705 A    
C164  H110  1.107116 S    
C79   N15   1.480071 S    
Zn17  O41   1.909883 S    
O40   C32   1.276509 A    
C9    C127  1.508477 S    
C10   C128  1.505274 S    
N42   O155  1.301872 A    
Zn18  O26   1.910598 S    
N53   H113  1.024116 S    
N20   O112  1.303058 A    
C83   C115  1.565358 S    
C158  H88   1.108239 S    
N49   C161  1.452908 S    
C97   N33   1.500384 S    
C66   N2    1.481493 S    
Zn26  O34   1.910598 S    
H3    C83   1.104006 S    
Zn30  O8    1.938229 S    
N38   O147  1.301882 A    
C160  H96   1.108243 S    
C67   N19   1.492801 S    
C147  H43   1.110119 S    
O82   C26   1.276943 A    
C82   H18   1.103213 S    
C89   H25   1.107801 S    
Zn2   O74   1.910935 S    
Zn28  O100  1.961338 S    
O49   C37   1.276430 A    
Zn13  O67   1.909782 S    
Zn11  O7    1.938086 S    
C35   C64   1.418376 S    
C112  N64   1.479010 S    
Zn18  O2    1.938229 S    
N64   H157  1.021319 S    
Zn3   O3    1.938086 S    
Zn1   O63   1.909782 S    
C146  H40   1.108251 S    
C19   C133  1.419347 S    
N46   O164  1.301998 A    
N41   O153  1.302010 A    
C167  H124  1.100671 S    
C79   N31   1.492791 S    
Zn3   O61   1.909776 S    
Zn8   O2    1.937339 S    
C21   C131  1.419347 S    
H8    C88   1.110901 S    
C22   C132  1.419291 S    
Zn5   O59   1.909782 S    
N22   O115  1.301001 A    
N8    C152  1.455014 S    
C146  H38   1.110475 S    
N6    C150  1.455015 S    
C153  H68   1.107639 S    
C171  H140  1.100666 S    
O24   C16   1.279388 A    
N5    C149  1.453663 S    
O33   C25   1.276702 A    
N50   H101  1.021316 S    
C91   C123  1.565252 S    
C156  H79   1.108667 S    
C176  H160  1.110546 S    
N14   C158  1.455030 S    
C94   C95   1.528674 S    
C98   N34   1.503470 S    
C145  H36   1.107700 S    
O97   C9    1.260664 A    
C50   C58   1.195919 T    
C8    C114  1.505214 S    
C157  H83   1.110114 S    
Zn10  O82   1.910935 S    
H14   C94   1.110892 S    
C109  C112  1.615206 S    
N32   O136  1.303060 A    
N52   H109  1.021320 S    
C110  C111  1.615175 S    
C166  H119  1.107628 S    
N58   H133  1.021320 S    
C69   N5    1.480093 S    
C111  N63   1.485656 S    
C89   C92   1.528470 S    
Zn9   O81   1.910559 S    
C164  H111  1.107626 S    
C106  C107  1.615203 S    
N15   H89   1.026095 S    
Zn5   O3    1.938078 S    
Zn23  O31   1.910977 S    
C74   C122  1.631370 S    
Zn22  O94   1.961341 S    
Zn15  O87   1.910557 S    
Zn7   O9    1.961517 S    
C40   C59   1.418415 S    
C95   C127  1.565182 S    
N40   O151  1.301882 A    
C81   C84   1.528910 S    
O37   C29   1.276699 A    
C96   C128  1.563447 S    
Zn27  O35   1.910977 S    
C81   C113  1.565347 S    
N31   O133  1.298739 A    
C108  C124  1.624680 S    
O35   C27   1.276706 A    
C145  H34   1.107174 S    
C149  H52   1.107702 S    
C109  C125  1.633413 S    
C152  H63   1.108710 S    
C170  H134  1.107137 S    
C85   C88   1.528919 S    
N43   O157  1.302048 A    
C92   C124  1.563282 S    
C93   C125  1.565293 S    
C23   C129  1.419347 S    
C77   N13   1.480085 S    
N28   O127  1.301096 A    
C101  N37   1.500380 S    
C34   C61   1.418412 S    
C154  H71   1.108694 S    
O72   C46   1.276710 A    
O58   C42   1.276710 A    
O10   C2    1.279328 A    
N33   O138  1.302599 A    
C81   H17   1.107857 S    
N56   H125  1.021318 S    
C84   H20   1.103205 S    
N6    H53   1.029285 S    
C85   H21   1.107858 S    
C146  H39   1.108710 S    
O61   C43   1.277216 A    
C106  N42   1.503494 S    
N12   H77   1.029294 S    
Zn32  O40   1.910597 S    
Zn4   O76   1.910938 S    
N21   O113  1.298743 A    
N44   O160  1.302005 A    
C148  H46   1.110477 S    
Zn16  O18   1.961885 S    
C154  H70   1.110472 S    
Zn32  O6    1.938242 S    
Zn8   O80   1.910938 S    
N51   H105  1.024110 S    
C155  H76   1.107688 S    
C43   C51   1.418412 S    
H9    C89   1.103986 S    
C73   C76   1.632874 S    
C41   C49   1.418412 S    
O34   C26   1.276506 A    
C163  H107  1.111139 S    
C89   C121  1.565036 S    
C172  H143  1.107525 S    
O79   C23   1.276798 A    
C44   C52   1.418175 S    
C110  C126  1.624590 S    
C11   C125  1.508428 S    
C45   C53   1.418415 S    
C100  C116  1.624455 S    
N10   H69   1.029285 S    
C101  C117  1.633414 S    
N61   C173  1.452936 S    
C80   C128  1.631333 S    
C153  H66   1.107289 S    
C48   C56   1.418177 S    
C107  C123  1.633417 S    
C65   N17   1.492795 S    
Zn20  O28   1.910597 S    
C103  N55   1.485674 S    
Zn21  O29   1.910975 S    
O78   C22   1.276942 A    
O18   C10   1.279358 A    
O36   C28   1.276508 A    
C99   N35   1.500378 S    
N60   H141  1.021348 S    
Zn26  O50   1.909953 S    
N45   O161  1.302049 A    
C76   N12   1.481696 S    
O13   C5    1.281714 A    
C107  N59   1.485680 S    
C173  H148  1.100666 S    
Zn17  O1    1.937489 S    
O55   C37   1.276430 A    
C108  N60   1.478957 S    
Zn30  O38   1.910598 S    
N26   O124  1.303055 A    
C71   N7    1.480097 S    
C148  H47   1.108708 S    
C29   C139  1.419347 S    
C77   C125  1.610058 S    
C30   C140  1.419289 S    
C155  H75   1.110114 S    
Zn27  O7    1.937493 S    
C173  H146  1.109965 S    
C161  H98   1.109958 S    
O90   C2    1.261429 A    
Zn31  O103  1.961706 S    
C86   C87   1.528914 S    
N62   C174  1.456427 S    
Zn1   O15   1.961520 S    
C161  H100  1.100669 S    
C103  C119  1.633408 S    
Zn2   O16   1.961888 S    
C98   C99   1.615228 S    
N59   H137  1.024208 S    
O25   C17   1.276701 A    
Zn3   O13   1.961517 S    
C139  C140  1.196529 T    
C47   C55   1.418412 S    
N30   O132  1.303051 A    
N17   O106  1.303827 A    
O66   C46   1.276711 A    
C169  H130  1.110004 S    
O28   C20   1.276511 A    
C168  H126  1.107120 S    
O29   C21   1.276701 A    
C101  C104  1.615220 S    
C104  C120  1.624451 S    
C17   C135  1.419347 S    
C78   N30   1.488536 S    
C149  H50   1.107175 S    
O76   C20   1.276948 A    
Zn8   O10   1.961885 S    
C18   C136  1.419291 S    
C170  H136  1.110544 S    
O32   C24   1.276512 A    
C90   C91   1.528777 S    
O17   C9    1.281554 A    
N10   C154  1.455026 S    
C15   C121  1.508540 S    
C98   C114  1.624453 S    
Zn17  O89   1.961710 S    
N64   C176  1.456417 S    
Zn32  O104  1.961338 S    
C171  H139  1.111156 S    
C75   C123  1.610083 S    
C82   C83   1.528924 S    
Zn21  O93   1.961710 S    
C39   C60   1.418376 S    
C54   C62   1.195919 T    
N51   C163  1.452903 S    
N13   H81   1.026087 S    
C111  C127  1.633395 S    
C77   C80   1.632575 S    
C74   N26   1.488497 S    
N48   O167  1.301877 A    
Zn28  O36   1.910597 S    
N7    C151  1.453668 S    
C76   N28   1.488594 S    
O92   C4    1.261437 A    
C133  C134  1.196529 T    
N38   O148  1.301997 A    
C105  C121  1.633378 S    
N63   C175  1.452991 S    
Zn13  O85   1.910559 S    
C151  H59   1.110119 S    
C176  H159  1.107606 S    
C105  C108  1.615132 S    
Zn27  O51   1.909882 S    
C147  H42   1.107169 S    
N4    H45   1.029283 S    
C67   C115  1.610002 S    
N53   C165  1.452904 S    
N52   C164  1.456407 S    
N1    H33   1.026086 S    
Zn5   O77   1.910559 S    
O103  C15   1.260805 A    
Zn10  O72   1.909712 S    
C4    C118  1.505223 S    
O30   C22   1.276507 A    
C12   C126  1.505375 S    
C110  N62   1.478983 S    
O68   C48   1.276711 A    
Zn24  O2    1.938242 S    
H10   C90   1.110903 S    
C69   N21   1.492795 S    
N2    H37   1.029284 S    
Zn20  O4    1.938242 S    
N34   O139  1.301883 A    
C38   C57   1.418410 S    
C137  C138  1.196529 T    
C71   N23   1.492794 S    
C84   C116  1.563484 S    
C85   C117  1.565355 S    
O52   C40   1.276858 A    
Zn12  O22   1.961885 S    
Zn17  O25   1.910975 S    
N31   O134  1.303823 A    
Zn3   O75   1.910557 S    
C159  H92   1.107667 S    
C143  C144  1.196529 T    
N50   C162  1.456403 S    
O51   C39   1.276430 A    
Zn27  O99   1.961706 S    
C129  C130  1.196529 T    
N16   H93   1.029285 S    
N27   O125  1.298742 A    
C108  N44   1.503518 S    
N42   O156  1.302004 A    
C68   N4    1.481507 S    
Zn1   O1    1.938078 S    
C163  H106  1.109957 S    
N58   C170  1.456422 S    
Zn4   O14   1.961885 S    
C141  C142  1.196529 T    
C93   H29   1.107850 S    
O85   C29   1.276797 A    
C158  H87   1.108690 S    
C96   H32   1.103174 S    
N49   H97   1.024123 S    
C102  C103  1.615216 S    
C109  N45   1.500393 S    
C32   C138  1.419292 S    
C13   C123  1.508444 S    
N56   C168  1.456404 S    
N12   C156  1.455043 S    
C55   C63   1.195993 T    
C168  H128  1.110543 S    
O38   C30   1.276502 A    
H11   C91   1.104006 S    
C82   C114  1.563491 S    
C160  H95   1.108700 S    
O89   C1    1.260499 A    
N47   O165  1.302034 A    
Zn7   O57   1.909776 S    
C95   H31   1.107825 S    
Zn20  O44   1.909948 S    
O44   C36   1.276858 A    
C162  H102  1.107121 S    
C94   C126  1.563376 S    
C24   C130  1.419291 S    
N24   O119  1.300997 A    
C31   C137  1.419347 S    
H6    C86   1.110902 S    
C92   H28   1.103000 S    
H4    C84   1.110902 S    
C135  C136  1.196529 T    
Zn6   O4    1.937336 S    
Zn23  O1    1.937493 S    
O59   C43   1.277219 A    
N54   H117  1.021316 S    
C167  H123  1.111138 S    
O11   C3    1.281701 A    
Zn9   O23   1.961520 S    
O57   C41   1.277217 A    
C106  N58   1.479011 S    
C27   C141  1.419347 S    
O74   C18   1.276942 A    
Zn11  O21   1.961517 S    
Zn9   O71   1.909782 S    
Zn25  O5    1.937489 S    
N54   C166  1.456405 S    
C75   N27   1.492797 S    
N21   O114  1.303827 A    
C79   C127  1.610136 S    
Zn20  O92   1.961338 S    
C153  H67   1.110098 S    
C102  N38   1.503474 S    
C169  H132  1.100643 S    
Zn24  O48   1.909948 S    
N60   C172  1.456423 S    
C67   N3    1.480089 S    
C69   C117  1.610012 S    
C145  H35   1.110118 S    
Zn13  O7    1.938078 S    
N59   C171  1.452954 S    
C73   N25   1.492795 S    
O100  C12   1.261438 A    
N3    H41   1.026084 S    
C165  H116  1.100672 S    
Zn25  O33   1.910975 S    
H2    C82   1.110902 S    
C175  H156  1.100677 S    
Zn11  O69   1.909776 S    
C107  N43   1.500396 S    
N39   O149  1.302057 A    
C175  H155  1.111162 S    
C131  C132  1.196529 T    
O27   C19   1.276707 A    
C78   C79   1.632701 S    
C72   C120  1.631278 S    
C166  H118  1.107120 S    
C77   N29   1.492797 S    
O86   C30   1.276947 A    
C104  N56   1.479009 S    
C173  H147  1.111146 S    
Zn12  O70   1.909710 S    
N29   O130  1.303824 A    
Zn22  O30   1.910598 S    
C170  H135  1.107595 S    
C70   N22   1.488469 S    
N19   O109  1.298741 A    
O19   C11   1.281657 A    
Zn29  O7    1.937489 S    
Zn9   O5    1.938078 S    
C72   N24   1.488471 S    
O62   C44   1.276710 A    
N40   O152  1.301999 A    
N4    C148  1.455015 S    
Zn4   O62   1.909710 S    
C109  N61   1.485678 S    
C149  H51   1.110117 S    
C80   N16   1.481534 S    
Zn30  O54   1.909953 S    
C74   C75   1.632622 S    
C73   C121  1.610236 S    
C78   C126  1.631446 S    
O43   C35   1.276429 A    
C65   C68   1.632511 S    
C164  H112  1.110542 S    
Zn8   O58   1.909710 S    
N28   O128  1.303046 A    
C78   N14   1.481606 S    
Zn10  O24   1.961888 S    
Zn14  O86   1.910935 S    
N20   O111  1.300999 A    
C69   C72   1.632501 S    
O9    C1    1.281693 A    
C66   C114  1.631266 S    
C70   C118  1.631286 S    
O102  C14   1.261453 A    
C51   C59   1.195990 T    
O67   C47   1.277219 A    
O84   C28   1.276952 A    
C49   C57   1.195993 T    
C86   H22   1.103207 S    
C147  H44   1.107704 S    
O65   C45   1.277218 A    
N25   O122  1.303813 A    
N9    H65   1.026104 S    
N36   O144  1.301999 A    
C87   C119  1.565350 S    
C162  H104  1.110542 S    
O70   C48   1.276710 A    
N37   O146  1.302599 A    
C88   C120  1.563486 S    
Zn19  O43   1.909882 S    
C103  N39   1.500382 S    
N62   H149  1.021342 S    
N55   C167  1.452905 S    
C16   C122  1.505308 S    
N11   H73   1.026088 S    
C150  H55   1.108710 S    
C174  H151  1.107564 S    
N22   O116  1.303058 A    
N46   O163  1.301863 A    
C112  C128  1.624502 S    
N11   C155  1.453648 S    
O12   C4    1.279328 A    
O54   C40   1.276863 A    
C172  H142  1.107316 S    
O42   C34   1.276862 A    
C66   N18   1.488467 S    
C175  H154  1.109980 S    
O80   C24   1.276948 A    
C169  H131  1.111165 S    
C52   C60   1.195919 T    
Zn18  O42   1.909953 S    
N61   H145  1.024173 S    
Zn21  O45   1.909883 S    
N35   O142  1.302599 A    
C33   C62   1.418374 S    
C101  N53   1.485675 S    
Zn23  O47   1.909882 S    
C150  H54   1.110475 S    
Zn16  O88   1.910938 S    
O41   C33   1.276431 A    
Zn16  O6    1.937339 S    
Zn31  O39   1.910977 S    
