data_mof_unit_67889.cif
_audit_creation_date              2013-03-05T15:45:59-0500
_audit_creation_method            fapswitch 2.2
_symmetry_space_group_name_H-M    P1
_symmetry_Int_Tables_number       1
_space_group_crystal_system       triclinic
_cell_length_a                    15.688102
_cell_length_b                    15.515497
_cell_length_c                    10.284496
_cell_angle_alpha                 90.798108
_cell_angle_beta                  81.553782
_cell_angle_gamma                 89.903724
_cell_volume                      2475.92724784

loop_
_atom_site_label
_atom_site_type_symbol
_atom_site_description
_atom_site_fract_x
_atom_site_fract_y
_atom_site_fract_z
_atom_type_partial_charge
O1    O     O_R   0.398960 0.091100 0.433300 -0.631440
O2    O     O_R   0.601040 0.908900 0.566700 -0.588378
O3    O     O_R   0.601040 0.091100 0.566700 -0.644074
O4    O     O_R   0.398960 0.908900 0.433300 -0.571820
O5    O     O_R   0.898960 0.591100 0.433300 -0.631547
O6    O     O_R   0.101040 0.408900 0.566700 -0.588334
O7    O     O_R   0.101040 0.591100 0.566700 -0.643915
O8    O     O_R   0.898960 0.408900 0.433300 -0.571601
O9    O     O_R   0.430710 0.091090 0.646210 -0.624475
O10   O     O_R   0.569290 0.908910 0.353790 -0.627025
O11   O     O_R   0.569290 0.091090 0.353790 -0.592309
O12   O     O_R   0.430710 0.908910 0.646210 -0.577524
O13   O     O_R   0.930710 0.591090 0.646210 -0.624050
O14   O     O_R   0.069290 0.408910 0.353790 -0.627025
O15   O     O_R   0.069290 0.591090 0.353790 -0.592548
O16   O     O_R   0.930710 0.408910 0.646210 -0.578021
C1    C     C_R   0.393840 0.125150 0.551558 0.760539
C2    C     C_R   0.610153 0.877405 0.447039 0.746072
C3    C     C_R   0.608479 0.123311 0.447745 0.749872
C4    C     C_R   0.389519 0.878311 0.553136 0.777182
C5    C     C_R   0.893879 0.625184 0.551517 0.760453
C6    C     C_R   0.110144 0.377395 0.447047 0.746049
C7    C     C_R   0.108445 0.623346 0.447780 0.749337
C8    C     C_R   0.889492 0.378326 0.553162 0.776967
C9    C     C_2   0.490324 0.990707 0.930471 0.584766
C10   C     C_2   0.509489 0.005971 0.067841 0.533804
C11   C     C_2   0.990258 0.490994 0.930456 0.584904
C12   C     C_2   0.009446 0.506156 0.067821 0.533466
Zn1   Zn    Zn3+2 0.478810 0.000000 0.357840 0.974821
Zn2   Zn    Zn3+2 0.521190 0.000000 0.642160 0.962814
Zn3   Zn    Zn3+2 0.978810 0.500000 0.357840 0.974690
Zn4   Zn    Zn3+2 0.021190 0.500000 0.642160 0.962905
N1    N     N_2   0.549450 0.000000 0.831550 -0.013589
N2    N     N_2   0.450550 0.000000 0.168450 -0.002639
N3    N     N_2   0.049450 0.500000 0.831550 -0.013614
N4    N     N_2   0.950550 0.500000 0.168450 -0.002652
C13   C     C_2   0.326220 0.808554 0.584138 0.203302
C14   C     C_2   0.664348 0.199583 0.420597 0.185819
C15   C     C_2   0.672255 0.804822 0.420969 0.224163
C16   C     C_2   0.343814 0.206091 0.575101 0.186695
C17   C     C_2   0.826127 0.308601 0.584201 0.202538
C18   C     C_2   0.164185 0.699743 0.420782 0.186058
C19   C     C_2   0.172228 0.304791 0.421021 0.224165
C20   C     C_2   0.843965 0.706218 0.574880 0.186201
C21   C     C_2   0.287024 0.775045 0.486946 0.337224
C22   C     C_2   0.702088 0.233587 0.519048 0.326991
C23   C     C_2   0.720867 0.784012 0.514999 0.340682
C24   C     C_2   0.301645 0.235198 0.478429 0.339921
C25   C     C_2   0.787077 0.274989 0.486930 0.337971
C26   C     C_2   0.202044 0.733641 0.519213 0.326913
C27   C     C_2   0.220751 0.283931 0.515146 0.340705
C28   C     C_2   0.801736 0.735240 0.478208 0.340333
O17   O     O_3   0.378205 0.956357 0.152123 -0.566689
C29   C     C_3   0.308061 0.998952 0.229266 0.232260
H1    H     H_    0.302482 0.066580 0.196628 0.123376
H2    H     H_    0.316573 0.000856 0.332534 0.223060
C30   C     C_3   0.222927 0.951745 0.221579 -0.364246
H3    H     H_    0.188718 0.981620 0.146356 0.171630
H4    H     H_    0.236136 0.883458 0.192488 0.300231
C31   C     C_3   0.163396 0.955513 0.353727 -0.871375
H5    H     H_    0.191987 0.918589 0.428149 0.263201
H6    H     H_    0.099783 0.927295 0.344183 0.267230
H7    H     H_    0.154042 0.023151 0.389472 0.247242
O18   O     O_3   0.630513 0.980068 0.851877 -0.621528
C32   C     C_3   0.689012 0.025529 0.761530 0.277476
H8    H     H_    0.671953 0.094780 0.766940 0.195142
H9    H     H_    0.689842 0.998223 0.662351 0.219147
C33   C     C_3   0.781424 0.017872 0.791278 -0.409933
H10   H     H_    0.790713 0.062706 0.873070 0.207176
H11   H     H_    0.794730 0.950833 0.819689 0.258121
C34   C     C_3   0.845716 0.042159 0.670809 -0.915259
H12   H     H_    0.826767 0.103602 0.628962 0.290765
H13   H     H_    0.848578 0.990709 0.594027 0.261457
H14   H     H_    0.910651 0.050639 0.698809 0.273672
O19   O     O_3   0.878257 0.456288 0.152053 -0.566744
C35   C     C_3   0.808056 0.498747 0.229286 0.231605
H15   H     H_    0.802224 0.566315 0.196540 0.123246
H16   H     H_    0.816665 0.500843 0.332496 0.223180
C36   C     C_3   0.723059 0.451217 0.221942 -0.363194
H17   H     H_    0.688787 0.480643 0.146424 0.171620
H18   H     H_    0.736496 0.382889 0.193398 0.301037
C37   C     C_3   0.663501 0.455261 0.354063 -0.871985
H19   H     H_    0.653708 0.523026 0.389015 0.247568
H20   H     H_    0.692295 0.418977 0.428971 0.262443
H21   H     H_    0.600077 0.426489 0.344827 0.267321
O20   O     O_3   0.130473 0.479986 0.851970 -0.621605
C38   C     C_3   0.189033 0.525405 0.761653 0.277394
H22   H     H_    0.172041 0.594667 0.767106 0.194924
H23   H     H_    0.189837 0.498160 0.662442 0.219150
C39   C     C_3   0.281431 0.517645 0.791430 -0.409885
H24   H     H_    0.290754 0.562457 0.873233 0.207054
H25   H     H_    0.294668 0.450586 0.819828 0.258259
C40   C     C_3   0.345768 0.541912 0.671007 -0.915106
H26   H     H_    0.348668 0.490441 0.594244 0.261466
H27   H     H_    0.410678 0.550412 0.699108 0.273702
H28   H     H_    0.326840 0.603348 0.629099 0.291042
O21   O     O_3   0.667337 0.224779 0.650595 -0.652636
C41   C     C_3   0.586323 0.266804 0.679119 0.155144
H29   H     H_    0.546942 0.229168 0.756526 0.159430
H30   H     H_    0.549408 0.268967 0.594400 0.131259
C42   C     C_3   0.596635 0.357729 0.733508 -0.405111
H31   H     H_    0.617498 0.353817 0.831786 0.215451
H32   H     H_    0.645961 0.393463 0.666738 0.206405
C43   C     C_3   0.511897 0.407149 0.747862 -0.921246
H33   H     H_    0.492149 0.416613 0.649608 0.284818
H34   H     H_    0.520270 0.470822 0.794379 0.245633
H35   H     H_    0.460637 0.371738 0.811269 0.287935
O22   O     O_3   0.323558 0.783461 0.356118 -0.597359
C44   C     C_3   0.363030 0.704649 0.308436 0.109060
H36   H     H_    0.366043 0.703948 0.199815 0.171625
H37   H     H_    0.325697 0.646624 0.345213 0.082229
C45   C     C_3   0.454767 0.697474 0.340603 -0.354011
H38   H     H_    0.490178 0.757222 0.310025 0.264314
H39   H     H_    0.453193 0.690115 0.448209 0.201149
C46   C     C_3   0.501362 0.620013 0.269383 -0.938751
H40   H     H_    0.467852 0.559292 0.301930 0.257122
H41   H     H_    0.568095 0.616997 0.291863 0.309069
H42   H     H_    0.504244 0.625928 0.161315 0.253304
O23   O     O_3   0.327479 0.214505 0.345971 -0.633248
C47   C     C_3   0.408340 0.252493 0.298283 0.125903
H43   H     H_    0.452879 0.200244 0.256001 0.196450
H44   H     H_    0.439810 0.286688 0.374853 0.110989
C48   C     C_3   0.397763 0.315512 0.188765 -0.385850
H45   H     H_    0.362091 0.283655 0.115886 0.220490
H46   H     H_    0.360580 0.372640 0.232022 0.202126
C49   C     C_3   0.484541 0.345271 0.117024 -0.981534
H47   H     H_    0.524876 0.371852 0.187626 0.283341
H48   H     H_    0.474091 0.396557 0.046860 0.268176
H49   H     H_    0.519014 0.290627 0.061312 0.261560
O24   O     O_3   0.698367 0.811190 0.645353 -0.601122
C50   C     C_3   0.653682 0.744730 0.720658 0.114174
H50   H     H_    0.668620 0.751830 0.822442 0.163618
H51   H     H_    0.674353 0.678555 0.685152 0.081179
C51   C     C_3   0.555836 0.753376 0.729310 -0.279540
H52   H     H_    0.535414 0.818650 0.767082 0.278303
H53   H     H_    0.536676 0.743477 0.630460 0.200125
C52   C     C_3   0.510152 0.687078 0.823070 -1.017417
H54   H     H_    0.532822 0.621258 0.791896 0.256837
H55   H     H_    0.439633 0.690430 0.822663 0.307060
H56   H     H_    0.523255 0.699866 0.924832 0.257250
O25   O     O_3   0.167579 0.724575 0.650834 -0.653153
C53   C     C_3   0.086500 0.766409 0.679967 0.155429
H57   H     H_    0.047844 0.729307 0.758781 0.158089
H58   H     H_    0.048883 0.767433 0.596038 0.132598
C54   C     C_3   0.096781 0.857905 0.732180 -0.407731
H59   H     H_    0.118189 0.855114 0.830150 0.214979
H60   H     H_    0.145662 0.893259 0.664149 0.206434
C55   C     C_3   0.011843 0.906968 0.746623 -0.918759
H61   H     H_    0.991224 0.915061 0.648709 0.285727
H62   H     H_    0.020387 0.971228 0.791062 0.245252
H63   H     H_    0.961151 0.872112 0.811891 0.286893
O26   O     O_3   0.823756 0.283307 0.356152 -0.597706
C56   C     C_3   0.863239 0.204461 0.308675 0.108579
H64   H     H_    0.866337 0.203681 0.200040 0.171701
H65   H     H_    0.825880 0.146461 0.345494 0.082294
C57   C     C_3   0.954929 0.197321 0.341029 -0.354366
H66   H     H_    0.990334 0.257088 0.310551 0.264369
H67   H     H_    0.953258 0.189941 0.448649 0.200943
C58   C     C_3   0.001606 0.119896 0.269840 -0.938211
H68   H     H_    0.968105 0.059153 0.302293 0.257083
H69   H     H_    0.068306 0.116916 0.292451 0.309228
H70   H     H_    0.004579 0.125836 0.161759 0.253310
O27   O     O_3   0.827400 0.714357 0.345766 -0.633343
C59   C     C_3   0.908373 0.752023 0.297788 0.126599
H71   H     H_    0.952561 0.699621 0.255022 0.196191
H72   H     H_    0.940238 0.785828 0.374285 0.111391
C60   C     C_3   0.897863 0.815372 0.188661 -0.386530
H73   H     H_    0.861893 0.783876 0.115836 0.220316
H74   H     H_    0.861003 0.872587 0.232322 0.202258
C61   C     C_3   0.984689 0.844821 0.116658 -0.982337
H75   H     H_    0.025490 0.870637 0.187186 0.283910
H76   H     H_    0.974382 0.896598 0.047199 0.268049
H77   H     H_    0.018614 0.790194 0.060115 0.261183
O28   O     O_3   0.198174 0.311072 0.645504 -0.601034
C62   C     C_3   0.153432 0.244606 0.720716 0.114773
H78   H     H_    0.168432 0.251575 0.822480 0.163853
H79   H     H_    0.173983 0.178427 0.685060 0.080964
C63   C     C_3   0.055595 0.253424 0.729500 -0.280214
H80   H     H_    0.035320 0.318770 0.767104 0.278248
H81   H     H_    0.036363 0.243452 0.630713 0.199968
C64   C     C_3   0.009832 0.187322 0.823536 -1.017958
H82   H     H_    0.032562 0.121450 0.792833 0.256679
H83   H     H_    0.939332 0.190588 0.822898 0.306858
H84   H     H_    0.022800 0.200391 0.925292 0.257468
O29   O     O_3   0.667980 0.248397 0.307097 -0.624180
C65   C     C_3   0.679666 0.198546 0.190929 -0.214165
H85   H     H_    0.616482 0.189729 0.157344 0.232326
H86   H     H_    0.713667 0.136663 0.200618 0.133822
H87   H     H_    0.720264 0.235291 0.113613 0.151303
O30   O     O_3   0.317055 0.765247 0.703026 -0.622694
C66   C     C_3   0.297591 0.820705 0.812660 -0.173951
H88   H     H_    0.276432 0.886445 0.788997 0.133358
H89   H     H_    0.353987 0.823178 0.865484 0.237583
H90   H     H_    0.244716 0.791569 0.881235 0.156007
O31   O     O_3   0.354314 0.264413 0.676131 -0.598223
C67   C     C_3   0.344588 0.226229 0.800472 -0.311552
H91   H     H_    0.407130 0.201662 0.821748 0.175447
H92   H     H_    0.294648 0.175460 0.811416 0.118163
H93   H     H_    0.323275 0.276732 0.875684 0.170837
O32   O     O_3   0.669431 0.745187 0.319218 -0.604868
C68   C     C_3   0.677009 0.784126 0.195871 -0.281775
H94   H     H_    0.718866 0.841950 0.189619 0.122202
H95   H     H_    0.612153 0.798578 0.171294 0.179231
H96   H     H_    0.707262 0.737088 0.120705 0.172496
O33   O     O_3   0.167737 0.748665 0.307387 -0.623982
C69   C     C_3   0.179231 0.698917 0.191113 -0.213771
H97   H     H_    0.115953 0.690019 0.157862 0.232116
H98   H     H_    0.213374 0.637077 0.200500 0.134059
H99   H     H_    0.219609 0.735775 0.113692 0.151205
O34   O     O_3   0.816527 0.265512 0.703316 -0.622726
C70   C     C_3   0.797854 0.321244 0.812771 -0.173640
H100  H     H_    0.776557 0.386920 0.789035 0.134018
H101  H     H_    0.854693 0.323750 0.864627 0.237986
H102  H     H_    0.745298 0.292345 0.882228 0.155487
O35   O     O_3   0.854708 0.764736 0.675544 -0.598396
C71   C     C_3   0.845113 0.726829 0.800068 -0.310549
H103  H     H_    0.907634 0.702060 0.821102 0.175342
H104  H     H_    0.794959 0.676291 0.811535 0.118085
H105  H     H_    0.824154 0.777544 0.875097 0.170935
O36   O     O_3   0.169524 0.245206 0.319161 -0.604931
C72   C     C_3   0.176986 0.284209 0.195870 -0.281731
H106  H     H_    0.218774 0.342077 0.189652 0.122220
H107  H     H_    0.112094 0.298600 0.171378 0.179316
H108  H     H_    0.207267 0.237239 0.120620 0.172400
O37   O     O_3   0.584649 0.048635 0.084346 -0.666489
C73   C     C_3   0.649531 0.989638 0.105716 -0.226296
H109  H     H_    0.711534 0.011442 0.052098 0.153124
H110  H     H_    0.638861 0.923335 0.070158 0.153430
H111  H     H_    0.660026 0.991163 0.209036 0.182463
O38   O     O_3   0.411127 0.960787 0.906513 -0.619078
C74   C     C_3   0.349867 0.027657 0.913717 -0.312761
H112  H     H_    0.368777 0.088450 0.960570 0.106335
H113  H     H_    0.289108 0.005159 0.970283 0.170762
H114  H     H_    0.332429 0.037691 0.815324 0.191280
O39   O     O_3   0.084606 0.548814 0.084363 -0.666825
C75   C     C_3   0.149455 0.489805 0.105839 -0.225857
H115  H     H_    0.211473 0.511558 0.052225 0.152958
H116  H     H_    0.138752 0.423483 0.070386 0.153543
H117  H     H_    0.159946 0.491370 0.209157 0.182541
O40   O     O_3   0.910932 0.461465 0.906448 -0.619320
C76   C     C_3   0.849872 0.528537 0.914097 -0.313440
H118  H     H_    0.869132 0.589264 0.960750 0.106299
H119  H     H_    0.789147 0.506237 0.970995 0.170948
H120  H     H_    0.832174 0.538625 0.815875 0.191199

loop_
_geom_bond_atom_site_label_1
_geom_bond_atom_site_label_2
_geom_bond_distance
_ccdc_geom_bond_type
O6    Zn4   1.961454 S    
C15   O32   1.392820 S    
C14   O29   1.394508 S    
C49   H47   1.106902 S    
O2    C2    1.305784 A    
C20   O35   1.396473 S    
C68   H94   1.109688 S    
O13   Zn4   1.997069 S    
C19   O36   1.392881 S    
C57   C58   1.526566 S    
C35   C36   1.535882 S    
O14   Zn3   1.997069 S    
C38   H22   1.105446 S    
C50   C51   1.530060 S    
C51   C52   1.526007 S    
C45   H39   1.110798 S    
C63   H80   1.109299 S    
C30   H3    1.110182 S    
C48   H45   1.110460 S    
C62   H79   1.116431 S    
O17   C29   1.415490 S    
C75   H115  1.101491 S    
C70   H100  1.113255 S    
C52   H55   1.108072 S    
C22   C25   1.476121 S    
O11   C3    1.312898 A    
C42   H31   1.109612 S    
C7    C18   1.479221 S    
C31   H7    1.109456 S    
O3    Zn2   1.979979 S    
C59   H71   1.110692 S    
N4    O19   1.352869 S    
C35   H16   1.089581 S    
C72   H108  1.109431 S    
C44   H37   1.114802 S    
C58   H68   1.111191 S    
C54   H59   1.109257 S    
N3    O20   1.354669 S    
C69   H98   1.110352 S    
C48   H46   1.111246 S    
C61   H75   1.106990 S    
C10   O37   1.384066 S    
C46   H40   1.111190 S    
O6    C6    1.305766 A    
C64   H82   1.108206 S    
O22   C44   1.418007 S    
C18   O33   1.394640 S    
C31   H6    1.107381 S    
C76   H118  1.113658 S    
C2    C15   1.483400 S    
O28   C62   1.421151 S    
C43   H33   1.111117 S    
C10   N2    1.286886 D    
C24   C27   1.474085 S    
O29   C65   1.403091 S    
O27   C59   1.423058 S    
O32   C68   1.402035 S    
C32   H9    1.097324 S    
O39   C75   1.410867 S    
C71   H105  1.109220 S    
O3    C3    1.317331 A    
C71   H103  1.104494 S    
C62   C63   1.530012 S    
Zn3   N4    2.060117 S    
O4    Zn1   1.979981 S    
C25   O26   1.390852 S    
C21   O22   1.390873 S    
C20   C28   1.354663 D    
O15   C7    1.313078 A    
C13   O30   1.392382 S    
O16   C8    1.315002 A    
C8    C17   1.476625 S    
C68   H95   1.107147 S    
C53   C54   1.527956 S    
C67   H93   1.109221 S    
C17   C25   1.347066 D    
O36   C72   1.402036 S    
C54   H60   1.110395 S    
C47   H44   1.117501 S    
C11   O40   1.381521 S    
O21   C41   1.417369 S    
C24   O23   1.395803 S    
C64   H83   1.108081 S    
C52   H56   1.111080 S    
C29   H2    1.089719 S    
C9    O38   1.381516 S    
C23   O24   1.394423 S    
C66   H88   1.113240 S    
Zn4   N3    2.060117 S    
C55   H63   1.109152 S    
C55   H61   1.110640 S    
C60   H74   1.111295 S    
C44   C45   1.527558 S    
C60   H73   1.110439 S    
C34   H13   1.111182 S    
C69   H97   1.104698 S    
C33   H10   1.110308 S    
C48   C49   1.525599 S    
C51   H53   1.110419 S    
C28   O27   1.395906 S    
C49   H49   1.110622 S    
C46   H41   1.105854 S    
C9    C10   1.502708 S    
O33   C69   1.403118 S    
Zn1   N2    2.060117 S    
C37   H19   1.109495 S    
O31   C67   1.404867 S    
C31   H5    1.107892 S    
C76   H119  1.101213 S    
C1    C16   1.477862 S    
C27   O28   1.394427 S    
O19   C35   1.415554 S    
C66   H89   1.104591 S    
O30   C66   1.405666 S    
C72   H106  1.109616 S    
C3    C14   1.478987 S    
C36   C37   1.532245 S    
C5    C20   1.478066 S    
C39   H25   1.111999 S    
C62   H78   1.109818 S    
C46   H42   1.110777 S    
O12   C4    1.315036 A    
C58   H69   1.105797 S    
O37   C73   1.410831 S    
C58   H70   1.110791 S    
O13   C5    1.319369 A    
C74   H113  1.101251 S    
C40   H26   1.111238 S    
C35   H15   1.113272 S    
C56   C57   1.527477 S    
C12   N4    1.286871 D    
C43   H35   1.109607 S    
C23   C28   1.474154 S    
O9    Zn2   1.997069 S    
C18   C26   1.347971 D    
C60   C61   1.525687 S    
C67   H92   1.107069 S    
C70   H101  1.104665 S    
C22   O21   1.391028 S    
C40   H28   1.109343 S    
C73   H109  1.101556 S    
C42   C43   1.520775 S    
C73   H110  1.108204 S    
C38   H23   1.097327 S    
C68   H96   1.109435 S    
C53   H58   1.115152 S    
C56   H65   1.114798 S    
C32   H8    1.105533 S    
C32   C33   1.529794 S    
C75   H117  1.098822 S    
C65   H86   1.110358 S    
C50   H50   1.109842 S    
C37   H21   1.107441 S    
N1    O18   1.354702 S    
C47   C48   1.528807 S    
C54   C55   1.520671 S    
C47   H43   1.110638 S    
C39   C40   1.530170 S    
C15   C23   1.358514 D    
C64   H84   1.111056 S    
O9    C1    1.319153 A    
C16   C24   1.354539 D    
C29   H1    1.113302 S    
C57   H66   1.106964 S    
C49   H48   1.109542 S    
O7    Zn4   1.979979 S    
Zn2   N1    2.060117 S    
O12   Zn2   2.001263 S    
O20   C38   1.404676 S    
O8    Zn3   1.979981 S    
O1    C1    1.310729 A    
C59   C60   1.528852 S    
C55   H62   1.107539 S    
C67   H91   1.104538 S    
C50   H51   1.116414 S    
C34   H14   1.106141 S    
C63   H81   1.110404 S    
O23   C47   1.423011 S    
C26   O25   1.391073 S    
O15   Zn3   2.001261 S    
C43   H34   1.108082 S    
O16   Zn4   2.001263 S    
C73   H111  1.098854 S    
C52   H54   1.108303 S    
C51   H52   1.109329 S    
C37   H20   1.108120 S    
C41   C42   1.527954 S    
C17   O34   1.392599 S    
O2    Zn2   1.961454 S    
C76   H120  1.099395 S    
C11   N3    1.281969 D    
O18   C32   1.404644 S    
O14   C6    1.327525 A    
C65   H87   1.108173 S    
C57   H67   1.110798 S    
O24   C50   1.421166 S    
C56   H64   1.111049 S    
C66   H90   1.108209 S    
C34   H12   1.109263 S    
C72   H107  1.107173 S    
O25   C53   1.417334 S    
C4    C13   1.476286 S    
C69   H99   1.108170 S    
C19   C27   1.358551 D    
C39   H24   1.110301 S    
C40   H27   1.106229 S    
C61   H76   1.109634 S    
C21   C26   1.476146 S    
O10   C2    1.327489 A    
C33   C34   1.530209 S    
O7    C7    1.317242 A    
C59   H72   1.117526 S    
O40   C76   1.406768 S    
O8    C8    1.315075 A    
C41   H29   1.107309 S    
C75   H116  1.108208 S    
C74   H114  1.099384 S    
C45   H38   1.106969 S    
C45   C46   1.526606 S    
O35   C71   1.404747 S    
C36   H18   1.107661 S    
O38   C74   1.406815 S    
C41   H30   1.115621 S    
C14   C22   1.347721 D    
C63   C64   1.526033 S    
C30   H4    1.107798 S    
C12   O39   1.384098 S    
C36   H17   1.110162 S    
O4    C4    1.314922 A    
O10   Zn1   1.997069 S    
C30   C31   1.532136 S    
C70   H102  1.108278 S    
O5    C5    1.310597 A    
O26   C56   1.417966 S    
O11   Zn1   2.001261 S    
N2    O17   1.352864 S    
C42   H32   1.110710 S    
O34   C70   1.405655 S    
C38   C39   1.529804 S    
C74   H112  1.113618 S    
C33   H11   1.111977 S    
C53   H57   1.107210 S    
C16   O31   1.396491 S    
O1    Zn1   1.961454 S    
O5    Zn3   1.961454 S    
C65   H85   1.104675 S    
C44   H36   1.111048 S    
C13   C21   1.347124 D    
C61   H77   1.110688 S    
C6    C19   1.483450 S    
C71   H104  1.106900 S    
C9    N1    1.281997 D    
C11   C12   1.502555 S    
C29   C30   1.535988 S    
