data_mof_unit_36425.cif
_audit_creation_date              2012-12-10T17:59:43-0500
_audit_creation_method            fapswitch 2.2
_symmetry_space_group_name_H-M    P1
_symmetry_Int_Tables_number       1
_space_group_crystal_system       triclinic
_cell_length_a                    10.831601
_cell_length_b                    9.510565
_cell_length_c                    15.89048
_cell_angle_alpha                 89.984332
_cell_angle_beta                  90.154824
_cell_angle_gamma                 90.019641
_cell_volume                      1636.94602854

loop_
_atom_site_label
_atom_site_type_symbol
_atom_type_description
_atom_site_fract_x
_atom_site_fract_y
_atom_site_fract_z
_atom_type_partial_charge
C1    C     C_R   0.262045 0.499986 0.499894 0.792270
C2    C     C_3   0.629744 0.542113 0.955126 0.771940
C3    C     C_3   0.614010 0.558411 0.051996 -0.543122
C4    C     C_1   0.499894 0.499557 0.824913 0.128703
C5    C     C_1   0.491298 0.500708 0.175280 0.075818
C6    C     C_1   0.496101 0.500192 0.250747 -0.229406
C7    C     C_R   0.063822 0.372205 0.499940 -0.176603
C8    C     C_R   0.063906 0.627779 0.499781 -0.179166
C9    C     C_R   0.936114 0.372221 0.500078 -0.181703
C10   C     C_R   0.936198 0.627795 0.499916 -0.181776
C11   C     C_R   0.871799 0.500016 0.500052 -0.018954
C12   C     C_R   0.128216 0.499983 0.499840 -0.016931
C13   C     C_R   0.424444 0.074439 0.446860 -0.022197
C14   C     C_R   0.424450 0.925550 0.446856 -0.025767
C15   C     C_R   0.499749 0.500027 0.340202 0.821116
C16   C     C_R   0.575724 0.925563 0.553094 -0.017351
C17   C     C_R   0.575729 0.074447 0.553090 -0.012651
C18   C     C_R   0.737964 0.500014 0.500072 0.784613
C19   C     C_R   0.500108 0.499975 0.659854 0.823577
C20   C     C_3   0.382854 0.603251 0.047690 0.763097
C21   C     C_3   0.465544 0.344716 0.048802 0.782302
C22   C     C_3   0.470484 0.348021 0.949474 0.407775
C23   C     C_3   0.388257 0.592856 0.948786 0.334386
C24   C     C_1   0.500008 0.499848 0.749417 -0.161864
C25   C     C_3   0.486511 0.501247 0.082880 -0.141940
C26   C     C_3   0.498352 0.499312 0.917142 -0.247493
Cu1   Cu    Cu3+1 0.500020 0.640660 0.500000 0.946582
Cu2   Cu    Cu3+1 0.500020 0.359340 0.500000 0.952704
H1    H     H_    0.636409 0.869400 0.595552 0.120491
H2    H     H_    0.636423 0.130619 0.595541 0.118002
H3    H     H_    0.542466 0.275386 0.925533 0.114532
H4    H     H_    0.393432 0.699742 0.921881 0.097981
H5    H     H_    0.626519 0.669474 0.071717 0.206175
H6    H     H_    0.689858 0.501543 0.085186 0.244894
H7    H     H_    0.111832 0.272302 0.499943 0.150921
H8    H     H_    0.111982 0.727679 0.499654 0.150650
H9    H     H_    0.888043 0.272318 0.500199 0.149856
H10   H     H_    0.888193 0.727701 0.499904 0.149843
H11   H     H_    0.363874 0.130599 0.404315 0.109474
H12   H     H_    0.363892 0.869380 0.404305 0.111028
N1    N     N_R   0.500030 0.852070 0.500020 -0.155703
N2    N     N_R   0.500030 0.147930 0.500020 -0.155311
O1    O     O_R   0.319660 0.618740 0.500000 -0.587409
O2    O     O_R   0.319660 0.381260 0.500000 -0.586799
O3    O     O_R   0.500020 0.618840 0.379440 -0.582259
O4    O     O_R   0.500020 0.381160 0.379440 -0.576717
O5    O     O_R   0.680370 0.618830 0.500010 -0.589746
O6    O     O_R   0.680370 0.381170 0.500010 -0.590234
O7    O     O_R   0.500010 0.618730 0.620560 -0.575223
O8    O     O_R   0.500010 0.381270 0.620560 -0.568096
F1    F     F_    0.278163 0.540544 0.916468 -0.583541
F2    F     F_    0.361580 0.296485 0.914793 -0.566568
O9    O     O_3   0.264901 0.558094 0.077739 -0.550424
C27   C     C_3   0.167355 0.652224 0.057831 -0.078737
H13   H     H_    0.089817 0.591135 0.030381 0.198582
H14   H     H_    0.192085 0.736554 0.012288 0.173676
H15   H     H_    0.133299 0.702080 0.116443 0.112881
O10   O     O_3   0.345857 0.292350 0.071530 -0.498549
C28   C     C_3   0.332051 0.251462 0.156733 -0.212941
H16   H     H_    0.283325 0.335587 0.191782 0.177939
H17   H     H_    0.419164 0.224626 0.189924 0.166529
H18   H     H_    0.272542 0.156625 0.158790 0.153240
O11   O     O_3   0.562917 0.257556 0.080507 -0.614970
C29   C     C_3   0.552126 0.114222 0.056636 -0.309993
H19   H     H_    0.627755 0.087862 0.012408 0.176854
H20   H     H_    0.462640 0.085491 0.026651 0.210413
H21   H     H_    0.563817 0.047616 0.113415 0.187099
O12   O     O_3   0.406940 0.747506 0.068796 -0.664834
C30   C     C_3   0.389279 0.783871 0.154311 -0.352983
H22   H     H_    0.328210 0.711689 0.189987 0.192475
H23   H     H_    0.346843 0.889876 0.156883 0.175186
H24   H     H_    0.480303 0.790964 0.186237 0.180326
O13   O     O_3   0.689313 0.664116 0.920081 -0.573871
C31   C     C_3   0.616909 0.785790 0.910332 -0.402849
H25   H     H_    0.565745 0.813919 0.967830 0.193764
H26   H     H_    0.556955 0.777253 0.853928 0.176317
H27   H     H_    0.680106 0.875162 0.897988 0.203883
O14   O     O_3   0.711818 0.424680 0.946067 -0.605164
C32   C     C_3   0.789256 0.430680 0.874600 -0.162719
H28   H     H_    0.868045 0.502866 0.886552 0.212165
H29   H     H_    0.739431 0.462742 0.816696 0.140424
H30   H     H_    0.827762 0.324314 0.863355 0.162079

loop_
_geom_bond_atom_site_label_1
_geom_bond_atom_site_label_2
_ccdc_geom_bond_type
C11   C18   S    
O13   C31   S    
C18   O5    A    
O9    C27   S    
Cu2   O4    S    
C31   H26   S    
C5    C6    T    
C4    C24   T    
C20   C25   S    
C3    H5    S    
C8    H8    S    
C23   C26   S    
C30   H23   S    
C19   O7    A    
C17   N2    A    
C6    C15   S    
Cu2   O8    S    
C1    O1    A    
O12   C30   S    
C31   H27   S    
Cu1   O3    S    
C28   H16   S    
C13   C14   A    
C17   H2    S    
C1    C12   S    
C13   N2    A    
C7    C12   A    
C27   H14   S    
C28   H17   S    
C21   O11   S    
C22   H3    S    
C29   H21   S    
C3    C25   S    
C31   H25   S    
C32   H29   S    
O14   C32   S    
C16   C17   A    
C3    H6    S    
C16   H1    S    
Cu2   O2    S    
C32   H28   S    
C29   H20   S    
C30   H24   S    
C2    O14   S    
Cu1   N1    S    
C1    O2    A    
C23   F1    S    
C20   C23   S    
C8    C12   A    
C9    H9    S    
C2    C26   S    
C9    C11   A    
C2    O13   S    
C14   N1    A    
C5    C25   S    
C15   O3    A    
C22   F2    S    
Cu1   O5    S    
C7    C9    A    
C21   C25   S    
C27   H13   S    
Cu2   O6    S    
C28   H18   S    
C7    H7    S    
C20   O12   S    
C20   O9    S    
C18   O6    A    
C32   H30   S    
C4    C26   S    
C10   H10   S    
C23   H4    S    
C19   C24   S    
O10   C28   S    
C21   O10   S    
C29   H19   S    
C19   O8    A    
Cu2   N2    S    
C2    C3    S    
C30   H22   S    
C13   H11   S    
C10   C11   A    
C14   H12   S    
O11   C29   S    
Cu1   O1    S    
C8    C10   A    
C22   C26   S    
Cu1   Cu2   S    
C15   O4    A    
C21   C22   S    
C16   N1    A    
Cu1   O7    S    
C27   H15   S    
