data_mof_unit_10439.cif
_audit_creation_date              2012-12-10T20:21:39-0500
_audit_creation_method            fapswitch 2.2
_symmetry_space_group_name_H-M    P1
_symmetry_Int_Tables_number       1
_space_group_crystal_system       triclinic
_cell_length_a                    19.303214
_cell_length_b                    18.642513
_cell_length_c                    8.869689
_cell_angle_alpha                 89.999257
_cell_angle_beta                  90.381903
_cell_angle_gamma                 90.00725
_cell_volume                      3191.77906056

loop_
_atom_site_label
_atom_site_type_symbol
_atom_type_description
_atom_site_fract_x
_atom_site_fract_y
_atom_site_fract_z
_atom_type_partial_charge
C1    C     C_R   0.365798 0.499924 0.499717 0.853393
C2    C     C_R   0.634213 0.499928 0.499752 0.855361
C3    C     C_R   0.558343 0.726565 0.540897 0.498478
C4    C     C_R   0.482890 0.273555 0.371332 0.501595
C5    C     C_R   0.441594 0.726482 0.459187 0.495144
C6    C     C_R   0.517050 0.273576 0.628731 0.500824
C7    C     C_R   0.560543 0.801924 0.528723 -0.343017
C8    C     C_R   0.486803 0.198009 0.368001 -0.342421
C9    C     C_R   0.439297 0.801836 0.471425 -0.345567
C10   C     C_R   0.513039 0.198043 0.632185 -0.341441
C11   C     C_R   0.499894 0.841720 0.500103 0.083721
C12   C     C_R   0.499901 0.158893 0.500126 0.111371
C13   C     C_R   0.453903 0.963263 0.405986 0.310109
C14   C     C_R   0.549444 0.038796 0.584394 0.311705
C15   C     C_R   0.545759 0.963262 0.594458 0.311145
C16   C     C_R   0.450237 0.038800 0.416060 0.309114
C17   C     C_R   0.499859 0.077908 0.500195 -0.203950
C18   C     C_R   0.499847 0.923400 0.500181 -0.193085
C19   C     C_R   0.500007 0.500012 0.218824 0.917858
C20   C     C_R   0.499973 0.500012 0.781176 0.918130
C21   C     C_1   0.500002 0.500052 0.065490 -0.192939
C22   C     C_1   0.499953 0.500052 0.934510 -0.193999
C23   C     C_R   0.745066 0.434553 0.514585 -0.233529
C24   C     C_R   0.254046 0.563270 0.518216 -0.223212
C25   C     C_R   0.255151 0.434941 0.474999 -0.229383
C26   C     C_R   0.745902 0.563564 0.481016 -0.226568
C27   C     C_R   0.817107 0.432627 0.511198 -0.016203
C28   C     C_R   0.181990 0.563992 0.515888 -0.039413
C29   C     C_R   0.183110 0.433024 0.471487 -0.024562
C30   C     C_R   0.817987 0.564260 0.483276 -0.034799
C31   C     C_R   0.853670 0.498133 0.496728 -0.078748
C32   C     C_R   0.146453 0.498195 0.492789 -0.089066
C33   C     C_R   0.709530 0.499429 0.498634 -0.084270
C34   C     C_R   0.290492 0.499433 0.497880 -0.090592
C35   C     C_R   0.963532 0.513273 0.361407 -0.076718
C36   C     C_R   0.036872 0.481081 0.626597 -0.079610
C37   C     C_R   0.035277 0.513617 0.360534 -0.081233
C38   C     C_R   0.965149 0.481492 0.627900 -0.075699
C39   C     C_R   0.071550 0.497446 0.493108 0.177876
C40   C     C_R   0.928735 0.497512 0.495262 0.187670
H1    H     H_    0.716514 0.384841 0.526519 0.183198
H2    H     H_    0.282042 0.612700 0.538409 0.239931
H3    H     H_    0.284083 0.385892 0.457626 0.195881
H4    H     H_    0.718033 0.613618 0.468428 0.234518
H5    H     H_    0.935055 0.525559 0.258953 0.122868
H6    H     H_    0.065413 0.468704 0.728920 0.123895
H7    H     H_    0.062583 0.526223 0.257552 0.123447
H8    H     H_    0.937941 0.469428 0.731294 0.121931
H9    H     H_    0.610029 0.828031 0.543782 0.228795
H10   H     H_    0.479309 0.170436 0.261812 0.203801
H11   H     H_    0.389778 0.827868 0.456406 0.228632
H12   H     H_    0.520479 0.170512 0.738440 0.203976
N1    N     N_R   0.500000 0.689440 0.500000 -0.165994
N2    N     N_R   0.500000 0.310560 0.500000 -0.161400
O1    O     O_R   0.398180 0.560840 0.499960 -0.564971
O2    O     O_R   0.601820 0.439160 0.500040 -0.629829
O3    O     O_R   0.601820 0.560840 0.500040 -0.564207
O4    O     O_R   0.398180 0.439160 0.499960 -0.627350
O5    O     O_R   0.500000 0.560800 0.285330 -0.627951
O6    O     O_R   0.500000 0.439200 0.714670 -0.549612
O7    O     O_R   0.500000 0.560800 0.714670 -0.628761
O8    O     O_R   0.500000 0.439200 0.285330 -0.550519
Zn1   Zn    Zn3+2 0.500000 0.581210 0.500000 0.995491
Zn2   Zn    Zn3+2 0.500000 0.418790 0.500000 1.006772
C41   C     C_2   0.852058 0.361346 0.519786 0.885385
O9    O     O_2   0.824146 0.311697 0.586134 -0.647060
O10   O     O_R   0.915660 0.349996 0.449040 -0.770808
H13   H     H_    0.933586 0.299308 0.463136 0.363954
C42   C     C_2   0.146551 0.634462 0.538467 0.895541
O11   O     O_2   0.086388 0.637435 0.580147 -0.603202
O12   O     O_R   0.183079 0.698226 0.514125 -0.808613
H14   H     H_    0.154013 0.742531 0.533537 0.352058
C43   C     C_2   0.148900 0.362074 0.444704 0.897432
O13   O     O_2   0.088390 0.358337 0.403920 -0.605662
O14   O     O_R   0.186972 0.298785 0.463776 -0.829695
H15   H     H_    0.158699 0.254160 0.441297 0.346576
C44   C     C_2   0.853981 0.634950 0.474870 0.887325
O15   O     O_2   0.826264 0.685222 0.409472 -0.619385
O16   O     O_R   0.918356 0.645069 0.544957 -0.768888
H16   H     H_    0.936930 0.695502 0.531247 0.367225
O17   O     O_3   0.616354 0.690102 0.589814 -0.585794
C45   C     C_3   0.622145 0.698183 0.747773 0.108612
H17   H     H_    0.572827 0.683936 0.805468 0.140493
H18   H     H_    0.636584 0.754271 0.776845 0.145404
C46   C     C_3   0.678626 0.648691 0.807580 -0.786433
H19   H     H_    0.728827 0.661593 0.753461 0.261340
H20   H     H_    0.684169 0.655723 0.931395 0.212003
H21   H     H_    0.664967 0.591919 0.783893 0.245922
O18   O     O_3   0.465880 0.310586 0.241538 -0.578005
C47   C     C_3   0.396010 0.296921 0.202594 0.111217
H22   H     H_    0.361246 0.301376 0.302177 0.135454
H23   H     H_    0.390754 0.242590 0.151983 0.149619
C48   C     C_3   0.372153 0.351668 0.086141 -0.770722
H24   H     H_    0.406647 0.350238 0.986400 0.279757
H25   H     H_    0.318372 0.339256 0.049377 0.205026
H26   H     H_    0.373065 0.406327 0.135870 0.239340
O19   O     O_3   0.383613 0.689933 0.410280 -0.579813
C49   C     C_3   0.377698 0.698165 0.252371 0.120993
H27   H     H_    0.427124 0.684531 0.194455 0.136191
H28   H     H_    0.362702 0.754141 0.223721 0.143838
C50   C     C_3   0.321692 0.648152 0.192323 -0.785278
H29   H     H_    0.271390 0.660404 0.246606 0.276746
H30   H     H_    0.316026 0.655331 0.068571 0.203191
H31   H     H_    0.335928 0.591495 0.215558 0.244725
O20   O     O_3   0.534003 0.310602 0.758556 -0.578371
C51   C     C_3   0.603986 0.297295 0.797007 0.112971
H32   H     H_    0.638647 0.302722 0.697449 0.136142
H33   H     H_    0.609707 0.242697 0.846091 0.148527
C52   C     C_3   0.627458 0.351481 0.914995 -0.762355
H34   H     H_    0.592934 0.349195 0.014619 0.276922
H35   H     H_    0.681298 0.339215 0.951536 0.208499
H36   H     H_    0.626235 0.406434 0.866763 0.239788
O21   O     O_3   0.408763 0.929450 0.307517 -0.591471
C53   C     C_3   0.439959 0.924416 0.164404 0.134180
H37   H     H_    0.476494 0.878308 0.163161 0.127300
H38   H     H_    0.468258 0.974328 0.132384 0.141092
C54   C     C_3   0.383837 0.911740 0.046145 -0.821291
H39   H     H_    0.346905 0.957427 0.045406 0.272571
H40   H     H_    0.407339 0.907034 0.932763 0.184153
H41   H     H_    0.355169 0.861610 0.071296 0.247844
O22   O     O_3   0.600914 0.074112 0.664134 -0.591722
C55   C     C_3   0.659291 0.080980 0.570248 0.126272
H42   H     H_    0.646339 0.111971 0.466329 0.133281
H43   H     H_    0.679757 0.027266 0.538026 0.168134
C56   C     C_3   0.716035 0.121043 0.655014 -0.770323
H44   H     H_    0.730088 0.091631 0.759737 0.258983
H45   H     H_    0.762665 0.125754 0.583037 0.224855
H46   H     H_    0.697944 0.175696 0.684881 0.241325
O23   O     O_3   0.590858 0.929449 0.693002 -0.590935
C57   C     C_3   0.559623 0.924435 0.836080 0.130064
H47   H     H_    0.523100 0.878308 0.837326 0.127220
H48   H     H_    0.531300 0.974337 0.868012 0.141134
C58   C     C_3   0.615719 0.911821 0.954422 -0.813113
H49   H     H_    0.652638 0.957529 0.955147 0.272820
H50   H     H_    0.592192 0.907133 0.067783 0.183918
H51   H     H_    0.644409 0.861701 0.929369 0.248880
O24   O     O_3   0.398744 0.074121 0.336409 -0.591568
C59   C     C_3   0.340458 0.081133 0.430519 0.141679
H52   H     H_    0.353541 0.112183 0.534285 0.134296
H53   H     H_    0.319954 0.027465 0.463003 0.164335
C60   C     C_3   0.283684 0.121201 0.345879 -0.796821
H54   H     H_    0.269509 0.091747 0.241284 0.259797
H55   H     H_    0.237124 0.125979 0.418038 0.215866
H56   H     H_    0.301797 0.175825 0.315804 0.243098

loop_
_geom_bond_atom_site_label_1
_geom_bond_atom_site_label_2
_ccdc_geom_bond_type
C15   C18   A    
C11   C18   S    
C50   H29   S    
C24   H2    S    
C43   O13   D    
C4    O18   S    
C16   O24   S    
C9    H11   S    
C4    C8    A    
C10   H12   S    
C25   H3    S    
C53   H37   S    
C2    O3    A    
C26   H4    S    
C44   O15   D    
C7    C11   A    
C48   H24   S    
C51   H33   S    
C13   C18   A    
C5    N1    A    
C35   C37   A    
O23   C57   S    
C29   C32   A    
C3    C7    A    
C52   H35   S    
C30   C31   A    
C29   C43   S    
C51   H32   S    
C19   O8    A    
C49   H27   S    
C31   C40   S    
C42   O12   S    
C32   C39   S    
C20   O7    A    
O7    Zn1   S    
N1    Zn1   S    
C45   H18   S    
O8    Zn2   S    
C30   C44   S    
C28   C42   S    
C16   C17   A    
C23   C33   A    
O1    Zn1   S    
C12   C17   S    
C3    O17   S    
C56   H46   S    
O2    Zn2   S    
C36   H6    S    
C23   C27   A    
C20   O6    A    
C38   H8    S    
C25   C34   A    
C44   O16   S    
C50   H30   S    
C14   O22   S    
C21   C22   T    
C25   C29   A    
C43   O14   S    
C14   C17   A    
C1    O4    A    
C6    N2    A    
C1    C34   S    
O19   C49   S    
C55   H42   S    
C46   H20   S    
O4    Zn2   S    
C27   C31   A    
O10   H13   S    
C28   C32   A    
C7    H9    S    
C54   H41   S    
O17   C45   S    
C19   O5    A    
C46   H19   S    
C60   H56   S    
C24   C34   A    
C60   H55   S    
C57   H48   S    
O14   H15   S    
C5    C9    A    
C27   C41   S    
C58   H51   S    
C26   C33   A    
C47   H23   S    
C15   O23   S    
C8    C12   A    
C9    C11   A    
O22   C55   S    
C10   C12   A    
C2    C33   S    
C5    O19   S    
C41   O9    D    
C48   H26   S    
C49   H28   S    
C56   H44   S    
C52   H36   S    
C57   C58   S    
C37   H7    S    
C55   H43   S    
C35   H5    S    
C8    H10   S    
C47   C48   S    
C56   H45   S    
O21   C53   S    
O24   C59   S    
C46   H21   S    
C4    N2    A    
C36   C39   A    
C24   C28   A    
O3    Zn1   S    
C20   C22   S    
C59   C60   S    
C23   H1    S    
C6    C10   A    
C53   H38   S    
C26   C30   A    
C59   H53   S    
C50   H31   S    
C45   C46   S    
O20   C51   S    
O5    Zn1   S    
C41   O10   S    
C49   C50   S    
O6    Zn2   S    
C55   C56   S    
C54   H40   S    
C57   H47   S    
C1    O1    A    
O12   H14   S    
C37   C39   A    
C2    O2    A    
C60   H54   S    
C38   C40   A    
C3    N1    A    
C47   H22   S    
C58   H49   S    
N2    Zn2   S    
C36   C38   A    
C6    O20   S    
C35   C40   A    
C42   O11   D    
C53   C54   S    
C59   H52   S    
O16   H16   S    
C48   H25   S    
C45   H17   S    
C13   C16   A    
C52   H34   S    
C58   H50   S    
C14   C15   A    
O18   C47   S    
C54   H39   S    
C13   O21   S    
C19   C21   S    
C51   C52   S    
