data_mof_unit_61350.cif
_audit_creation_date              2012-12-10T20:49:11-0500
_audit_creation_method            fapswitch 2.2
_symmetry_space_group_name_H-M    P1
_symmetry_Int_Tables_number       1
_space_group_crystal_system       triclinic
_cell_length_a                    19.190117
_cell_length_b                    19.185681
_cell_length_c                    19.494593
_cell_angle_alpha                 89.732597
_cell_angle_beta                  94.916997
_cell_angle_gamma                 85.370321
_cell_volume                      7127.19985532

loop_
_atom_site_label
_atom_site_type_symbol
_atom_type_description
_atom_site_fract_x
_atom_site_fract_y
_atom_site_fract_z
_atom_type_partial_charge
C1    C     C_R   0.492111 0.689088 0.507636 0.809543
C2    C     C_2   0.481964 0.516737 0.017345 -0.221196
C3    C     C_2   0.524430 0.474651 0.981731 -0.124258
C4    C     C_R   0.507283 0.310826 0.493063 0.793488
C5    C     C_R   0.511867 0.487867 0.763117 -0.137270
C6    C     C_R   0.511258 0.234027 0.492658 -0.001206
C7    C     C_R   0.462353 0.198650 0.526040 -0.216419
C8    C     C_R   0.466672 0.125979 0.527814 -0.165325
C9    C     C_R   0.520341 0.087087 0.496100 0.319727
C10   C     C_R   0.569455 0.122430 0.463380 -0.193235
C11   C     C_R   0.564758 0.195400 0.461081 -0.210458
C12   C     C_R   0.482936 0.512889 0.092795 0.192393
C13   C     C_R   0.544072 0.873001 0.527084 -0.163207
C14   C     C_R   0.547645 0.800210 0.527148 -0.295961
C15   C     C_R   0.479129 0.912094 0.512183 0.260242
C16   C     C_R   0.689732 0.492132 0.507573 0.786447
C17   C     C_R   0.486807 0.765494 0.511847 -0.118276
C18   C     C_R   0.421210 0.804419 0.500130 0.459047
C19   C     C_R   0.418096 0.877409 0.500111 -0.288895
C20   C     C_R   0.233183 0.509065 0.488107 -0.006012
C21   C     C_R   0.200631 0.471911 0.536819 -0.222750
C22   C     C_R   0.128035 0.470724 0.531875 -0.169471
C23   C     C_R   0.455171 0.570867 0.127957 -0.178375
C24   C     C_R   0.086435 0.506818 0.477796 0.320487
C25   C     C_R   0.118991 0.543301 0.428863 -0.190519
C26   C     C_R   0.191830 0.545113 0.434236 -0.217628
C27   C     C_R   0.875885 0.471163 0.458203 -0.166760
C28   C     C_R   0.310076 0.507842 0.492583 0.781073
C29   C     C_R   0.803109 0.469551 0.454755 -0.226441
C30   C     C_R   0.912903 0.492401 0.519121 0.319938
C31   C     C_R   0.766532 0.489885 0.511626 0.003727
C32   C     C_R   0.803770 0.509875 0.572531 -0.206883
C33   C     C_R   0.876484 0.510154 0.576376 -0.193805
C34   C     C_R   0.456875 0.569436 0.199573 -0.190616
C35   C     C_R   0.508268 0.491771 0.688186 0.832062
C36   C     C_R   0.491342 0.508245 0.311699 0.792349
C37   C     C_R   0.486750 0.509989 0.236582 -0.000188
C38   C     C_R   0.512640 0.451349 0.201357 -0.208820
C39   C     C_R   0.509976 0.452343 0.130075 -0.133243
C40   C     C_2   0.499466 0.347490 0.897413 0.908665
C41   C     C_3   0.331775 0.758032 0.548433 0.089278
C42   C     C_3   0.265015 0.721059 0.533567 -0.783819
C43   C     C_3   0.462445 0.649021 0.762483 0.097285
C44   C     C_3   0.469194 0.716760 0.723616 -0.801655
C45   C     C_R   0.525396 0.542032 0.874406 -0.278649
C46   C     C_R   0.521214 0.547772 0.802960 0.472975
C47   C     C_R   0.505121 0.423478 0.794981 -0.313926
C48   C     C_R   0.508520 0.417204 0.866725 -0.001892
C49   C     C_R   0.518721 0.477659 0.906526 0.029078
H1    H     H_    0.534338 0.404280 0.228917 0.163584
H2    H     H_    0.903146 0.455516 0.413671 0.151593
H3    H     H_    0.087719 0.570810 0.386755 0.145260
H4    H     H_    0.215786 0.573775 0.395745 0.171759
H5    H     H_    0.776677 0.525050 0.617327 0.169093
H6    H     H_    0.104628 0.440884 0.569862 0.152485
H7    H     H_    0.904549 0.525525 0.623762 0.145747
H8    H     H_    0.231274 0.443460 0.578740 0.169212
H9    H     H_    0.497215 0.377958 0.763400 0.216858
H10   H     H_    0.562428 0.435818 0.006822 0.159636
H11   H     H_    0.433117 0.617601 0.100044 0.131611
H12   H     H_    0.598222 0.771005 0.537387 0.184949
H13   H     H_    0.534278 0.588045 0.904971 0.164646
H14   H     H_    0.436177 0.615089 0.225988 0.162098
H15   H     H_    0.445564 0.555831 0.989946 0.148599
H16   H     H_    0.528484 0.405198 0.104894 0.154668
H17   H     H_    0.502177 0.242958 0.884474 0.348984
H18   H     H_    0.318309 0.807625 0.575655 0.134519
H19   H     H_    0.369224 0.723355 0.582712 0.115047
H20   H     H_    0.276822 0.671157 0.506719 0.264837
H21   H     H_    0.242495 0.709534 0.582587 0.196031
H22   H     H_    0.225830 0.754806 0.500553 0.255791
H23   H     H_    0.591928 0.898588 0.538433 0.163630
H24   H     H_    0.441776 0.662304 0.812901 0.133794
H25   H     H_    0.424222 0.618504 0.731433 0.112299
H26   H     H_    0.489023 0.705086 0.672712 0.262441
H27   H     H_    0.417128 0.746728 0.715491 0.185264
H28   H     H_    0.506164 0.749143 0.753545 0.262118
H29   H     H_    0.611263 0.093243 0.439256 0.144985
H30   H     H_    0.603469 0.221495 0.435480 0.167426
H31   H     H_    0.428448 0.100439 0.554608 0.152728
H32   H     H_    0.367885 0.907251 0.489669 0.163356
H33   H     H_    0.420699 0.227109 0.551030 0.171042
H34   H     H_    0.775368 0.453768 0.407357 0.164034
N1    N     N_2   0.527261 0.012861 0.497192 -0.193698
N2    N     N_2   0.472678 0.986147 0.510235 -0.188219
N3    N     N_2   0.012286 0.506178 0.470426 -0.201179
N4    N     N_2   0.986726 0.494437 0.525620 -0.204175
O1    O     O_3   0.500000 0.500000 0.500000 -0.486909
O2    O     O_R   0.546320 0.532340 0.658770 -0.594087
O3    O     O_R   0.450550 0.549430 0.344370 -0.643927
O4    O     O_R   0.467400 0.453980 0.652500 -0.655621
O5    O     O_R   0.535730 0.464240 0.344360 -0.646299
O6    O     O_2   0.481249 0.342453 0.955698 -0.637712
O7    O     O_R   0.510362 0.287082 0.858534 -0.810454
O8    O     O_3   0.360136 0.771701 0.485732 -0.584434
O9    O     O_3   0.528999 0.611562 0.772459 -0.585308
O10   O     O_R   0.656240 0.454400 0.463600 -0.643381
O11   O     O_R   0.340160 0.549180 0.454800 -0.644541
O12   O     O_R   0.536860 0.652450 0.548350 -0.652212
O13   O     O_R   0.466740 0.343960 0.533260 -0.643880
O14   O     O_R   0.451210 0.659450 0.463610 -0.592776
O15   O     O_R   0.545190 0.344140 0.454780 -0.645122
O16   O     O_R   0.656710 0.532590 0.548340 -0.643185
O17   O     O_R   0.346890 0.463830 0.533270 -0.644573
Zn1   Zn    Zn3+2 0.558280 0.441710 0.441700 0.966942
Zn2   Zn    Zn3+2 0.558950 0.553420 0.562770 0.987552
Zn3   Zn    Zn3+2 0.446190 0.441460 0.553820 0.965837
Zn4   Zn    Zn3+2 0.436580 0.563410 0.441710 0.990591

loop_
_geom_bond_atom_site_label_1
_geom_bond_atom_site_label_2
_ccdc_geom_bond_type
C43   H24   S    
C27   C29   A    
C34   C37   A    
C41   C42   S    
C40   O6    D    
C2    C12   S    
C1    O12   A    
C3    C49   S    
C7    C8    A    
C41   H18   S    
C45   C46   A    
C16   C31   S    
C15   C19   A    
C5    C47   A    
C12   C23   A    
C21   C22   A    
C44   H28   S    
C29   H34   S    
C38   C39   A    
O1    Zn4   S    
C16   O10   A    
C28   O11   A    
C45   H13   S    
C42   H21   S    
O11   Zn4   S    
O15   Zn1   S    
C18   C19   A    
C44   H27   S    
C42   H22   S    
C47   C48   A    
C2    H15   S    
C8    C9    A    
C4    O15   A    
O2    Zn2   S    
C9    C10   A    
C15   N2    S    
O10   Zn1   S    
C36   O5    A    
O14   Zn4   S    
C13   C14   A    
C27   C30   A    
C18   O8    S    
C39   H16   S    
C14   C17   A    
C32   H5    S    
C27   H2    S    
C43   O9    S    
C41   H19   S    
C10   H29   S    
C23   H11   S    
O4    Zn3   S    
N1    N2    D    
C4    C6    S    
C6    C11   A    
O1    Zn3   S    
N3    N4    D    
C20   C28   S    
C25   C26   A    
C14   H12   S    
C42   H20   S    
C44   H26   S    
C43   C44   S    
C21   H8    S    
C37   C38   A    
O1    Zn2   S    
C28   O17   A    
C16   O16   A    
C31   C32   A    
C45   C49   A    
C23   C34   A    
C17   C18   A    
C24   C25   A    
C22   H6    S    
C11   H30   S    
C35   O2    A    
C48   C49   A    
C13   C15   A    
C22   C24   A    
C26   H4    S    
C1    O14   A    
C36   O3    A    
C40   C48   S    
O12   Zn2   S    
C36   C37   S    
O13   Zn3   S    
C30   C33   A    
C40   O7    S    
C6    C7    A    
C38   H1    S    
C13   H23   S    
C5    C46   A    
C1    C17   S    
H17   O7    S    
C32   C33   A    
C12   C39   A    
C4    O13   A    
C2    C3    D    
C25   H3    S    
O3    Zn4   S    
C29   C31   A    
C47   H9    S    
O1    Zn1   S    
C33   H7    S    
C41   O8    S    
C20   C26   A    
C43   H25   S    
C5    C35   S    
C34   H14   S    
O16   Zn2   S    
C10   C11   A    
C9    N1    S    
O5    Zn1   S    
C7    H33   S    
C46   O9    S    
C20   C21   A    
C8    H31   S    
C30   N4    S    
C19   H32   S    
C24   N3    S    
O17   Zn3   S    
C35   O4    A    
C3    H10   S    
