data_mof_unit_29271.cif
_audit_creation_date              2013-03-05T15:40:44-0500
_audit_creation_method            fapswitch 2.2
_symmetry_space_group_name_H-M    P1
_symmetry_Int_Tables_number       1
_space_group_crystal_system       triclinic
_cell_length_a                    6.955458
_cell_length_b                    17.431673
_cell_length_c                    24.172453
_cell_angle_alpha                 104.877712
_cell_angle_beta                  90.342601
_cell_angle_gamma                 90.340587
_cell_volume                      2832.40820993

loop_
_atom_site_label
_atom_site_type_symbol
_atom_site_description
_atom_site_fract_x
_atom_site_fract_y
_atom_site_fract_z
_atom_type_partial_charge
O1    O     O_R   0.494290 0.391990 0.999150 -0.591147
O2    O     O_R   0.827170 0.534410 0.082350 -0.539088
O3    O     O_R   0.994360 0.608010 0.000850 -0.544101
C1    C     C_R   0.658881 0.550532 0.106025 0.889485
O4    O     O_R   0.824210 0.388010 0.004470 -0.516414
O5    O     O_R   0.991370 0.460560 0.922410 -0.536357
C2    C     C_R   0.654649 0.355016 0.000870 0.823040
O6    O     O_R   0.497270 0.539440 0.077590 -0.530981
O7    O     O_3   0.659770 0.523970 0.973170 -0.240420
V1    V     V_3+5 0.935840 0.495550 0.004980 1.291821
O8    O     O_R   0.320910 0.465590 0.917650 -0.523999
C3    C     C_R   0.151243 0.451611 0.894014 0.962063
O9    O     O_R   0.323870 0.611990 0.995530 -0.512443
C4    C     C_R   0.154255 0.644711 0.997801 0.845828
V2    V     V_3+5 0.435470 0.504450 0.995020 1.304390
O10   O     O_3   0.161670 0.476030 0.026830 -0.278833
C5    C     C_2   0.139573 0.726895 0.990795 0.099087
C6    C     C_2   0.977986 0.772077 0.007072 0.192171
C7    C     C_R   0.134179 0.257759 0.625704 0.641984
N1    N     N_R   0.108708 0.337702 0.647005 -0.427163
C8    C     C_R   0.079834 0.385287 0.610522 0.684242
C9    C     C_R   0.083347 0.353452 0.550292 -0.094248
C10   C     C_R   0.088097 0.270180 0.528528 -0.154523
C11   C     C_R   0.114171 0.221552 0.566370 -0.125637
C12   C     C_R   0.090248 0.403183 0.512160 0.411303
C13   C     C_R   0.065420 0.367942 0.452167 0.382218
C14   C     C_R   0.036799 0.284614 0.431821 -0.104863
C15   C     C_R   0.068532 0.235631 0.469024 -0.126552
C16   C     C_R   0.082154 0.152319 0.446586 -0.131238
C17   C     C_R   0.121775 0.104278 0.484448 0.339428
C18   C     C_R   0.127118 0.138441 0.543989 0.390755
C19   C     C_R   0.990980 0.248371 0.373980 0.641658
N2    N     N_R   0.015596 0.168718 0.351967 -0.427209
C20   C     C_R   0.055683 0.120181 0.386810 0.688200
O11   O     O_2   0.180864 0.213789 0.662184 -0.489832
O12   O     O_2   0.045916 0.463119 0.632530 -0.517042
O13   O     O_2   0.919032 0.291888 0.340011 -0.480159
O14   O     O_2   0.066286 0.041314 0.363509 -0.443551
C21   C     C_R   0.854372 0.087931 0.265707 -0.016613
H1    H     H_    0.746035 0.072315 0.293039 0.179163
C22   C     C_R   0.837568 0.058878 0.206250 0.269576
C23   C     C_R   0.974754 0.081070 0.169826 -0.293349
C24   C     C_R   0.127615 0.133109 0.195067 0.324322
C25   C     C_R   0.151422 0.156880 0.255336 0.330993
C26   C     C_R   0.008514 0.136624 0.290575 0.076944
C27   C     C_R   0.246790 0.431364 0.735105 0.261692
C28   C     C_R   0.258041 0.458091 0.795538 0.195656
C29   C     C_R   0.138225 0.424318 0.830336 -0.328854
C30   C     C_R   0.004183 0.364596 0.804129 0.255575
C31   C     C_R   0.986956 0.340151 0.744099 0.373471
C32   C     C_R   0.112557 0.371066 0.708891 0.029199
C33   C     C_R   0.563874 0.868736 0.614394 0.628941
N3    N     N_R   0.568127 0.819629 0.650540 -0.439667
C34   C     C_R   0.598822 0.739873 0.628075 0.613916
C35   C     C_R   0.599406 0.706590 0.567725 -0.141966
C36   C     C_R   0.617269 0.758584 0.532054 -0.126960
C37   C     C_R   0.619445 0.841265 0.556625 -0.110167
C38   C     C_R   0.586644 0.623665 0.542557 0.321891
C39   C     C_R   0.589722 0.593199 0.481881 0.240143
C40   C     C_R   0.603411 0.646780 0.446127 -0.143960
C41   C     C_R   0.629560 0.728606 0.471913 -0.088318
C42   C     C_R   0.665431 0.781177 0.437404 -0.085371
C43   C     C_R   0.689419 0.862387 0.463018 0.018200
C44   C     C_R   0.668904 0.893229 0.522196 0.340279
C45   C     C_R   0.585698 0.622827 0.385280 0.713287
N4    N     N_R   0.631265 0.673857 0.352582 -0.410004
C46   C     C_R   0.679341 0.751161 0.377759 0.736060
O15   O     O_2   0.498168 0.943024 0.633643 -0.536749
O16   O     O_2   0.632849 0.693515 0.663764 -0.480716
O17   O     O_2   0.518551 0.550299 0.358561 -0.508484
O18   O     O_2   0.735160 0.799241 0.344984 -0.465056
H2    H     H_    0.725580 0.902356 0.436896 0.200671
C47   C     C_R   0.490171 0.662521 0.255400 0.282362
C48   C     C_R   0.504017 0.634824 0.194983 0.282620
C49   C     C_R   0.649351 0.580947 0.169857 -0.290697
C50   C     C_R   0.784867 0.556488 0.205719 0.280498
C51   C     C_R   0.785322 0.590807 0.265619 0.343335
C52   C     C_R   0.637749 0.644112 0.290711 0.022344
C53   C     C_R   0.406395 0.817792 0.743195 0.407610
C54   C     C_R   0.374189 0.852644 0.801518 -0.184742
H3    H     H_    0.277931 0.823166 0.824509 0.185800
C55   C     C_R   0.470517 0.922073 0.830789 -0.274046
C56   C     C_R   0.598868 0.958986 0.800564 0.242365
C57   C     C_R   0.637827 0.923863 0.742279 0.347006
C58   C     C_R   0.539602 0.852900 0.712169 0.063264
C59   C     C_2   0.647853 0.269011 0.997671 0.173702
C60   C     C_2   0.477617 0.229610 0.997347 -0.281770
H4    H     H_    0.343682 0.261772 0.999020 0.134435
O19   O     O_R   0.618210 0.960470 0.922400 -0.550179
O20   O     O_R   0.291310 0.111960 0.995450 -0.528523
O21   O     O_R   0.124210 0.039530 0.077580 -0.524693
C61   C     C_R   0.462200 0.144621 0.997656 0.920659
O22   O     O_R   0.288310 0.965490 0.917650 -0.544414
O23   O     O_R   0.121180 0.892010 0.999220 -0.568484
C62   C     C_R   0.456866 0.950292 0.894150 0.961536
O24   O     O_R   0.621230 0.107990 0.000760 -0.530241
O25   O     O_3   0.455770 0.976060 0.026840 -0.253183
V3    V     V_3+5 0.179680 0.004440 0.995020 1.301373
O26   O     O_R   0.791670 0.888040 0.004570 -0.524047
C63   C     C_R   0.961591 0.855061 0.001585 0.821415
O27   O     O_R   0.794680 0.034510 0.082370 -0.535273
C64   C     C_R   0.963814 0.049517 0.106121 0.862368
V4    V     V_3+5 0.680070 0.995560 0.005010 1.313236
O28   O     O_3   0.953840 0.023940 0.973160 -0.242800
N5    N     N_R   0.294016 0.754833 0.961733 0.086719
O29   O     O_R   0.470495 0.751938 0.978989 -0.286889
O30   O     O_R   0.261333 0.770578 0.912809 -0.354803
N6    N     N_R   0.322620 0.199159 0.280767 0.097465
O31   O     O_R   0.412696 0.247187 0.256399 -0.338167
O32   O     O_R   0.398085 0.185271 0.326596 -0.370753
N7    N     N_R   0.370821 0.466652 0.700822 0.132944
O33   O     O_R   0.457243 0.422876 0.656362 -0.422286
O34   O     O_R   0.387938 0.543497 0.711828 -0.215449
N8    N     N_R   0.394283 0.519126 0.821478 0.141286
O35   O     O_R   0.335807 0.585411 0.855270 -0.290478
O36   O     O_R   0.576644 0.509283 0.810368 -0.311863
N9    N     N_R   0.892856 0.324368 0.838199 0.137150
O37   O     O_R   0.707982 0.315366 0.830487 -0.306912
O38   O     O_R   0.978169 0.292227 0.874632 -0.286203
O39   O     O_3   0.863545 0.277573 0.720326 -0.556510
C65   C     C_3   0.699668 0.307044 0.698533 0.338532
H5    H     H_    0.735325 0.327445 0.659910 0.026325
H6    H     H_    0.631290 0.355440 0.731539 0.078559
H7    H     H_    0.592640 0.258206 0.685422 0.103652
O40   O     O_3   0.544606 0.573370 0.576930 -0.553732
C66   C     C_3   0.716087 0.541801 0.593016 0.505499
H8    H     H_    0.692302 0.527379 0.634466 0.170430
H9    H     H_    0.839977 0.584054 0.599720 -0.034296
H10   H     H_    0.752486 0.485751 0.561371 0.036420
N10   N     N_R   0.595490 0.508256 0.457711 0.062954
O41   O     O_R   0.714625 0.478030 0.416745 -0.281722
O42   O     O_R   0.508200 0.460035 0.482431 -0.371682
N11   N     N_R   0.718983 0.975236 0.546800 0.101010
O43   O     O_R   0.815078 0.995576 0.594736 -0.269828
O44   O     O_R   0.702062 0.026761 0.516493 -0.361665
N12   N     N_R   0.320000 0.704859 0.279744 0.133482
O45   O     O_R   0.327919 0.762454 0.326118 -0.293504
O46   O     O_R   0.154527 0.687540 0.254062 -0.300496
O47   O     O_3   0.826822 0.742265 0.032417 -0.596307
C67   C     C_3   0.853733 0.765887 0.092266 0.252926
H11   H     H_    0.819263 0.829750 0.109181 0.075360
H12   H     H_    0.001836 0.753794 0.105487 -0.037800
H13   H     H_    0.755031 0.730564 0.111827 0.058548
O48   O     O_3   0.370666 0.658014 0.159612 -0.597242
C68   C     C_3   0.390741 0.739968 0.162899 0.260163
H14   H     H_    0.524191 0.768415 0.184998 0.043230
H15   H     H_    0.264854 0.772384 0.185120 0.121885
H16   H     H_    0.391229 0.747785 0.118761 0.037079
O49   O     O_3   0.926357 0.502679 0.182092 -0.572599
C69   C     C_3   0.847903 0.425143 0.170408 0.345788
H17   H     H_    0.964508 0.382134 0.154677 0.055327
H18   H     H_    0.735780 0.415193 0.136323 -0.067737
H19   H     H_    0.787322 0.411904 0.209501 0.075246
N13   N     N_R   0.934535 0.570654 0.301235 0.151338
O50   O     O_R   0.003063 0.623785 0.345102 -0.325318
O51   O     O_R   0.005962 0.499563 0.289659 -0.308521
O52   O     O_3   0.327097 0.743478 0.719720 -0.540419
C70   C     C_3   0.157618 0.750816 0.689670 0.322463
H20   H     H_    0.181797 0.785307 0.657439 -0.058147
H21   H     H_    0.041675 0.776635 0.720016 0.008257
H22   H     H_    0.109077 0.690566 0.665880 0.121219
N14   N     N_R   0.685286 0.034268 0.828516 0.137561
O53   O     O_R   0.580037 0.091081 0.858707 -0.309872
O54   O     O_R   0.867159 0.047514 0.822322 -0.269054
O55   O     O_3   0.757470 0.965056 0.714199 -0.536571
C71   C     C_3   0.937379 0.927681 0.705134 0.409324
H23   H     H_    0.927063 0.872700 0.669960 -0.059906
H24   H     H_    0.996912 0.915695 0.744939 -0.032440
H25   H     H_    0.040266 0.967947 0.691436 0.128462
N15   N     N_R   0.828417 0.228120 0.992129 0.105511
O56   O     O_R   0.963592 0.253086 0.029956 -0.428028
O57   O     O_R   0.871786 0.178764 0.943694 -0.212957
O58   O     O_3   0.158538 0.480666 0.535476 -0.564589
C72   C     C_3   0.096920 0.538026 0.507670 0.360825
H26   H     H_    0.107423 0.597227 0.538543 0.010877
H27   H     H_    0.946109 0.529154 0.493633 0.035932
H28   H     H_    0.192879 0.540387 0.471787 0.098566
O59   O     O_3   0.076343 0.414241 0.413488 -0.613099
C73   C     C_3   0.244732 0.397001 0.380088 0.385280
H29   H     H_    0.348112 0.356470 0.393648 0.063218
H30   H     H_    0.319254 0.453315 0.382256 0.153370
H31   H     H_    0.205959 0.371883 0.334469 0.130556
N16   N     N_R   0.172212 0.022220 0.463148 0.120750
O60   O     O_R   0.081355 0.967501 0.480587 -0.306535
O61   O     O_R   0.330890 0.003986 0.434676 -0.292210
O62   O     O_3   0.136078 0.089606 0.580682 -0.564087
C74   C     C_3   0.329297 0.071649 0.589029 0.422966
H32   H     H_    0.346874 0.069522 0.634175 0.154126
H33   H     H_    0.435463 0.116465 0.581970 0.010248
H34   H     H_    0.360977 0.012415 0.560811 0.114345
N17   N     N_R   0.682469 0.005204 0.184083 0.093628
O63   O     O_R   0.532478 0.031038 0.162263 -0.294894
O64   O     O_R   0.667921 0.939379 0.199733 -0.370459
O65   O     O_3   0.259882 0.158115 0.160777 -0.567097
C75   C     C_3   0.184379 0.224920 0.145573 0.281551
H35   H     H_    0.161376 0.275119 0.183942 0.051431
H36   H     H_    0.047267 0.210334 0.121216 0.030194
H37   H     H_    0.289168 0.244938 0.117708 0.054699

loop_
_geom_bond_atom_site_label_1
_geom_bond_atom_site_label_2
_geom_bond_distance
_ccdc_geom_bond_type
C28   N8    1.435782 S    
O26   V4    2.030426 S    
C35   C36   1.407683 A    
C39   N10   1.446443 S    
O52   C70   1.404587 S    
C75   H36   1.111003 S    
N2    C26   1.445721 S    
C47   C48   1.419636 A    
C34   C35   1.424872 A    
O2    C1    1.306126 A    
N7    O33   1.300265 A    
C67   H13   1.105617 S    
C1    O6    1.301278 A    
C68   H14   1.115973 S    
O49   C69   1.413386 S    
C21   C22   1.399756 A    
C8    O12   1.346870 S    
O58   C72   1.407831 S    
C36   C37   1.410776 A    
N5    O30   1.299925 A    
C13   C14   1.421249 A    
O27   C64   1.301204 A    
O40   C66   1.410233 S    
C42   C46   1.405945 A    
C24   O65   1.383193 S    
C31   O39   1.384939 S    
C15   C16   1.417752 A    
C67   H12   1.113986 S    
N1    C32   1.459233 S    
N9    O38   1.301054 A    
O5    C3    1.299309 A    
C17   C18   1.409405 A    
C74   H33   1.117045 S    
C2    C59   1.481688 S    
N15   O56   1.299979 A    
O23   V3    2.027324 S    
C45   O17   1.343024 S    
C61   O24   1.291851 A    
N6    O31   1.300703 A    
C17   N16   1.436720 S    
C7    O11   1.348010 S    
C72   H26   1.109150 S    
C74   H34   1.105809 S    
C57   O55   1.385212 S    
C70   H22   1.109527 S    
C27   C28   1.416275 A    
O8    V2    1.979067 S    
C57   C58   1.431215 A    
C30   N9    1.437792 S    
C28   C29   1.416170 A    
N3    C34   1.374981 A    
N6    O32   1.301371 A    
C1    C49   1.499263 S    
C9    C12   1.419058 A    
C10   C11   1.409314 A    
O1    V2    2.032223 S    
O9    C4    1.308758 A    
O7    V1    2.170966 S    
N13   O51   1.300659 A    
C33   O15   1.342547 S    
C3    C29   1.491848 S    
C21   C26   1.396686 A    
C75   H37   1.109154 S    
C25   N6    1.444686 S    
O65   C75   1.411291 S    
C39   C40   1.429269 A    
O22   C62   1.304500 A    
C59   N15   1.437689 S    
C27   N7    1.439919 S    
O19   V4    1.976410 S    
C70   H21   1.110332 S    
C4    C5    1.489154 S    
C41   C42   1.410753 A    
C6    C63   1.491103 S    
C23   C64   1.497580 S    
C68   H15   1.109113 S    
O25   V3    2.170960 S    
N14   O54   1.300973 A    
C13   O59   1.385245 S    
N4    C52   1.452742 S    
C19   O13   1.348910 S    
C48   C49   1.413682 A    
C22   N17   1.431756 S    
N17   O63   1.300128 A    
C73   H30   1.096468 S    
O59   C73   1.415919 S    
C71   H24   1.113727 S    
N4    C46   1.367155 A    
C67   H11   1.111120 S    
N12   O46   1.300869 A    
C21   H1    1.083635 S    
O4    C2    1.301648 A    
C59   C60   1.364285 D    
O48   C68   1.416293 S    
C66   H10   1.106932 S    
C31   C32   1.420112 A    
C12   C13   1.431261 A    
C51   C52   1.419241 A    
C27   C32   1.420315 A    
C69   H19   1.113279 S    
C75   H35   1.112735 S    
C40   C41   1.412490 A    
C20   O14   1.347878 S    
O19   C62   1.297471 A    
N10   O42   1.299382 A    
C49   C50   1.416505 A    
N17   O64   1.300758 A    
N16   O60   1.299767 A    
C53   O52   1.383689 S    
C16   C17   1.417114 A    
C5    N5    1.436362 S    
C51   N13   1.445922 S    
N11   O43   1.300799 A    
O20   C61   1.309738 A    
C56   C57   1.413079 A    
C47   N12   1.444851 S    
O23   C63   1.288963 A    
C47   C52   1.421030 A    
N1    C8    1.371701 A    
C42   C43   1.400382 A    
C5    C6    1.376579 D    
C65   H5    1.109884 S    
N7    O34   1.301546 A    
C10   C15   1.414899 A    
C50   C51   1.417569 A    
C72   H28   1.106536 S    
N13   O50   1.301452 A    
O25   V4    1.709849 S    
O3    C4    1.291634 A    
C38   O40   1.385096 S    
C54   C55   1.399720 A    
C29   C30   1.413175 A    
C56   N14   1.438883 S    
C40   C45   1.426418 A    
C45   N4    1.370101 A    
O6    V2    1.975341 S    
O9    V2    2.030358 S    
C24   C25   1.416995 A    
C71   H23   1.107530 S    
C69   H18   1.111047 S    
C53   C54   1.404433 A    
C35   C38   1.419070 A    
C23   C24   1.422027 A    
O21   C64   1.304128 A    
O2    V1    1.974926 S    
C53   C58   1.425721 A    
C68   H16   1.109774 S    
C60   C61   1.486676 S    
O39   C65   1.406916 S    
C37   C44   1.420675 A    
N11   O44   1.302051 A    
N14   O53   1.301218 A    
C48   O48   1.388229 S    
C44   N11   1.439995 S    
C66   H9    1.113910 S    
C55   C62   1.487339 S    
C14   C19   1.412171 A    
O1    C2    1.297282 A    
C9    C10   1.411934 A    
C25   C26   1.413753 A    
C71   H25   1.109347 S    
C54   H3    1.080805 S    
O5    V1    1.972757 S    
N8    O36   1.301309 A    
O47   C67   1.409759 S    
N8    O35   1.301008 A    
C73   H29   1.116161 S    
N5    O29   1.299493 A    
C69   H17   1.108598 S    
O26   C63   1.311615 A    
C19   N2    1.365598 A    
C73   H31   1.107935 S    
C7    N1    1.368961 A    
N16   O61   1.301427 A    
C7    C11   1.416502 A    
C38   C39   1.426250 A    
C11   C18   1.413998 A    
O4    V1    2.021844 S    
O3    V1    2.027359 S    
V1    O10   1.717765 S    
N9    O37   1.300990 A    
C70   H20   1.112484 S    
C34   O16   1.345762 S    
N15   O57   1.300774 A    
C50   O49   1.384591 S    
C66   H8    1.106932 S    
V3    O28   1.717817 S    
C16   C20   1.419668 A    
C18   O62   1.379453 S    
N2    C20   1.367069 A    
N10   O41   1.300749 A    
C46   O18   1.349674 S    
O21   V3    1.972536 S    
O7    V2    1.710121 S    
C6    O47   1.384046 S    
C72   H27   1.098287 S    
C65   H6    1.112717 S    
C33   C37   1.412097 A    
C43   C44   1.401448 A    
C12   O58   1.402077 S    
O55   C71   1.406417 S    
C22   C23   1.419821 A    
C43   H2    1.083109 S    
C74   H32   1.107450 S    
C60   H4    1.085732 S    
O27   V4    1.979153 S    
C30   C31   1.407621 A    
O24   V4    2.032599 S    
V4    O28   2.159943 S    
C65   H7    1.109257 S    
C36   C41   1.416223 A    
N12   O45   1.299341 A    
N3    C58   1.468402 S    
C55   C56   1.409681 A    
O62   C74   1.406780 S    
C8    C9    1.419141 A    
O22   V3    1.974978 S    
O20   V3    2.021975 S    
V2    O10   2.159941 S    
O8    C3    1.302107 A    
C33   N3    1.371545 A    
C14   C15   1.407371 A    
