data_mof_unit_7744.cif
_audit_creation_date              2012-10-26T18:44:10-0400
_audit_creation_method            fapswitch 2.2
_symmetry_space_group_name_H-M    P1
_symmetry_Int_Tables_number       1
_space_group_crystal_system       triclinic
_cell_length_a                    19.394224
_cell_length_b                    9.090568
_cell_length_c                    7.767967
_cell_angle_alpha                 90.000248
_cell_angle_beta                  89.999872
_cell_angle_gamma                 90.000098
_cell_volume                      1369.52763176

loop_
_atom_site_label
_atom_site_type_symbol
_atom_type_description
_atom_site_fract_x
_atom_site_fract_y
_atom_site_fract_z
_atom_type_partial_charge
C1    C     C_R   0.500000 0.219953 0.500000 0.537123
C2    C     C_R   0.253271 0.587373 0.378686 -0.010283
C3    C     C_R   0.181105 0.417227 0.621405 -0.111069
C4    C     C_R   0.818896 0.417219 0.378613 -0.111067
C5    C     C_R   0.818898 0.582739 0.621403 -0.111069
C6    C     C_R   0.181101 0.582742 0.378609 -0.111069
C7    C     C_R   0.145192 0.499982 0.500008 0.005870
C8    C     C_R   0.854808 0.499974 0.500012 0.005869
C9    C     C_R   0.290528 0.499992 0.500002 0.037275
C10   C     C_R   0.709472 0.499994 0.499999 0.037277
C11   C     C_R   0.930289 0.499970 0.500012 0.335029
C12   C     C_R   0.500000 0.780047 0.500000 0.537120
C13   C     C_R   0.069711 0.499976 0.500010 0.335030
C14   C     C_3   0.287477 0.307473 0.747365 -0.265999
C15   C     C_3   0.316593 0.172671 0.655338 -0.418036
C16   C     C_3   0.712524 0.307485 0.252628 -0.266002
C17   C     C_3   0.683403 0.172681 0.344637 -0.418037
C18   C     C_3   0.712529 0.692524 0.747344 -0.266011
C19   C     C_3   0.683421 0.827320 0.655298 -0.418058
C20   C     C_3   0.287468 0.692507 0.252634 -0.266001
C21   C     C_3   0.316585 0.827312 0.344653 -0.418046
C22   C     C_R   0.366916 0.499998 0.500000 0.536557
C23   C     C_R   0.633084 0.499999 0.500000 0.536560
C24   C     C_1   0.500000 0.065352 0.500000 -0.072786
C25   C     C_1   0.500000 0.934648 0.500000 -0.072785
C26   C     C_R   0.253275 0.412606 0.621321 -0.010281
C27   C     C_R   0.746726 0.412605 0.378686 -0.010283
C28   C     C_R   0.746728 0.587375 0.621315 -0.010281
Cu1   Cu    Cu3+1 0.500000 0.500000 0.669080 0.979567
Cu2   Cu    Cu3+1 0.500000 0.500000 0.330920 0.979565
H1    H     H_    0.152320 0.351394 0.712954 0.133347
H2    H     H_    0.645479 0.204638 0.444487 0.161466
H3    H     H_    0.657426 0.099777 0.250043 0.143605
H4    H     H_    0.725894 0.110431 0.406784 0.143159
H5    H     H_    0.672271 0.363134 0.175417 0.180728
H6    H     H_    0.750421 0.267179 0.156076 0.133017
H7    H     H_    0.645478 0.795360 0.555495 0.161467
H8    H     H_    0.657469 0.900277 0.749879 0.143594
H9    H     H_    0.725916 0.889513 0.593089 0.143177
H10   H     H_    0.672269 0.636901 0.824557 0.180731
H11   H     H_    0.750426 0.732834 0.843893 0.133021
H12   H     H_    0.847681 0.351384 0.287069 0.133348
H13   H     H_    0.354534 0.795354 0.444441 0.161476
H14   H     H_    0.342533 0.900258 0.250051 0.143593
H15   H     H_    0.274097 0.889519 0.406878 0.143168
H16   H     H_    0.327722 0.636868 0.175416 0.180723
H17   H     H_    0.249569 0.732812 0.156088 0.133020
H18   H     H_    0.847684 0.648571 0.712948 0.133348
H19   H     H_    0.152313 0.648570 0.287061 0.133349
H20   H     H_    0.354523 0.204633 0.555503 0.161465
H21   H     H_    0.342561 0.099746 0.749927 0.143600
H22   H     H_    0.274100 0.110438 0.593164 0.143161
H23   H     H_    0.327733 0.363113 0.824577 0.180726
H24   H     H_    0.249581 0.267165 0.843919 0.133015
N1    N     N_1   0.500000 0.500000 0.076820 -0.091316
N2    N     N_1   0.500000 0.500000 0.923180 -0.091317
N3    N     N_R   0.034287 0.500448 0.349423 -0.220362
N4    N     N_R   0.965712 0.500452 0.650599 -0.220362
N5    N     N_R   0.965712 0.499492 0.349425 -0.220361
N6    N     N_R   0.034288 0.499501 0.650598 -0.220361
O1    O     O_R   0.500000 0.288390 0.642760 -0.494213
O2    O     O_R   0.500000 0.711610 0.357240 -0.494214
O3    O     O_R   0.500000 0.711610 0.642760 -0.494211
O4    O     O_R   0.500000 0.288390 0.357240 -0.494213
O5    O     O_R   0.400140 0.500000 0.642830 -0.509012
O6    O     O_R   0.599860 0.500000 0.357170 -0.509013
O7    O     O_R   0.599860 0.500000 0.642830 -0.509014
O8    O     O_R   0.400140 0.500000 0.357170 -0.509013

loop_
_geom_bond_atom_site_label_1
_geom_bond_atom_site_label_2
_ccdc_geom_bond_type
C10   C27   A    
C5    C8    A    
N1    N2    T    
Cu1   O3    S    
C22   O5    A    
C6    C7    A    
C19   H8    S    
C15   H21   S    
C10   C23   S    
C21   H14   S    
C12   O2    A    
Cu2   N1    S    
C3    C7    A    
C12   C25   S    
C4    C8    A    
C4    H12   S    
C16   C27   S    
C16   H5    S    
C13   N6    A    
C21   H13   S    
C15   H22   S    
C14   C26   S    
C3    H1    S    
C22   O8    A    
Cu2   O4    S    
C2    C6    A    
C17   H3    S    
C8    C11   S    
Cu1   O5    S    
C16   H6    S    
C19   H9    S    
C23   O6    A    
Cu1   N2    S    
C11   N4    A    
C9    C26   A    
C21   H15   S    
Cu2   O2    S    
C6    H19   S    
C5    H18   S    
Cu1   O1    S    
C9    C22   S    
N3    N5    A    
C20   H17   S    
C13   N3    A    
C17   H4    S    
C2    C20   S    
C10   C28   A    
C5    C28   A    
C1    O4    A    
C20   H16   S    
C7    C13   S    
C14   H23   S    
C18   C28   S    
C24   C25   T    
C1    C24   S    
C18   C19   S    
C15   H20   S    
C23   O7    A    
C17   H2    S    
C12   O3    A    
C18   H10   S    
C14   C15   S    
C11   N5    A    
C4    C27   A    
C19   H7    S    
C14   H24   S    
C20   C21   S    
Cu1   O7    S    
C2    C9    A    
N4    N6    A    
C3    C26   A    
Cu2   O8    S    
Cu1   Cu2   S    
C18   H11   S    
Cu2   O6    S    
C16   C17   S    
C1    O1    A    
