data_mof_unit_24367.cif
_audit_creation_date              2012-12-10T22:16:44-0500
_audit_creation_method            fapswitch 2.2
_symmetry_space_group_name_H-M    P1
_symmetry_Int_Tables_number       1
_space_group_crystal_system       triclinic
_cell_length_a                    32.618447
_cell_length_b                    32.573743
_cell_length_c                    32.629156
_cell_angle_alpha                 89.984888
_cell_angle_beta                  90.043987
_cell_angle_gamma                 90.008641
_cell_volume                      34668.6266315

loop_
_atom_site_label
_atom_site_type_symbol
_atom_type_description
_atom_site_fract_x
_atom_site_fract_y
_atom_site_fract_z
_atom_type_partial_charge
C1    C     C_R   0.366135 0.418840 0.866148 -0.190164
C2    C     C_R   0.418670 0.366175 0.866149 -0.190249
C3    C     C_R   0.959635 0.744725 0.540362 0.875267
C4    C     C_R   0.459635 0.744726 0.040361 0.884449
C5    C     C_R   0.040361 0.255281 0.540353 0.871045
C6    C     C_R   0.540362 0.744721 0.959643 0.865775
C7    C     C_R   0.959641 0.255280 0.459642 0.871057
C8    C     C_R   0.744711 0.959624 0.540345 0.865978
C9    C     C_R   0.255290 0.459626 0.959655 0.875358
C10   C     C_R   0.744717 0.040375 0.459642 0.884584
C11   C     C_R   0.255281 0.540379 0.040359 0.875503
C12   C     C_R   0.255281 0.040379 0.540360 0.875696
C13   C     C_R   0.581302 0.133921 0.366104 -0.189803
C14   C     C_R   0.744717 0.540375 0.959642 0.866157
C15   C     C_R   0.255289 0.959626 0.459655 0.875009
C16   C     C_R   0.744711 0.459624 0.040345 0.884441
C17   C     C_R   0.040361 0.540373 0.255285 0.869030
C18   C     C_R   0.540348 0.959629 0.744708 0.872732
C19   C     C_R   0.959652 0.459625 0.255290 0.878322
C20   C     C_R   0.459637 0.040379 0.744718 0.881890
C21   C     C_R   0.959637 0.540379 0.744718 0.872922
C22   C     C_R   0.459652 0.959624 0.255290 0.875345
C23   C     C_R   0.040348 0.459628 0.744708 0.881701
C24   C     C_R   0.418656 0.633937 0.133921 -0.188406
C25   C     C_R   0.540362 0.040373 0.255285 0.875589
C26   C     C_R   0.959641 0.755279 0.959642 0.878368
C27   C     C_R   0.040362 0.244721 0.959644 0.871396
C28   C     C_R   0.040362 0.755280 0.040354 0.878300
C29   C     C_R   0.959634 0.244725 0.040362 0.871509
C30   C     C_R   0.244711 0.959624 0.040345 0.871563
C31   C     C_R   0.755289 0.959626 0.959655 0.878957
C32   C     C_R   0.244717 0.040375 0.959642 0.871761
C33   C     C_R   0.755280 0.040379 0.040360 0.879102
C34   C     C_R   0.040362 0.040373 0.755285 0.879034
C35   C     C_R   0.418641 0.133953 0.633936 -0.189924
C36   C     C_R   0.040348 0.959629 0.244708 0.875111
C37   C     C_R   0.959652 0.959624 0.755289 0.878989
C38   C     C_R   0.959637 0.040378 0.244718 0.875754
C39   C     C_R   0.459646 0.755289 0.459648 0.863712
C40   C     C_R   0.540362 0.244721 0.459643 0.870577
C41   C     C_R   0.540361 0.755280 0.540354 0.883809
C42   C     C_R   0.459634 0.244725 0.540362 0.870738
C43   C     C_R   0.244711 0.459624 0.540345 0.874568
C44   C     C_R   0.755289 0.459626 0.459655 0.884358
C45   C     C_R   0.244729 0.540382 0.459636 0.890070
C46   C     C_R   0.581307 0.633926 0.866100 -0.191073
C47   C     C_R   0.755281 0.540379 0.540360 0.866182
C48   C     C_R   0.540361 0.540373 0.755285 0.872598
C49   C     C_R   0.540349 0.459628 0.244708 0.874706
C50   C     C_R   0.459652 0.459624 0.755289 0.881506
C51   C     C_R   0.459631 0.540385 0.244730 0.890254
C52   C     C_R   0.401197 0.401308 0.848694 0.105264
C53   C     C_R   0.151342 0.598810 0.401191 0.105144
C54   C     C_R   0.598767 0.401310 0.151309 0.104959
C55   C     C_R   0.848595 0.598844 0.598862 0.104519
C56   C     C_R   0.401162 0.598825 0.151380 0.104917
C57   C     C_R   0.418662 0.866167 0.366142 -0.190708
C58   C     C_R   0.151301 0.401308 0.598806 0.104934
C59   C     C_R   0.598805 0.598825 0.848641 0.105168
C60   C     C_R   0.848680 0.401306 0.401210 0.105134
C61   C     C_R   0.598772 0.848707 0.598808 0.104615
C62   C     C_R   0.598801 0.151386 0.401180 0.104780
C63   C     C_R   0.401143 0.151422 0.598860 0.104807
C64   C     C_R   0.401184 0.848691 0.401199 0.105518
C65   C     C_R   0.901202 0.901313 0.848699 0.104476
C66   C     C_R   0.151358 0.098825 0.901178 0.105219
C67   C     C_R   0.098769 0.901311 0.151309 0.104906
C68   C     C_R   0.581286 0.366177 0.133858 -0.189875
C69   C     C_R   0.848602 0.098839 0.098856 0.105133
C70   C     C_R   0.901147 0.098840 0.151396 0.104973
C71   C     C_R   0.151304 0.901307 0.098808 0.105375
C72   C     C_R   0.098801 0.098820 0.848647 0.104930
C73   C     C_R   0.848687 0.901314 0.901217 0.104437
C74   C     C_R   0.098772 0.848707 0.098808 0.104485
C75   C     C_R   0.098805 0.151389 0.901178 0.105195
C76   C     C_R   0.901144 0.151422 0.098861 0.104781
C77   C     C_R   0.901197 0.848704 0.901212 0.104479
C78   C     C_R   0.901193 0.401304 0.348689 0.104976
C79   C     C_R   0.133879 0.633910 0.418679 -0.188077
C80   C     C_R   0.651360 0.598827 0.901174 0.104954
C81   C     C_R   0.098766 0.401311 0.651306 0.105109
C82   C     C_R   0.348611 0.598829 0.098846 0.105298
C83   C     C_R   0.901143 0.598842 0.651399 0.105350
C84   C     C_R   0.651298 0.401310 0.098804 0.105152
C85   C     C_R   0.098795 0.598815 0.348650 0.105953
C86   C     C_R   0.348681 0.401307 0.901211 0.104485
C87   C     C_R   0.598774 0.348702 0.098812 0.104748
C88   C     C_R   0.401190 0.901301 0.348686 0.104743
C89   C     C_R   0.598808 0.651392 0.901175 0.105536
C90   C     C_R   0.633842 0.866181 0.581340 -0.189972
C91   C     C_R   0.401148 0.098838 0.651393 0.105138
C92   C     C_R   0.401157 0.651406 0.098846 0.104543
C93   C     C_R   0.598799 0.098819 0.348647 0.104961
C94   C     C_R   0.401191 0.348698 0.901206 0.104607
C95   C     C_R   0.598769 0.901312 0.651308 0.104864
C96   C     C_R   0.651350 0.098819 0.401183 0.105170
C97   C     C_R   0.098775 0.348702 0.598811 0.104824
C98   C     C_R   0.348674 0.901301 0.401205 0.104724
C99   C     C_R   0.901142 0.651422 0.598861 0.105370
C100  C     C_R   0.348600 0.098840 0.598857 0.104988
C101  C     C_R   0.866134 0.366171 0.418683 -0.189936
C102  C     C_R   0.901187 0.348692 0.401201 0.104776
C103  C     C_R   0.651304 0.901307 0.598808 0.105253
C104  C     C_R   0.098793 0.651378 0.401186 0.104492
C105  C     C_1   0.287196 0.438372 0.938407 -0.165985
C106  C     C_1   0.061629 0.561653 0.287177 -0.170821
C107  C     C_1   0.712798 0.438368 0.061596 -0.163501
C108  C     C_1   0.938357 0.561669 0.712840 -0.165393
C109  C     C_1   0.287160 0.561668 0.061635 -0.166475
C110  C     C_1   0.061590 0.438381 0.712794 -0.162574
C111  C     C_1   0.712830 0.561664 0.938367 -0.169349
C112  C     C_R   0.133883 0.581306 0.366112 -0.191681
C113  C     C_R   0.366058 0.133954 0.581369 -0.189804
C114  C     C_1   0.938398 0.438369 0.287199 -0.167212
C115  C     C_1   0.561593 0.938381 0.712796 -0.165114
C116  C     C_1   0.438359 0.287179 0.938364 -0.166682
C117  C     C_1   0.561629 0.061653 0.287178 -0.166169
C118  C     C_1   0.438346 0.712857 0.061648 -0.163078
C119  C     C_1   0.438359 0.061667 0.712837 -0.162666
C120  C     C_1   0.561643 0.712848 0.938364 -0.169326
C121  C     C_1   0.438398 0.938367 0.287198 -0.166012
C122  C     C_1   0.561640 0.287180 0.061632 -0.169960
C123  C     C_1   0.061637 0.712843 0.438368 -0.165822
C124  C     C_R   0.866056 0.633956 0.581371 -0.189640
C125  C     C_1   0.712803 0.938364 0.561600 -0.169268
C126  C     C_1   0.938356 0.287176 0.438361 -0.170956
C127  C     C_1   0.287156 0.061671 0.561640 -0.166197
C128  C     C_1   0.938340 0.712862 0.561654 -0.166024
C129  C     C_1   0.287193 0.938369 0.438405 -0.166080
C130  C     C_1   0.061640 0.287180 0.561632 -0.170984
C131  C     C_1   0.712823 0.061659 0.438372 -0.163571
C132  C     C_1   0.787199 0.938375 0.938410 -0.161275
C133  C     C_1   0.061628 0.061652 0.787180 -0.161673
C134  C     C_1   0.212803 0.938365 0.061600 -0.171246
C135  C     C_R   0.366129 0.866168 0.418679 -0.190710
C136  C     C_1   0.938357 0.061668 0.212839 -0.166241
C137  C     C_1   0.787159 0.061670 0.061638 -0.161643
C138  C     C_1   0.061593 0.938381 0.212796 -0.166205
C139  C     C_1   0.212829 0.061664 0.938368 -0.171354
C140  C     C_1   0.938402 0.938372 0.787203 -0.161327
C141  C     C_1   0.938361 0.787182 0.938367 -0.160907
C142  C     C_1   0.938339 0.212864 0.061655 -0.171102
C143  C     C_1   0.061642 0.212847 0.938365 -0.171198
C144  C     C_1   0.061637 0.787185 0.061629 -0.161026
C145  C     C_1   0.787197 0.438372 0.438408 -0.163502
C146  C     C_R   0.133843 0.366178 0.581342 -0.189829
C147  C     C_1   0.561630 0.561655 0.787177 -0.165358
C148  C     C_1   0.212801 0.438366 0.561598 -0.165753
C149  C     C_1   0.438361 0.561665 0.212837 -0.168092
C150  C     C_1   0.787153 0.561674 0.561642 -0.169248
C151  C     C_1   0.561592 0.438380 0.212797 -0.165846
C152  C     C_1   0.212825 0.561659 0.438373 -0.168128
C153  C     C_1   0.438401 0.438370 0.787202 -0.162563
C154  C     C_1   0.438359 0.787181 0.438364 -0.168135
C155  C     C_1   0.438339 0.212864 0.561654 -0.170892
C156  C     C_1   0.561641 0.212847 0.438366 -0.170842
C157  C     C_R   0.633888 0.133919 0.418670 -0.189946
C158  C     C_1   0.561636 0.787186 0.561628 -0.163000
C159  C     C_R   0.617782 0.066163 0.066009 -0.160051
C160  C     C_R   0.933829 0.933919 0.617811 -0.160251
C161  C     C_R   0.380092 0.067599 0.932527 -0.327771
C162  C     C_R   0.066968 0.933152 0.381034 -0.241385
C163  C     C_R   0.617843 0.933776 0.933947 -0.160734
C164  C     C_R   0.933227 0.066880 0.381130 -0.239345
C165  C     C_R   0.380046 0.932460 0.067605 -0.327948
C166  C     C_R   0.066024 0.066165 0.617774 -0.159528
C167  C     C_R   0.066079 0.617893 0.066194 -0.159674
C168  C     C_R   0.866141 0.918845 0.866153 -0.189173
C169  C     C_R   0.067637 0.379962 0.932485 -0.328391
C170  C     C_R   0.932501 0.379989 0.067609 -0.327515
C171  C     C_R   0.933807 0.617884 0.933934 -0.160508
C172  C     C_R   0.118906 0.566806 0.066876 -0.241008
C173  C     C_R   0.933193 0.433060 0.118923 -0.242259
C174  C     C_R   0.880084 0.567489 0.932409 -0.323714
C175  C     C_R   0.066057 0.433780 0.882172 -0.162235
C176  C     C_R   0.118957 0.433048 0.933180 -0.240002
C177  C     C_R   0.933129 0.566796 0.881119 -0.238663
C178  C     C_R   0.882169 0.433781 0.066045 -0.164399
C179  C     C_R   0.133893 0.081316 0.866103 -0.190027
C180  C     C_R   0.067595 0.567484 0.119900 -0.326018
C181  C     C_R   0.433861 0.066027 0.882234 -0.161879
C182  C     C_R   0.567524 0.120016 0.067621 -0.326049
C183  C     C_R   0.433101 0.933149 0.118926 -0.239510
C184  C     C_R   0.567523 0.879961 0.932371 -0.323877
C185  C     C_R   0.566824 0.933051 0.881059 -0.238511
C186  C     C_R   0.433816 0.882117 0.066051 -0.164821
C187  C     C_R   0.566792 0.066890 0.118883 -0.240664
C188  C     C_R   0.433081 0.119000 0.933165 -0.242639
C189  C     C_R   0.933090 0.881000 0.566818 -0.241314
C190  C     C_R   0.133846 0.918838 0.133860 -0.191105
C191  C     C_R   0.882212 0.066170 0.433979 -0.164876
C192  C     C_R   0.067636 0.120016 0.567510 -0.328860
C193  C     C_R   0.118983 0.932994 0.433190 -0.241600
C194  C     C_R   0.066834 0.880948 0.433019 -0.241585
C195  C     C_R   0.118892 0.066888 0.566776 -0.240314
C196  C     C_R   0.932490 0.120009 0.432376 -0.328035
C197  C     C_R   0.880048 0.932348 0.567489 -0.323342
C198  C     C_R   0.619909 0.567481 0.567578 -0.322277
C199  C     C_R   0.433964 0.433794 0.617805 -0.160696
C200  C     C_R   0.388878 0.561789 0.440204 -0.182731
C201  C     C_R   0.866061 0.081323 0.133936 -0.190311
C202  C     C_R   0.566815 0.433059 0.381068 -0.237199
C203  C     C_R   0.617838 0.433780 0.433950 -0.163359
C204  C     C_R   0.440207 0.561792 0.388878 -0.182792
C205  C     C_R   0.381065 0.433060 0.566803 -0.237713
C206  C     C_R   0.566891 0.566808 0.618897 -0.237178
C207  C     C_R   0.566205 0.617890 0.566065 -0.165968
C208  C     C_R   0.567518 0.379967 0.432376 -0.328321
C209  C     C_R   0.432393 0.379996 0.567489 -0.328628
C210  C     C_R   0.432182 0.620509 0.432175 -0.330737
C211  C     C_R   0.603059 0.050653 0.102898 0.260025
C212  C     C_R   0.081284 0.866183 0.133854 -0.188854
C213  C     C_R   0.896350 0.948800 0.603643 0.300245
C214  C     C_R   0.396413 0.051098 0.896418 0.300914
C215  C     C_R   0.103892 0.948750 0.396451 0.297373
C216  C     C_R   0.603137 0.949245 0.897024 0.259610
C217  C     C_R   0.896944 0.050655 0.397104 0.260049
C218  C     C_R   0.395807 0.948319 0.104364 0.336328
C219  C     C_R   0.102911 0.050653 0.603047 0.259949
C220  C     C_R   0.948345 0.104236 0.395647 0.336288
C221  C     C_R   0.051217 0.603720 0.103648 0.300188
C222  C     C_R   0.949269 0.896958 0.603125 0.259683
C223  C     C_R   0.633840 0.418840 0.133855 -0.190299
C224  C     C_R   0.918675 0.866181 0.866155 -0.189174
C225  C     C_R   0.051199 0.396258 0.896321 0.300667
C226  C     C_R   0.051254 0.896359 0.396098 0.297342
C227  C     C_R   0.948355 0.395742 0.104371 0.336479
C228  C     C_R   0.051214 0.103714 0.603655 0.300557
C229  C     C_R   0.949257 0.603174 0.897037 0.259450
C230  C     C_R   0.896323 0.396272 0.051186 0.300756
C231  C     C_R   0.395799 0.104441 0.948301 0.336213
C232  C     C_R   0.102993 0.603193 0.050762 0.259631
C233  C     C_R   0.603698 0.896252 0.948800 0.300173
C234  C     C_R   0.104415 0.395712 0.948324 0.336203
C235  C     C_R   0.081303 0.133922 0.866105 -0.189983
C236  C     C_R   0.603666 0.103711 0.051194 0.300421
C237  C     C_R   0.896336 0.603723 0.948779 0.299911
C238  C     C_R   0.396329 0.896267 0.051186 0.300874
C239  C     C_R   0.104326 0.551580 0.104127 0.336401
C240  C     C_R   0.896873 0.449238 0.102966 0.260187
C241  C     C_R   0.895863 0.551581 0.895691 0.336129
C242  C     C_R   0.102989 0.449245 0.896875 0.260067
C243  C     C_R   0.449260 0.103024 0.896888 0.260084
C244  C     C_R   0.551692 0.104252 0.104368 0.335756
C245  C     C_R   0.449268 0.896809 0.102976 0.260018
C246  C     C_R   0.918640 0.133955 0.133939 -0.189706
C247  C     C_R   0.551674 0.895717 0.895604 0.335769
C248  C     C_R   0.895790 0.895546 0.551663 0.336004
C249  C     C_R   0.896329 0.103717 0.448781 0.300738
C250  C     C_R   0.104380 0.104250 0.551671 0.336130
C251  C     C_R   0.103593 0.896022 0.448742 0.297573
C252  C     C_R   0.604141 0.551579 0.604311 0.336144
C253  C     C_R   0.397029 0.449245 0.603107 0.258868
C254  C     C_R   0.413434 0.540124 0.413437 0.216932
C255  C     C_R   0.603130 0.449251 0.397031 0.258904
C256  C     C_R   0.448851 0.603176 0.396736 0.328674
C257  C     C_R   0.133896 0.133925 0.918665 -0.190808
C258  C     C_R   0.550780 0.603194 0.602981 0.259802
C259  C     C_R   0.448835 0.396288 0.603648 0.300414
C260  C     C_R   0.551664 0.395726 0.395613 0.341533
C261  C     C_R   0.395614 0.395741 0.551652 0.341557
C262  C     C_R   0.396726 0.603175 0.448821 0.328363
C263  C     C_R   0.603657 0.603716 0.551196 0.300318
C264  C     C_R   0.603694 0.396255 0.448802 0.300576
C265  C     C_1   0.314789 0.421120 0.921065 -0.044838
C266  C     C_1   0.078947 0.578966 0.314763 -0.046238
C267  C     C_1   0.685197 0.421120 0.078945 -0.044029
C268  C     C_R   0.133842 0.866181 0.081340 -0.189940
C269  C     C_1   0.921013 0.578985 0.685269 -0.045472
C270  C     C_1   0.314734 0.578977 0.078980 -0.045264
C271  C     C_1   0.078917 0.421125 0.685197 -0.044271
C272  C     C_1   0.685247 0.578977 0.921032 -0.046232
C273  C     C_1   0.921052 0.421117 0.314795 -0.044686
C274  C     C_1   0.578921 0.921125 0.685200 -0.045180
C275  C     C_1   0.421037 0.314781 0.921048 -0.044693
C276  C     C_1   0.578948 0.078968 0.314763 -0.045023
C277  C     C_1   0.421017 0.685285 0.078983 -0.043893
C278  C     C_1   0.421017 0.078981 0.685264 -0.044405
C279  C     C_R   0.866143 0.866181 0.918693 -0.189140
C280  C     C_1   0.578958 0.685274 0.921032 -0.046395
C281  C     C_1   0.421050 0.921114 0.314793 -0.044867
C282  C     C_1   0.578941 0.314783 0.078964 -0.045884
C283  C     C_1   0.078947 0.685264 0.421040 -0.044983
C284  C     C_1   0.685204 0.921116 0.578951 -0.046061
C285  C     C_1   0.921033 0.314775 0.421043 -0.045534
C286  C     C_1   0.314727 0.078984 0.578987 -0.045086
C287  C     C_1   0.921007 0.685296 0.578994 -0.045252
C288  C     C_1   0.314785 0.921115 0.421062 -0.044891
C289  C     C_1   0.078942 0.314783 0.578963 -0.045580
C290  C     C_R   0.866061 0.133953 0.081368 -0.189959
C291  C     C_1   0.685238 0.078969 0.421041 -0.044094
C292  C     C_1   0.814795 0.921124 0.921071 -0.044274
C293  C     C_1   0.078948 0.078967 0.814764 -0.044707
C294  C     C_1   0.185204 0.921116 0.078951 -0.045495
C295  C     C_1   0.921015 0.078983 0.185267 -0.045066
C296  C     C_1   0.814730 0.078982 0.078985 -0.044723
C297  C     C_1   0.078921 0.921125 0.185200 -0.044962
C298  C     C_1   0.185246 0.078975 0.921035 -0.045617
C299  C     C_1   0.921058 0.921123 0.814803 -0.044270
C300  C     C_1   0.921041 0.814786 0.921052 -0.044446
C301  C     C_R   0.366128 0.918833 0.366141 -0.188751
C302  C     C_1   0.921007 0.185299 0.078995 -0.045557
C303  C     C_1   0.078957 0.185272 0.921035 -0.045657
C304  C     C_1   0.078937 0.814790 0.078959 -0.044618
C305  C     C_1   0.814791 0.421120 0.421067 -0.044015
C306  C     C_1   0.578951 0.578971 0.814759 -0.045555
C307  C     C_1   0.185201 0.421118 0.578948 -0.045294
C308  C     C_1   0.421025 0.578973 0.185257 -0.044330
C309  C     C_1   0.814722 0.578988 0.578991 -0.046117
C310  C     C_1   0.578920 0.421123 0.185200 -0.045263
C311  C     C_1   0.185233 0.578964 0.421046 -0.044516
C312  C     C_R   0.633888 0.081312 0.366107 -0.190210
C313  C     C_1   0.421055 0.421120 0.814800 -0.044310
C314  C     C_1   0.421033 0.814778 0.421044 -0.045947
C315  C     C_1   0.421006 0.185299 0.578994 -0.045670
C316  C     C_1   0.578954 0.185271 0.421035 -0.045622
C317  C     C_1   0.578937 0.814790 0.578959 -0.044066
C318  C     C_R   0.633846 0.918838 0.633859 -0.190966
C319  C     C_R   0.866055 0.581328 0.633942 -0.189751
C320  C     C_R   0.366061 0.081323 0.633936 -0.190246
C321  C     C_R   0.081285 0.366179 0.633855 -0.189978
C322  C     C_R   0.918664 0.366169 0.366143 -0.189774
C323  C     C_R   0.081297 0.633916 0.366108 -0.190966
C324  C     C_R   0.918639 0.633954 0.633939 -0.191270
C325  C     C_R   0.633898 0.633927 0.918662 -0.190722
C326  C     C_R   0.633840 0.366179 0.081340 -0.189896
C327  C     C_R   0.366135 0.366174 0.918686 -0.188713
C328  C     C_R   0.366072 0.633941 0.081356 -0.190128
C329  C     C_R   0.457812 0.146471 0.957854 0.963321
C330  C     C_R   0.366073 0.581311 0.133924 -0.190583
C331  C     C_R   0.042157 0.853519 0.457805 0.957125
C332  C     C_R   0.542446 0.147013 0.042480 0.924382
C333  C     C_R   0.957813 0.853534 0.542144 0.957613
C334  C     C_R   0.458149 0.854143 0.041804 0.994715
C335  C     C_R   0.042485 0.147012 0.542440 0.930547
C336  C     C_R   0.542452 0.852976 0.957512 0.918521
C337  C     C_R   0.957557 0.147008 0.457522 0.930450
C338  C     C_R   0.853016 0.957498 0.542437 0.918498
C339  C     C_R   0.146453 0.457789 0.957852 0.957718
C340  C     C_R   0.854187 0.041853 0.458213 0.994774
C341  C     C_R   0.133841 0.418840 0.633855 -0.190227
C342  C     C_R   0.146417 0.542150 0.042166 0.957443
C343  C     C_R   0.146411 0.042187 0.542124 0.957971
C344  C     C_R   0.853043 0.542447 0.957536 0.918601
C345  C     C_R   0.146450 0.957787 0.457854 0.957175
C346  C     C_R   0.854161 0.458132 0.041804 0.994694
C347  C     C_R   0.042467 0.542446 0.146950 0.924971
C348  C     C_R   0.542151 0.957790 0.853553 0.951482
C349  C     C_R   0.957856 0.457797 0.146435 0.963860
C350  C     C_R   0.458172 0.041806 0.854201 0.988408
C351  C     C_R   0.957834 0.542146 0.853595 0.951157
C352  C     C_R   0.633897 0.581320 0.866099 -0.189777
C353  C     C_R   0.457816 0.957836 0.146436 0.957369
C354  C     C_R   0.041811 0.458129 0.854162 0.988521
C355  C     C_R   0.542130 0.042189 0.146410 0.957964
C356  C     C_R   0.958147 0.645866 0.958193 0.981433
C357  C     C_R   0.042492 0.352977 0.957553 0.930884
C358  C     C_R   0.041815 0.645871 0.041852 0.981243
C359  C     C_R   0.957558 0.352996 0.042477 0.930832
C360  C     C_R   0.353016 0.957538 0.042477 0.930837
C361  C     C_R   0.645845 0.958127 0.958191 0.982151
C362  C     C_R   0.353047 0.042485 0.957579 0.930910
C363  C     C_R   0.866134 0.418837 0.366146 -0.190245
C364  C     C_R   0.645808 0.041851 0.041785 0.981897
C365  C     C_R   0.041791 0.041853 0.645808 0.981831
C366  C     C_R   0.042192 0.957831 0.353557 0.957531
C367  C     C_R   0.958153 0.958177 0.645829 0.982086
C368  C     C_R   0.957875 0.042183 0.353600 0.957892
C369  C     C_R   0.457094 0.647942 0.457097 0.905008
C370  C     C_R   0.542450 0.352980 0.457514 0.933879
C371  C     C_R   0.541853 0.645867 0.541808 0.996688
C372  C     C_R   0.457520 0.352999 0.542435 0.933991
C373  C     C_R   0.353559 0.457797 0.542140 0.961286
C374  C     C_R   0.581284 0.866183 0.633853 -0.188899
C375  C     C_R   0.645843 0.458129 0.458193 0.995939
C376  C     C_R   0.356949 0.540119 0.460382 1.002189
C377  C     C_R   0.646951 0.542444 0.542461 0.919415
C378  C     C_R   0.542172 0.542152 0.646416 0.951635
C379  C     C_R   0.542147 0.457794 0.353560 0.961465
C380  C     C_R   0.458196 0.458137 0.645827 0.989464
C381  C     C_R   0.460376 0.540123 0.356948 1.002271
C382  C     C_R   0.459641 0.255279 0.959642 0.877673
C383  C     C_R   0.040362 0.744721 0.459643 0.874779
C384  C     C_R   0.540361 0.255281 0.040354 0.868104
H1    H     H_    0.353173 0.446626 0.853183 0.146832
H2    H     H_    0.446396 0.353177 0.853194 0.146790
H3    H     H_    0.553547 0.146898 0.353139 0.146767
H4    H     H_    0.446413 0.646916 0.146881 0.147785
H5    H     H_    0.446398 0.146931 0.646896 0.146826
H6    H     H_    0.553550 0.646900 0.853138 0.146109
H7    H     H_    0.446389 0.853169 0.353186 0.146328
H8    H     H_    0.553552 0.353177 0.146810 0.146700
H9    H     H_    0.146847 0.646883 0.446424 0.147840
H10   H     H_    0.646803 0.853185 0.553623 0.146811
H11   H     H_    0.853181 0.353172 0.446411 0.146843
H12   H     H_    0.146856 0.553540 0.353146 0.145585
H13   H     H_    0.353094 0.146933 0.553618 0.146767
H14   H     H_    0.853094 0.646933 0.553620 0.146867
H15   H     H_    0.353176 0.853169 0.446408 0.146346
H16   H     H_    0.146806 0.353180 0.553626 0.146720
H17   H     H_    0.646858 0.146893 0.446415 0.146832
H18   H     H_    0.853178 0.946631 0.853188 0.147440
H19   H     H_    0.146866 0.053549 0.853139 0.146788
H20   H     H_    0.146819 0.946619 0.146818 0.146109
H21   H     H_    0.853095 0.053542 0.146899 0.146754
H22   H     H_    0.053547 0.853186 0.146803 0.147515
H23   H     H_    0.646811 0.446624 0.146812 0.146762
H24   H     H_    0.946401 0.853181 0.853198 0.147430
H25   H     H_    0.053546 0.146896 0.853143 0.146812
H26   H     H_    0.946396 0.146934 0.146900 0.146847
H27   H     H_    0.146867 0.146901 0.946409 0.146153
H28   H     H_    0.146803 0.853185 0.053623 0.146821
H29   H     H_    0.853188 0.853182 0.946420 0.147472
H30   H     H_    0.853099 0.146930 0.053616 0.146829
H31   H     H_    0.353167 0.946620 0.353177 0.147442
H32   H     H_    0.646860 0.053545 0.353143 0.146808
H33   H     H_    0.646819 0.946619 0.646818 0.146148
H34   H     H_    0.853087 0.553548 0.646906 0.146817
H35   H     H_    0.353095 0.053542 0.646898 0.146795
H36   H     H_    0.053549 0.353180 0.646805 0.146808
H37   H     H_    0.946389 0.353169 0.353186 0.146799
H38   H     H_    0.053544 0.646894 0.353141 0.146175
H39   H     H_    0.946397 0.646931 0.646898 0.146125
H40   H     H_    0.646868 0.646902 0.946407 0.146164
H41   H     H_    0.646801 0.353183 0.053623 0.146857
H42   H     H_    0.353181 0.353174 0.946413 0.147473
H43   H     H_    0.353106 0.646921 0.053607 0.146858
H44   H     H_    0.623895 0.025876 0.152429 0.337468
H45   H     H_    0.353104 0.553532 0.146889 0.146302
H46   H     H_    0.846663 0.973757 0.623977 0.337243
H47   H     H_    0.346754 0.026084 0.876007 0.336843
H48   H     H_    0.123844 0.973742 0.346680 0.335235
H49   H     H_    0.623881 0.973996 0.847462 0.337569
H50   H     H_    0.876113 0.025893 0.347573 0.337225
H51   H     H_    0.345927 0.973504 0.123942 0.334906
H52   H     H_    0.152457 0.025877 0.623865 0.337459
H53   H     H_    0.973496 0.154201 0.376054 0.334971
H54   H     H_    0.026321 0.624082 0.153335 0.337034
H55   H     H_    0.974010 0.847299 0.623849 0.337312
H56   H     H_    0.146811 0.446623 0.646811 0.146789
H57   H     H_    0.026203 0.346492 0.876025 0.336876
H58   H     H_    0.026266 0.846486 0.376189 0.335342
H59   H     H_    0.973573 0.345793 0.123938 0.334950
H60   H     H_    0.026319 0.153499 0.623973 0.336886
H61   H     H_    0.973927 0.623960 0.847460 0.337513
H62   H     H_    0.876007 0.346506 0.026215 0.336867
H63   H     H_    0.345897 0.124044 0.973406 0.334841
H64   H     H_    0.152597 0.623956 0.026099 0.337408
H65   H     H_    0.623999 0.846482 0.973792 0.337265
H66   H     H_    0.123963 0.345753 0.973545 0.334921
H67   H     H_    0.646869 0.553553 0.853134 0.146802
H68   H     H_    0.624003 0.153494 0.026277 0.337193
H69   H     H_    0.846626 0.624081 0.973660 0.337171
H70   H     H_    0.346628 0.875892 0.026214 0.336836
H71   H     H_    0.123984 0.526330 0.153964 0.334773
H72   H     H_    0.876126 0.473944 0.152533 0.337150
H73   H     H_    0.846007 0.526343 0.876041 0.335346
H74   H     H_    0.152567 0.473997 0.876143 0.337487
H75   H     H_    0.473939 0.152698 0.876144 0.337241
H76   H     H_    0.526569 0.154226 0.123937 0.335044
H77   H     H_    0.474008 0.876016 0.152551 0.337487
H78   H     H_    0.853173 0.446625 0.353183 0.146797
H79   H     H_    0.526452 0.845762 0.876061 0.335367
H80   H     H_    0.845898 0.875928 0.526465 0.335312
H81   H     H_    0.876007 0.153507 0.473662 0.336899
H82   H     H_    0.123968 0.154222 0.526527 0.334968
H83   H     H_    0.153403 0.876061 0.473724 0.335529
H84   H     H_    0.653991 0.526330 0.623953 0.335178
H85   H     H_    0.347443 0.473946 0.623850 0.337107
H86   H     H_    0.392091 0.489930 0.392096 0.358653
H87   H     H_    0.623879 0.473996 0.347468 0.337075
H88   H     H_    0.469505 0.654683 0.375123 0.336079
H89   H     H_    0.553547 0.853186 0.646802 0.147489
H90   H     H_    0.526139 0.623955 0.652573 0.337395
H91   H     H_    0.473820 0.346528 0.623972 0.336598
H92   H     H_    0.526441 0.345775 0.376061 0.333775
H93   H     H_    0.376044 0.345788 0.526454 0.333771
H94   H     H_    0.375108 0.654680 0.469436 0.336038
H95   H     H_    0.653356 0.624082 0.526279 0.337090
H96   H     H_    0.623997 0.346483 0.473788 0.336590
O1    O     O_R   0.493560 0.156220 0.946130 -0.601592
O2    O     O_R   0.156220 0.493560 0.946130 -0.603207
O3    O     O_R   0.993700 0.758130 0.554330 -0.630006
O4    O     O_R   0.445670 0.758130 0.006300 -0.618112
O5    O     O_R   0.006300 0.241870 0.554330 -0.624543
O6    O     O_R   0.554330 0.758130 0.993700 -0.627483
O7    O     O_R   0.993700 0.241870 0.445670 -0.624780
O8    O     O_R   0.758130 0.993700 0.554330 -0.627394
O9    O     O_R   0.241870 0.445670 0.993700 -0.617680
O10   O     O_R   0.758130 0.006300 0.445670 -0.618395
O11   O     O_R   0.241870 0.554330 0.006300 -0.627758
O12   O     O_R   0.241870 0.006300 0.554330 -0.627794
O13   O     O_R   0.843780 0.053870 0.493560 -0.562284
O14   O     O_R   0.758130 0.554330 0.993700 -0.627420
O15   O     O_R   0.241870 0.993700 0.445670 -0.617723
O16   O     O_R   0.758130 0.445670 0.006300 -0.618065
O17   O     O_R   0.006300 0.554330 0.241870 -0.624969
O18   O     O_R   0.554330 0.993700 0.758130 -0.630343
O19   O     O_R   0.993700 0.445670 0.241870 -0.615365
O20   O     O_R   0.445670 0.006300 0.758130 -0.620557
O21   O     O_R   0.993700 0.554330 0.758130 -0.630254
O22   O     O_R   0.445670 0.993700 0.241870 -0.617517
O23   O     O_R   0.006300 0.445670 0.758130 -0.620546
O24   O     O_R   0.156220 0.506440 0.053870 -0.549157
O25   O     O_R   0.554330 0.006300 0.241870 -0.627862
O26   O     O_R   0.945670 0.741870 0.993700 -0.620564
O27   O     O_R   0.006300 0.258130 0.945670 -0.624694
O28   O     O_R   0.054330 0.741870 0.006300 -0.621022
O29   O     O_R   0.993700 0.258130 0.054330 -0.624887
O30   O     O_R   0.945670 0.258130 0.006300 -0.624695
O31   O     O_R   0.006300 0.741870 0.054330 -0.620540
O32   O     O_R   0.054330 0.258130 0.993700 -0.624988
O33   O     O_R   0.993700 0.741870 0.945670 -0.620944
O34   O     O_R   0.258130 0.993700 0.054330 -0.624878
O35   O     O_R   0.156220 0.053870 0.506440 -0.549061
O36   O     O_R   0.741870 0.945670 0.993700 -0.620793
O37   O     O_R   0.258130 0.006300 0.945670 -0.624622
O38   O     O_R   0.741870 0.054330 0.006300 -0.620831
O39   O     O_R   0.741870 0.006300 0.054330 -0.621161
O40   O     O_R   0.258130 0.054330 0.993700 -0.624865
O41   O     O_R   0.741870 0.993700 0.945670 -0.621022
O42   O     O_R   0.258130 0.945670 0.006300 -0.624659
O43   O     O_R   0.006300 0.054330 0.741870 -0.620770
O44   O     O_R   0.054330 0.993700 0.258130 -0.630123
O45   O     O_R   0.993700 0.945670 0.741870 -0.621105
O46   O     O_R   0.843780 0.506440 0.946130 -0.592294
O47   O     O_R   0.945670 0.006300 0.258130 -0.629860
O48   O     O_R   0.993700 0.054330 0.258130 -0.615643
O49   O     O_R   0.945670 0.993700 0.741870 -0.620697
O50   O     O_R   0.006300 0.945670 0.258130 -0.615673
O51   O     O_R   0.054330 0.006300 0.741870 -0.621196
O52   O     O_R   0.945670 0.241870 0.493700 -0.624555
O53   O     O_R   0.506300 0.758130 0.945670 -0.627629
O54   O     O_R   0.054330 0.241870 0.506300 -0.624827
O55   O     O_R   0.493700 0.758130 0.054330 -0.618235
O56   O     O_R   0.945670 0.758130 0.506300 -0.615482
O57   O     O_R   0.156220 0.946130 0.493560 -0.605936
O58   O     O_R   0.506300 0.241870 0.054330 -0.627224
O59   O     O_R   0.054330 0.758130 0.493700 -0.615521
O60   O     O_R   0.493700 0.241870 0.945670 -0.627438
O61   O     O_R   0.758130 0.493700 0.054330 -0.618352
O62   O     O_R   0.241870 0.945670 0.493700 -0.628002
O63   O     O_R   0.758130 0.506300 0.945670 -0.627455
O64   O     O_R   0.241870 0.054330 0.506300 -0.617706
O65   O     O_R   0.241870 0.506300 0.054330 -0.618003
O66   O     O_R   0.758130 0.054330 0.493700 -0.618063
O67   O     O_R   0.241870 0.493700 0.945670 -0.627864
O68   O     O_R   0.843780 0.493560 0.053870 -0.559694
O69   O     O_R   0.758130 0.945670 0.506300 -0.627522
O70   O     O_R   0.506300 0.054330 0.241870 -0.617659
O71   O     O_R   0.054330 0.493700 0.758130 -0.618770
O72   O     O_R   0.493700 0.945670 0.241870 -0.627959
O73   O     O_R   0.945670 0.506300 0.758130 -0.617958
O74   O     O_R   0.493700 0.054330 0.758130 -0.618824
O75   O     O_R   0.945670 0.493700 0.241870 -0.627416
O76   O     O_R   0.506300 0.945670 0.758130 -0.617817
O77   O     O_R   0.054330 0.506300 0.241870 -0.627614
O78   O     O_R   0.445670 0.741870 0.493700 -0.627292
O79   O     O_R   0.053870 0.506440 0.156220 -0.590826
O80   O     O_R   0.506300 0.258130 0.445670 -0.625499
O81   O     O_R   0.554330 0.741870 0.506300 -0.618092
O82   O     O_R   0.493700 0.258130 0.554330 -0.624909
O83   O     O_R   0.445670 0.258130 0.506300 -0.625482
O84   O     O_R   0.506300 0.741870 0.554330 -0.618207
O85   O     O_R   0.554330 0.258130 0.493700 -0.624934
O86   O     O_R   0.493700 0.741870 0.445670 -0.627321
O87   O     O_R   0.258130 0.493700 0.554330 -0.630054
O88   O     O_R   0.741870 0.445670 0.493700 -0.618177
O89   O     O_R   0.258130 0.506300 0.445670 -0.628216
O90   O     O_R   0.506440 0.946130 0.843780 -0.550595
O91   O     O_R   0.741870 0.554330 0.506300 -0.627470
O92   O     O_R   0.741870 0.506300 0.554330 -0.627568
O93   O     O_R   0.258130 0.554330 0.493700 -0.611984
O94   O     O_R   0.741870 0.493700 0.445670 -0.618493
O95   O     O_R   0.258130 0.445670 0.506300 -0.616846
O96   O     O_R   0.506300 0.554330 0.741870 -0.630326
O97   O     O_R   0.554330 0.493700 0.258130 -0.630152
O98   O     O_R   0.493700 0.445670 0.741870 -0.620616
O99   O     O_R   0.445670 0.506300 0.258130 -0.628146
O100  O     O_R   0.493700 0.554330 0.258130 -0.612111
O101  O     O_R   0.946130 0.493560 0.156220 -0.601753
O102  O     O_R   0.445670 0.493700 0.741870 -0.618830
O103  O     O_R   0.506300 0.445670 0.258130 -0.616854
O104  O     O_R   0.554330 0.506300 0.741870 -0.617997
O105  O     O_3   0.624446 0.019830 0.122637 -0.704128
O106  O     O_3   0.876529 0.979356 0.625291 -0.706988
O107  O     O_3   0.376618 0.020472 0.874807 -0.707390
O108  O     O_3   0.125405 0.979337 0.376520 -0.706202
O109  O     O_3   0.624562 0.980012 0.877258 -0.704394
O110  O     O_3   0.875550 0.019840 0.377367 -0.704914
O111  O     O_3   0.375814 0.978686 0.126105 -0.708578
O112  O     O_R   0.053870 0.843780 0.493560 -0.542698
O113  O     O_R   0.493560 0.053870 0.843780 -0.561081
O114  O     O_3   0.122653 0.019830 0.624431 -0.704182
O115  O     O_3   0.978662 0.124275 0.373899 -0.708194
O116  O     O_3   0.020734 0.625435 0.123477 -0.706856
O117  O     O_3   0.979998 0.877152 0.624558 -0.704601
O118  O     O_3   0.020662 0.376404 0.874658 -0.707693
O119  O     O_3   0.020713 0.876381 0.374572 -0.705744
O120  O     O_3   0.978714 0.375723 0.126118 -0.708645
O121  O     O_3   0.020741 0.123593 0.625329 -0.707261
O122  O     O_3   0.979948 0.624656 0.877259 -0.704293
O123  O     O_3   0.874648 0.376418 0.020665 -0.707659
O124  O     O_R   0.946130 0.506440 0.843780 -0.550581
O125  O     O_3   0.375783 0.126255 0.978573 -0.708563
O126  O     O_3   0.122787 0.624685 0.020092 -0.704342
O127  O     O_3   0.625372 0.876394 0.979325 -0.706968
O128  O     O_3   0.126178 0.375683 0.978663 -0.708701
O129  O     O_3   0.625341 0.123588 0.020710 -0.706962
O130  O     O_3   0.876494 0.625444 0.979242 -0.706923
O131  O     O_3   0.376495 0.874573 0.020664 -0.707538
O132  O     O_3   0.126039 0.521139 0.124086 -0.708648
O133  O     O_3   0.875440 0.479978 0.122737 -0.705051
O134  O     O_3   0.875895 0.521148 0.873984 -0.707675
O135  O     O_R   0.493560 0.946130 0.156220 -0.603131
O136  O     O_3   0.122760 0.480012 0.875457 -0.704368
O137  O     O_3   0.479948 0.122851 0.875455 -0.704677
O138  O     O_3   0.521403 0.124300 0.126130 -0.708776
O139  O     O_3   0.479999 0.875348 0.122754 -0.704718
O140  O     O_3   0.521324 0.875692 0.873852 -0.707963
O141  O     O_3   0.875784 0.873761 0.521329 -0.707833
O142  O     O_3   0.874641 0.123600 0.479237 -0.707688
O143  O     O_3   0.126143 0.124296 0.521372 -0.708623
O144  O     O_3   0.123551 0.874457 0.479270 -0.705285
O145  O     O_3   0.624103 0.521138 0.626021 -0.707751
O146  O     O_R   0.053870 0.493560 0.843780 -0.561088
O147  O     O_3   0.377248 0.479984 0.624531 -0.705017
O148  O     O_3   0.412895 0.497753 0.412906 -0.693205
O149  O     O_3   0.624554 0.480017 0.377264 -0.705482
O150  O     O_3   0.474813 0.624955 0.371262 -0.715704
O151  O     O_3   0.520120 0.624689 0.622774 -0.705232
O152  O     O_3   0.479379 0.376439 0.625307 -0.707566
O153  O     O_3   0.521308 0.375705 0.373865 -0.707049
O154  O     O_3   0.373853 0.375718 0.521314 -0.706957
O155  O     O_3   0.371233 0.624951 0.474749 -0.715685
O156  O     O_3   0.623487 0.625428 0.520703 -0.707687
O157  O     O_R   0.506440 0.053870 0.156220 -0.549216
O158  O     O_3   0.625371 0.376395 0.479324 -0.707647
O159  O     O_R   0.993560 0.656220 0.946130 -0.565748
O160  O     O_R   0.053870 0.343780 0.993560 -0.585691
O161  O     O_R   0.006440 0.656220 0.053870 -0.568468
O162  O     O_R   0.946130 0.343780 0.006440 -0.582839
O163  O     O_R   0.993560 0.343780 0.053870 -0.585684
O164  O     O_R   0.506440 0.156220 0.053870 -0.590545
O165  O     O_R   0.053870 0.656220 0.006440 -0.565726
O166  O     O_R   0.006440 0.343780 0.946130 -0.582860
O167  O     O_R   0.946130 0.656220 0.993560 -0.568507
O168  O     O_R   0.343780 0.946130 0.006440 -0.582800
O169  O     O_R   0.656220 0.993560 0.946130 -0.566106
O170  O     O_R   0.343780 0.053870 0.993560 -0.585698
O171  O     O_R   0.656220 0.006440 0.053870 -0.566057
O172  O     O_R   0.656220 0.053870 0.006440 -0.568597
O173  O     O_R   0.343780 0.006440 0.946130 -0.582967
O174  O     O_R   0.656220 0.946130 0.993560 -0.568587
O175  O     O_R   0.946130 0.843780 0.506440 -0.545529
O176  O     O_R   0.343780 0.993560 0.053870 -0.585770
O177  O     O_R   0.053870 0.006440 0.656220 -0.565925
O178  O     O_R   0.006440 0.946130 0.343780 -0.542823
O179  O     O_R   0.946130 0.993560 0.656220 -0.568760
O180  O     O_R   0.993560 0.053870 0.343780 -0.545670
O181  O     O_R   0.946130 0.006440 0.343780 -0.606709
O182  O     O_R   0.993560 0.946130 0.656220 -0.565902
O183  O     O_R   0.053870 0.993560 0.343780 -0.609686
O184  O     O_R   0.006440 0.053870 0.656220 -0.568697
O185  O     O_R   0.993560 0.156220 0.446130 -0.585552
O186  O     O_R   0.493560 0.843780 0.053870 -0.559650
O187  O     O_R   0.553870 0.843780 0.993560 -0.589332
O188  O     O_R   0.006440 0.156220 0.553870 -0.582807
O189  O     O_R   0.446130 0.843780 0.006440 -0.562338
O190  O     O_R   0.993560 0.843780 0.553870 -0.606660
O191  O     O_R   0.553870 0.156220 0.006440 -0.584232
O192  O     O_R   0.006440 0.843780 0.446130 -0.609516
O193  O     O_R   0.446130 0.156220 0.993560 -0.543968
O194  O     O_R   0.843780 0.446130 0.006440 -0.562322
O195  O     O_R   0.156220 0.993560 0.446130 -0.546413
O196  O     O_R   0.843780 0.553870 0.993560 -0.589429
O197  O     O_R   0.053870 0.156220 0.506440 -0.585523
O198  O     O_R   0.156220 0.006440 0.553870 -0.603355
O199  O     O_R   0.156220 0.553870 0.006440 -0.603173
O200  O     O_R   0.843780 0.006440 0.446130 -0.559767
O201  O     O_R   0.156220 0.446130 0.993560 -0.549075
O202  O     O_R   0.843780 0.993560 0.553870 -0.589542
O203  O     O_R   0.553870 0.006440 0.156220 -0.603286
O204  O     O_R   0.006440 0.446130 0.843780 -0.567273
O205  O     O_R   0.446130 0.993560 0.156220 -0.549103
O206  O     O_R   0.993560 0.553870 0.843780 -0.608183
O207  O     O_R   0.446130 0.006440 0.843780 -0.567315
O208  O     O_R   0.506440 0.843780 0.946130 -0.592212
O209  O     O_R   0.993560 0.446130 0.156220 -0.544142
O210  O     O_R   0.553870 0.993560 0.843780 -0.608236
O211  O     O_R   0.006440 0.553870 0.156220 -0.584447
O212  O     O_R   0.493560 0.656220 0.446130 -0.590249
O213  O     O_R   0.553870 0.343780 0.493560 -0.582967
O214  O     O_R   0.506440 0.656220 0.553870 -0.559363
O215  O     O_R   0.446130 0.343780 0.506440 -0.583344
O216  O     O_R   0.493560 0.343780 0.553870 -0.583068
O217  O     O_R   0.553870 0.656220 0.506440 -0.561981
O218  O     O_R   0.506440 0.343780 0.446130 -0.583334
O219  O     O_R   0.946130 0.156220 0.493560 -0.582706
O220  O     O_R   0.446130 0.656220 0.493560 -0.590079
O221  O     O_R   0.343780 0.446130 0.506440 -0.541348
O222  O     O_R   0.656220 0.493560 0.446130 -0.559822
O223  O     O_R   0.343780 0.553870 0.493560 -0.557704
O224  O     O_R   0.656220 0.506440 0.553870 -0.592186
O225  O     O_R   0.656220 0.553870 0.506440 -0.589352
O226  O     O_R   0.343780 0.506440 0.446130 -0.625596
O227  O     O_R   0.656220 0.446130 0.493560 -0.562209
O228  O     O_R   0.343780 0.493560 0.553870 -0.611145
O229  O     O_R   0.553870 0.506440 0.656220 -0.550366
O230  O     O_R   0.843780 0.946130 0.506440 -0.592027
O231  O     O_R   0.506440 0.446130 0.343780 -0.541435
O232  O     O_R   0.446130 0.493560 0.656220 -0.561122
O233  O     O_R   0.493560 0.553870 0.343780 -0.557770
O234  O     O_R   0.446130 0.506440 0.343780 -0.625652
O235  O     O_R   0.493560 0.446130 0.656220 -0.567059
O236  O     O_R   0.553870 0.493560 0.343780 -0.611168
O237  O     O_R   0.506440 0.553870 0.656220 -0.608040
O238  O     O_R   0.445670 0.241870 0.993700 -0.614992
O239  O     O_R   0.006300 0.758130 0.445670 -0.630140
O240  O     O_R   0.554330 0.241870 0.006300 -0.624944
Zn1   Zn    Zn3+2 0.531990 0.199940 0.968010 1.008832
Zn2   Zn    Zn3+2 0.199940 0.531990 0.968010 1.007203
Zn3   Zn    Zn3+2 0.800060 0.031990 0.531990 1.028801
Zn4   Zn    Zn3+2 0.199940 0.468010 0.031990 1.051047
Zn5   Zn    Zn3+2 0.199940 0.031990 0.468010 1.051907
Zn6   Zn    Zn3+2 0.800060 0.468010 0.968010 1.028347
Zn7   Zn    Zn3+2 0.199940 0.968010 0.531990 1.006565
Zn8   Zn    Zn3+2 0.800060 0.531990 0.031990 1.029209
Zn9   Zn    Zn3+2 0.031990 0.468010 0.199940 1.029459
Zn10  Zn    Zn3+2 0.468010 0.968010 0.800060 1.049833
Zn11  Zn    Zn3+2 0.968010 0.531990 0.199940 1.008647
Zn12  Zn    Zn3+2 0.031990 0.800060 0.531990 1.030165
Zn13  Zn    Zn3+2 0.531990 0.031990 0.800060 1.027497
Zn14  Zn    Zn3+2 0.968010 0.468010 0.800060 1.049680
Zn15  Zn    Zn3+2 0.531990 0.968010 0.199940 1.007087
Zn16  Zn    Zn3+2 0.031990 0.531990 0.800060 1.027708
Zn17  Zn    Zn3+2 0.468010 0.031990 0.199940 1.051564
Zn18  Zn    Zn3+2 0.031990 0.699940 0.968010 1.048538
Zn19  Zn    Zn3+2 0.031990 0.300060 0.031990 1.008812
Zn20  Zn    Zn3+2 0.968010 0.699940 0.031990 1.048007
Zn21  Zn    Zn3+2 0.968010 0.300060 0.968010 1.010485
Zn22  Zn    Zn3+2 0.300060 0.968010 0.968010 1.010367
Zn23  Zn    Zn3+2 0.468010 0.199940 0.031990 1.030224
Zn24  Zn    Zn3+2 0.699940 0.031990 0.968010 1.048122
Zn25  Zn    Zn3+2 0.300060 0.031990 0.031990 1.008695
Zn26  Zn    Zn3+2 0.699940 0.968010 0.031990 1.048180
Zn27  Zn    Zn3+2 0.031990 0.968010 0.699940 1.048422
Zn28  Zn    Zn3+2 0.968010 0.968010 0.300060 1.029934
Zn29  Zn    Zn3+2 0.968010 0.031990 0.699940 1.047697
Zn30  Zn    Zn3+2 0.031990 0.031990 0.300060 1.028348
Zn31  Zn    Zn3+2 0.531990 0.699940 0.468010 1.028847
Zn32  Zn    Zn3+2 0.531990 0.300060 0.531990 1.010890
Zn33  Zn    Zn3+2 0.468010 0.699940 0.531990 1.029342
Zn34  Zn    Zn3+2 0.968010 0.800060 0.468010 1.028863
Zn35  Zn    Zn3+2 0.468010 0.300060 0.468010 1.011200
Zn36  Zn    Zn3+2 0.300060 0.468010 0.468010 1.017229
Zn37  Zn    Zn3+2 0.699940 0.531990 0.468010 1.029144
Zn38  Zn    Zn3+2 0.300060 0.531990 0.531990 1.030330
Zn39  Zn    Zn3+2 0.699940 0.468010 0.531990 1.028693
Zn40  Zn    Zn3+2 0.531990 0.468010 0.699940 1.050007
Zn41  Zn    Zn3+2 0.468010 0.468010 0.300060 1.017382
Zn42  Zn    Zn3+2 0.468010 0.531990 0.699940 1.027401
Zn43  Zn    Zn3+2 0.531990 0.531990 0.300060 1.030213
Zn44  Zn    Zn3+2 0.531990 0.800060 0.031990 1.029605
Zn45  Zn    Zn3+2 0.031990 0.199940 0.468010 1.008838
Zn46  Zn    Zn3+2 0.468010 0.800060 0.968010 1.028333
Zn47  Zn    Zn3+2 0.968010 0.199940 0.531990 1.010431
Zn48  Zn    Zn3+2 0.800060 0.968010 0.468010 1.028673

loop_
_geom_bond_atom_site_label_1
_geom_bond_atom_site_label_2
_ccdc_geom_bond_type
C210  C262  A    
C165  C360  S    
C160  C222  A    
C226  O119  S    
C333  O175  A    
C208  C260  A    
C319  H34   S    
C159  C236  A    
C24   H4    S    
C334  O189  A    
C123  C383  S    
C217  O110  S    
C301  H31   S    
C384  O58   A    
C14   O63   A    
C66   C257  A    
C191  C217  A    
C28   O28   A    
C172  C232  A    
C173  C240  A    
H47   O107  S    
O63   Zn6   S    
C335  O197  A    
O79   Zn9   S    
O224  Zn39  S    
C348  O210  A    
O176  Zn25  S    
O41   Zn24  S    
O180  Zn30  S    
C80   C325  A    
C102  C285  S    
C108  C269  T    
C104  C323  A    
H49   O109  S    
C225  O118  S    
C6    O6    A    
O218  Zn35  S    
H51   O111  S    
C120  C280  T    
C39   O86   A    
C81   C321  A    
O182  Zn27  S    
C3    O3    A    
H65   O127  S    
C371  O214  A    
C159  C211  A    
O46   Zn6   S    
C158  C317  T    
C383  O59   A    
H91   O152  S    
C180  C347  S    
C360  O168  A    
C174  C241  A    
O135  Zn15  S    
C47   O92   A    
C92   C328  A    
O236  Zn43  S    
C195  C343  S    
C99   C324  A    
C141  C300  T    
O235  Zn40  S    
C33   C137  S    
O240  Zn1   S    
O87   Zn38  S    
C364  O171  A    
C27   C143  S    
O56   Zn34  S    
C181  C214  A    
C28   C144  S    
C38   C136  S    
O74   Zn13  S    
C206  C252  A    
O102  Zn42  S    
O188  Zn47  S    
C182  C236  A    
C42   O83   A    
C185  C247  A    
C173  C349  S    
O40   Zn25  S    
H54   O116  S    
C351  O124  A    
C206  C258  A    
C358  O165  A    
C373  O228  A    
O29   Zn19  S    
C193  C345  S    
C235  H25   S    
C26   O33   A    
C111  C272  T    
C48   O104  A    
C73   C168  A    
O157  Zn17  S    
C196  C337  S    
O85   Zn32  S    
C76   C302  S    
C2    H2    S    
C113  H13   S    
C203  C255  A    
O179  Zn29  S    
C23   O23   A    
C64   C314  S    
C223  H23   S    
C259  O152  S    
C49   C151  S    
C39   C154  S    
C11   O65   A    
O76   Zn10  S    
O165  Zn18  S    
C128  C287  T    
C93   C276  S    
O167  Zn20  S    
C94   C275  S    
C6    C120  S    
C368  O181  A    
C190  H20   S    
C197  C338  S    
C171  C237  A    
O162  Zn21  S    
C44   O94   A    
O60   Zn1   S    
C207  C258  A    
O168  Zn22  S    
C178  C346  S    
C89   C280  S    
C81   C341  A    
C84   C267  S    
C189  C333  S    
C80   C272  S    
C331  O192  A    
C91   C278  S    
C25   O70   A    
C31   O41   A    
C204  C254  A    
C91   C320  A    
C349  O101  A    
C125  C284  T    
C168  H18   S    
C22   O72   A    
H69   O130  S    
C377  O224  A    
C146  H16   S    
C202  C379  S    
C62   C157  A    
C10   O66   A    
C7    O7    A    
C204  C381  S    
C381  O233  A    
C2    C52   A    
C213  O106  S    
O196  Zn8   S    
O99   Zn41  S    
C43   O87   A    
C5    C130  S    
C187  C211  A    
O172  Zn24  S    
C99   C287  S    
C238  O131  S    
O177  Zn27  S    
C242  O136  S    
C71   C190  A    
C371  O217  A    
O207  Zn10  S    
C354  O146  A    
C24   C56   A    
C30   O42   A    
C239  O132  S    
C75   C303  S    
C372  O215  A    
C357  O160  A    
C207  C263  A    
O52   Zn47  S    
C27   O32   A    
O230  Zn48  S    
C32   O40   A    
C23   C110  S    
O185  Zn45  S    
O19   Zn9   S    
C342  O24   A    
C84   C326  A    
C189  C222  A    
H46   O106  S    
O36   Zn26  S    
O75   Zn11  S    
C10   C131  S    
C187  C244  A    
C84   C223  A    
C212  H22   S    
C18   C115  S    
O203  Zn15  S    
C72   C235  A    
C340  O13   A    
C163  C361  S    
O35   Zn5   S    
O70   Zn17  S    
C66   C179  A    
C345  O57   A    
C185  C216  A    
C131  C291  T    
C333  O190  A    
O104  Zn40  S    
O82   Zn32  S    
C312  H32   S    
O205  Zn17  S    
C231  O125  S    
C329  O1    A    
O195  Zn5   S    
C378  O237  A    
C200  C376  S    
C54   C223  A    
O1    Zn1   S    
C65   C299  S    
C192  C250  A    
C321  H36   S    
C232  O126  S    
O5    Zn47  S    
O51   Zn27  S    
H75   O137  S    
C73   C292  S    
C63   C315  S    
C51   O100  A    
C53   C311  S    
C95   C374  A    
C192  C335  S    
C56   C330  A    
O66   Zn3   S    
C41   C158  S    
C63   C113  A    
O163  Zn19  S    
C68   H8    S    
C365  O184  A    
C40   O85   A    
C236  O129  S    
C83   C324  A    
C14   O14   A    
O225  Zn37  S    
C188  C243  A    
C35   C63   A    
O192  Zn34  S    
C181  C350  S    
C166  C219  A    
C353  O135  A    
C65   C224  A    
C161  C362  S    
C114  C273  T    
C200  C254  A    
O33   Zn18  S    
C177  C241  A    
C195  C250  A    
C71   C268  A    
O38   Zn24  S    
C89   C325  A    
H63   O125  S    
O81   Zn31  S    
C85   C112  A    
H82   O143  S    
C195  C219  A    
C13   H3    S    
H64   O126  S    
C46   C89   A    
C29   O30   A    
C73   C279  A    
C61   C317  S    
C65   C168  A    
C165  C238  A    
C95   C274  S    
O186  Zn44  S    
H93   O154  S    
C102  C322  A    
C209  C372  S    
C264  O158  S    
C136  C295  T    
C178  C230  A    
C104  C283  S    
C198  C263  A    
C204  C256  A    
C182  C332  S    
C209  C259  A    
C54   C68   A    
C32   C139  S    
C105  C265  T    
C367  O182  A    
C100  C286  S    
O42   Zn22  S    
O30   Zn21  S    
C362  O173  A    
C12   O12   A    
C20   O20   A    
C112  H12   S    
C85   C323  A    
O237  Zn42  S    
O13   Zn3   S    
C60   C305  S    
C161  C231  A    
O202  Zn3   S    
C363  H78   S    
C382  O60   A    
O47   Zn28  S    
C237  O130  S    
C47   C150  S    
C82   C328  A    
C255  O149  S    
C185  C348  S    
C188  C231  A    
H48   O108  S    
C76   C290  A    
C87   C326  A    
C179  H19   S    
O198  Zn7   S    
O26   Zn20  S    
H58   O119  S    
C96   C157  A    
O25   Zn15  S    
C135  H15   S    
C7    C126  S    
C103  C318  A    
C8    O8    A    
C121  C281  T    
H59   O120  S    
O169  Zn24  S    
C24   C92   A    
O92   Zn39  S    
C162  C226  A    
C260  O153  S    
C193  C215  A    
C148  C307  T    
C375  O227  A    
C4    O4    A    
C122  C384  S    
O31   Zn20  S    
C90   C103  A    
C93   C312  A    
C69   C296  S    
C5    O54   A    
O72   Zn15  S    
C94   C327  A    
C183  C245  A    
C188  C329  S    
C2    C94   A    
C369  O212  A    
O206  Zn16  S    
C139  C298  T    
H86   O148  S    
C173  C227  A    
C174  C237  A    
C4    O55   A    
C203  C264  A    
C199  C253  A    
C220  O115  S    
C384  O240  A    
C201  H21   S    
C6    O53   A    
O208  Zn46  S    
C98   C135  A    
C66   C298  S    
O15   Zn5   S    
C164  C368  S    
C233  O127  S    
C134  C294  T    
C58   C307  S    
C3    C128  S    
C9    C105  S    
C34   O43   A    
O14   Zn8   S    
C358  O161  A    
C216  O109  S    
C98   C288  S    
C96   C312  A    
C44   C145  S    
C327  H42   S    
C355  O157  A    
C70   C295  S    
C153  C313  T    
C230  O123  S    
C21   O73   A    
O64   Zn5   S    
C290  H30   S    
C323  H38   S    
H66   O128  S    
C351  O206  A    
C1    H1    S    
O178  Zn28  S    
C362  O170  A    
O12   Zn7   S    
C355  O203  A    
C191  C340  S    
C103  C284  S    
H77   O139  S    
C205  C253  A    
O3    Zn12  S    
C15   O62   A    
C176  C242  A    
C251  O144  S    
O194  Zn6   S    
C180  C239  A    
C145  C305  T    
C1    C86   A    
C40   O80   A    
O183  Zn30  S    
C27   O27   A    
O222  Zn37  S    
C97   C289  S    
C335  O188  A    
C25   O25   A    
C85   C266  S    
O83   Zn35  S    
C150  C309  T    
O112  Zn12  S    
C20   O74   A    
C360  O176  A    
C209  C261  A    
O58   Zn23  S    
C80   C352  A    
C331  O112  A    
O229  Zn40  S    
C160  C213  A    
C86   C265  S    
C19   O19   A    
C350  O207  A    
C354  O204  A    
H62   O123  S    
C183  C353  S    
C87   C282  S    
H96   O158  S    
C116  C382  S    
C17   C106  S    
C177  C351  S    
O57   Zn7   S    
H52   O114  S    
C36   O44   A    
C379  O231  A    
C124  H14   S    
O217  Zn31  S    
C37   O45   A    
O95   Zn36  S    
C170  C230  A    
C130  C289  T    
C36   O50   A    
C191  C249  A    
O216  Zn32  S    
C11   O11   A    
C162  C366  S    
C21   C108  S    
C9    O9    A    
C224  H24   S    
C324  H39   S    
C198  C252  A    
C167  C358  S    
O190  Zn12  S    
C7    O52   A    
C49   O103  A    
C361  O174  A    
C9    O67   A    
C68   C87   A    
C21   O21   A    
C252  O145  S    
C261  O154  S    
C67   C297  S    
C240  O133  S    
C249  O142  S    
C210  C369  S    
C99   C124  A    
C164  C217  A    
C175  C242  A    
C161  C214  A    
O164  Zn23  S    
C101  C102  A    
C184  C336  S    
C176  C339  S    
C347  O211  A    
H90   O151  S    
C221  O116  S    
C178  C240  A    
O220  Zn33  S    
C67   C190  A    
C337  O185  A    
C167  C232  A    
O98   Zn40  S    
H92   O153  S    
C61   C90   A    
C175  C354  S    
C147  C306  T    
C60   C363  A    
C373  O221  A    
C350  O113  A    
O4    Zn46  S    
O67   Zn2   S    
C17   O77   A    
O86   Zn31  S    
C367  O179  A    
O80   Zn35  S    
C254  O148  S    
O65   Zn4   S    
C5    O5    A    
C318  H33   S    
C46   H6    S    
C227  O120  S    
C50   C153  S    
C48   C147  S    
C215  O108  S    
O77   Zn9   S    
C69   C290  A    
C336  O187  A    
C97   C146  A    
O166  Zn21  S    
C82   C330  A    
C175  C225  A    
O54   Zn45  S    
C43   C148  S    
C16   C107  S    
O232  Zn42  S    
O53   Zn46  S    
C30   O34   A    
O50   Zn28  S    
O231  Zn41  S    
O23   Zn14  S    
C42   O82   A    
C342  O199  A    
C75   C257  A    
C346  O68   A    
O233  Zn43  S    
C37   C140  S    
H95   O156  S    
C258  O151  S    
O210  Zn13  S    
C74   C304  S    
C320  H35   S    
C26   C141  S    
C34   O51   A    
C33   O39   A    
C41   O84   A    
O27   Zn21  S    
C211  O105  S    
C248  O141  S    
O45   Zn27  S    
C37   O49   A    
C47   O91   A    
O44   Zn30  S    
O59   Zn12  S    
C142  C302  T    
C170  C227  A    
C12   O64   A    
C189  C248  A    
C332  O164  A    
C3    O56   A    
O214  Zn33  S    
C268  H28   S    
C219  O114  S    
C372  O216  A    
H87   O149  S    
C140  C299  T    
C205  C373  S    
C378  O229  A    
C32   O37   A    
O88   Zn39  S    
C348  O90   A    
C106  C266  T    
O181  Zn28  S    
H72   O133  S    
C361  O169  A    
O10   Zn48  S    
C79   H9    S    
C52   C313  S    
O239  Zn34  S    
C343  O35   A    
O221  Zn36  S    
O94   Zn37  S    
C19   C114  S    
C16   O61   A    
C366  O178  A    
O201  Zn4   S    
O227  Zn39  S    
C337  O219  A    
C74   C212  A    
H80   O141  S    
C116  C275  T    
C54   C310  S    
C332  O191  A    
C38   O48   A    
C109  C270  T    
C163  C233  A    
C202  C260  A    
C356  O159  A    
C77   C224  A    
C200  C262  A    
C202  C255  A    
C15   C129  S    
C375  O222  A    
H94   O155  S    
C374  H89   S    
C101  H11   S    
O175  Zn34  S    
C67   C212  A    
C51   O99   A    
C208  C264  A    
C122  C282  T    
C210  C256  A    
O226  Zn36  S    
C330  H45   S    
O32   Zn19  S    
C172  C342  S    
H79   O140  S    
H50   O110  S    
O100  Zn43  S    
C344  O46   A    
C341  H56   S    
C174  C344  S    
O18   Zn13  S    
C184  C247  A    
C169  C225  A    
O71   Zn16  S    
O43   Zn29  S    
C15   O15   A    
C199  C380  S    
C243  O137  S    
C197  C213  A    
C171  C356  S    
C22   C121  S    
C383  O239  A    
C55   C124  A    
C222  O117  S    
C322  H37   S    
O211  Zn11  S    
O238  Zn23  S    
O101  Zn11  S    
C137  C296  T    
C234  O128  S    
C88   C301  A    
O199  Zn2   S    
O209  Zn9   S    
C182  C244  A    
H55   O117  S    
C118  C277  T    
O187  Zn44  S    
C29   O29   A    
O113  Zn13  S    
C38   O47   A    
O212  Zn31  S    
C356  O167  A    
C45   C152  S    
C256  O150  S    
C194  C226  A    
C42   C155  S    
C55   C309  S    
C325  H40   S    
O22   Zn17  S    
O84   Zn33  S    
H88   O150  S    
C154  C314  T    
C115  C274  T    
C77   C279  A    
C110  C271  T    
O9    Zn4   S    
C359  O163  A    
C23   O71   A    
C279  H29   S    
O161  Zn20  S    
C377  O225  A    
H73   O134  S    
C208  C370  S    
C157  H17   S    
C359  O162  A    
C1    C52   A    
C381  O234  A    
C48   O96   A    
C17   O17   A    
C8    C125  S    
O78   Zn33  S    
C51   C149  S    
C166  C228  A    
C366  O183  A    
C78   C322  A    
C13   C93   A    
O223  Zn38  S    
C194  C251  A    
C334  O186  A    
O170  Zn25  S    
C95   C318  A    
O189  Zn46  S    
C369  O220  A    
C36   C138  S    
O103  Zn41  S    
C20   C119  S    
O68   Zn8   S    
C166  C365  S    
C339  O2    A    
C58   C341  A    
C69   C201  A    
C340  O200  A    
O16   Zn6   S    
C46   C59   A    
C11   C109  S    
O2    Zn2   S    
H71   O132  S    
C250  O143  S    
C96   C291  S    
C86   C327  A    
H53   O115  S    
C88   C281  S    
C119  C278  T    
C353  O205  A    
C43   O95   A    
C12   C127  S    
C155  C315  T    
O173  Zn22  S    
C198  C377  S    
C45   O89   A    
O55   Zn44  S    
C205  C261  A    
C194  C331  S    
C53   C79   A    
C326  H41   S    
C169  C357  S    
C228  O121  S    
O89   Zn36  S    
C59   C306  S    
C177  C229  A    
H44   O105  S    
C206  C378  S    
C59   C352  A    
C186  C334  S    
O200  Zn48  S    
C81   C271  S    
H81   O142  S    
C257  H27   S    
C163  C216  A    
C45   O93   A    
C92   C277  S    
C83   C269  S    
C98   C301  A    
H83   O144  S    
C167  C221  A    
O34   Zn25  S    
O193  Zn23  S    
C74   C268  A    
C149  C308  T    
C176  C234  A    
O184  Zn29  S    
C171  C229  A    
C196  C249  A    
O159  Zn18  S    
C132  C292  T    
C75   C235  A    
H84   O145  S    
O62   Zn7   S    
C133  C293  T    
C187  C355  S    
C159  C364  S    
O73   Zn14  S    
C370  O218  A    
C143  C303  T    
C164  C220  A    
H85   O147  S    
O39   Zn26  S    
C347  O79   A    
C186  C238  A    
H60   O121  S    
C152  C311  T    
C127  C286  T    
C4    C118  S    
O215  Zn35  S    
C382  O238  A    
C117  C276  T    
C339  O201  A    
C41   O81   A    
C196  C220  A    
C19   O75   A    
C253  O147  S    
C39   O78   A    
C162  C215  A    
C14   C111  S    
C365  O177  A    
O21   Zn16  S    
C10   O10   A    
C169  C234  A    
O20   Zn10  S    
C328  H43   S    
C180  C221  A    
H57   O118  S    
C16   O16   A    
O91   Zn37  S    
C56   C308  S    
C97   C321  A    
H68   O129  S    
C57   H7    S    
O61   Zn8   S    
C34   C133  S    
C30   C134  S    
O93   Zn38  S    
C199  C259  A    
C345  O195  A    
C71   C294  S    
O28   Zn18  S    
C338  O202  A    
C31   C132  S    
C72   C293  S    
C18   O76   A    
C50   O98   A    
C44   O88   A    
C28   O31   A    
O174  Zn26  S    
C263  O156  S    
O69   Zn48  S    
C35   H5    S    
O171  Zn26  S    
C241  O134  S    
C357  O166  A    
H70   O131  S    
C138  C297  T    
C100  C320  A    
C379  O236  A    
C346  O194  A    
C77   C300  S    
C13   C62   A    
C53   C112  A    
H74   O136  S    
C160  C367  S    
C70   C246  A    
C246  H26   S    
C183  C218  A    
O97   Zn43  S    
C107  C267  T    
C61   C374  A    
O96   Zn42  S    
C79   C104  A    
C376  O223  A    
C343  O198  A    
C8    O69   A    
C245  O139  S    
C49   O97   A    
O219  Zn47  S    
C60   C101  A    
C370  O213  A    
C165  C218  A    
C203  C375  S    
O213  Zn32  S    
C57   C64   A    
C364  O172  A    
C25   C117  S    
C380  O232  A    
O90   Zn10  S    
C26   O26   A    
O8    Zn3   S    
O228  Zn38  S    
C229  O122  S    
O17   Zn11  S    
C129  C288  T    
C76   C246  A    
C100  C113  A    
C55   C319  A    
O24   Zn4   S    
C247  O140  S    
C58   C146  A    
C338  O230  A    
C31   O36   A    
C352  H67   S    
C197  C248  A    
C207  C371  S    
C72   C179  A    
C57   C88   A    
C82   C270  S    
C329  O193  A    
C18   O18   A    
C156  C316  T    
C50   O102  A    
O11   Zn2   S    
C123  C283  T    
C170  C359  S    
O7    Zn45  S    
C144  C304  T    
C262  O155  S    
C70   C201  A    
O160  Zn19  S    
O6    Zn44  S    
C29   C142  S    
C214  O107  S    
C83   C319  A    
C90   H10   S    
O197  Zn45  S    
C193  C251  A    
C376  O226  A    
C184  C233  A    
C64   C135  A    
O204  Zn14  S    
C380  O235  A    
O48   Zn30  S    
C218  O111  S    
C172  C239  A    
C181  C243  A    
C192  C228  A    
O234  Zn41  S    
H61   O122  S    
C336  O208  A    
C151  C310  T    
C62   C316  S    
C126  C285  T    
C244  O138  S    
O124  Zn14  S    
C22   O22   A    
C349  O209  A    
O37   Zn22  S    
C40   C156  S    
H76   O138  S    
C78   C273  S    
O146  Zn16  S    
C344  O196  A    
C33   O38   A    
C186  C245  A    
O191  Zn1   S    
C368  O180  A    
O49   Zn29  S    
C78   C363  A    
C35   C91   A    
