data_mof_unit_20399.cif
_audit_creation_date              2012-12-11T15:36:59-0500
_audit_creation_method            fapswitch 2.2
_symmetry_space_group_name_H-M    P1
_symmetry_Int_Tables_number       1
_space_group_crystal_system       triclinic
_cell_length_a                    15.065083
_cell_length_b                    15.077442
_cell_length_c                    34.841395
_cell_angle_alpha                 91.22209
_cell_angle_beta                  91.760047
_cell_angle_gamma                 60.091733
_cell_volume                      6856.62922146

loop_
_atom_site_label
_atom_site_type_symbol
_atom_type_description
_atom_site_fract_x
_atom_site_fract_y
_atom_site_fract_z
_atom_type_partial_charge
C1    C     C_R   0.610746 0.302598 0.444077 0.543141
C2    C     C_R   0.597394 0.097220 0.763128 -0.114061
C3    C     C_R   0.093122 0.766414 0.886260 -0.126132
C4    C     C_R   0.122093 0.754603 0.848142 -0.122355
C5    C     C_R   0.124923 0.674880 0.825747 0.032063
C6    C     C_R   0.105590 0.602819 0.842762 -0.121308
C7    C     C_R   0.077148 0.614274 0.880965 -0.126307
C8    C     C_R   0.200035 0.577849 0.765397 -0.119450
C9    C     C_R   0.208885 0.574474 0.725721 -0.116491
C10   C     C_R   0.157683 0.664761 0.704210 0.028708
C11   C     C_R   0.098160 0.758638 0.722861 -0.118365
C12   C     C_R   0.088797 0.761986 0.762562 -0.115393
C13   C     C_R   0.595667 0.171165 0.788910 0.028091
C14   C     C_R   0.653613 0.763499 0.164097 -0.120891
C15   C     C_R   0.139631 0.671564 0.784111 0.029243
C16   C     C_R   0.200926 0.725058 0.645600 -0.121799
C17   C     C_R   0.234382 0.707276 0.607933 -0.128909
C18   C     C_R   0.200257 0.566218 0.602918 -0.125109
C19   C     C_R   0.167127 0.583891 0.640546 -0.122484
C20   C     C_R   0.171673 0.660377 0.662607 0.031418
C21   C     C_R   0.238932 0.624524 0.586975 0.022400
C22   C     C_R   0.672873 0.079350 0.906190 0.021541
C23   C     C_R   0.597910 0.065010 0.886686 -0.129188
C24   C     C_R   0.548443 0.195588 0.640795 -0.120508
C25   C     C_R   0.567953 0.099825 0.849054 -0.122498
C26   C     C_3   0.157687 0.868911 0.344351 -0.280859
C27   C     C_3   0.246223 0.891084 0.347948 -0.446242
C28   C     C_R   0.827162 0.620847 0.161070 -0.124526
C29   C     C_R   0.550841 0.219455 0.602469 -0.125051
C30   C     C_R   0.692107 0.248916 0.617928 -0.125431
C31   C     C_R   0.688688 0.226469 0.656246 -0.122369
C32   C     C_R   0.614573 0.203161 0.668147 0.029157
C33   C     C_R   0.620305 0.249934 0.590993 0.022763
C34   C     C_R   0.045276 0.739133 0.048689 0.540566
C35   C     C_R   0.741533 0.686624 0.182686 0.030596
C36   C     C_R   0.747383 0.746600 0.064067 0.543856
C37   C     C_R   0.751397 0.040130 0.050722 0.541357
C38   C     C_R   0.017116 0.722437 0.939809 0.544714
C39   C     C_R   0.717167 0.730110 0.954932 0.541598
C40   C     C_R   0.826953 0.635902 0.121661 -0.128069
C41   C     C_R   0.721369 0.024487 0.942083 0.542385
C42   C     C_R   0.776216 0.582002 0.241548 -0.117234
C43   C     C_R   0.766976 0.575524 0.280943 -0.114659
C44   C     C_R   0.725589 0.664190 0.304055 0.029297
C45   C     C_R   0.698801 0.758506 0.287419 -0.119734
C46   C     C_R   0.612004 0.150048 0.830581 0.031380
C47   C     C_R   0.707477 0.765009 0.248032 -0.119447
C48   C     C_R   0.743518 0.677268 0.224697 0.026650
C49   C     C_R   0.603920 0.733240 0.358096 -0.120954
C50   C     C_R   0.593244 0.610218 0.449401 0.545007
C51   C     C_R   0.571566 0.720396 0.393523 -0.126641
C52   C     C_R   0.732898 0.563086 0.402888 -0.127096
C53   C     C_R   0.765385 0.576175 0.367491 -0.121879
C54   C     C_R   0.699827 0.659567 0.344230 0.032570
C55   C     C_R   0.634356 0.633342 0.415622 0.022162
C56   C     C_R   0.101983 0.728447 0.085222 0.021220
C57   C     C_R   0.681410 0.170543 0.851232 -0.118391
C58   C     C_R   0.144402 0.635655 0.105298 -0.126191
C59   C     C_R   0.168367 0.632437 0.144328 -0.122774
C60   C     C_R   0.152317 0.721266 0.163758 0.028213
C61   C     C_R   0.120226 0.811517 0.143163 -0.122567
C62   C     C_R   0.304074 0.591482 0.442330 0.541612
C63   C     C_R   0.094928 0.815237 0.104026 -0.129018
C64   C     C_R   0.230492 0.738055 0.225713 -0.121290
C65   C     C_R   0.239680 0.729725 0.265683 -0.116032
C66   C     C_R   0.174158 0.707839 0.286283 0.020442
C67   C     C_R   0.099407 0.694336 0.266370 -0.126583
C68   C     C_R   0.711485 0.135580 0.888612 -0.124501
C69   C     C_R   0.091472 0.700797 0.226448 -0.118444
C70   C     C_R   0.157647 0.721603 0.205912 0.024203
C71   C     C_R   0.214429 0.590288 0.340519 -0.137545
C72   C     C_R   0.244164 0.561223 0.378509 -0.135811
C73   C     C_R   0.221012 0.728962 0.393154 -0.108426
C74   C     C_R   0.605548 0.300667 0.553773 0.541913
C75   C     C_R   0.191247 0.759421 0.354870 0.029462
C76   C     C_R   0.191179 0.687589 0.327937 0.034158
C77   C     C_R   0.251331 0.629008 0.404835 0.004744
C78   C     C_R   0.725330 0.096811 0.087340 0.023812
C79   C     C_R   0.591043 0.259520 0.774303 -0.120058
C80   C     C_R   0.801336 0.104442 0.109091 -0.126278
C81   C     C_R   0.786428 0.131720 0.147814 -0.123091
C82   C     C_R   0.695012 0.152780 0.165162 0.031338
C83   C     C_R   0.615556 0.154359 0.142570 -0.119984
C84   C     C_R   0.630666 0.126391 0.103945 -0.125432
C85   C     C_R   0.595417 0.238775 0.223725 -0.117974
C86   C     C_R   0.587490 0.606322 0.559118 0.541674
C87   C     C_R   0.585879 0.245151 0.263477 -0.114868
C88   C     C_R   0.666656 0.175554 0.287356 0.028938
C89   C     C_R   0.757028 0.099256 0.270771 -0.120005
C90   C     C_R   0.594965 0.270541 0.734916 -0.117627
C91   C     C_R   0.766666 0.093106 0.231017 -0.116617
C92   C     C_R   0.686077 0.163077 0.207204 0.028692
C93   C     C_R   0.740742 0.182416 0.351552 -0.120857
C94   C     C_R   0.727602 0.212055 0.390036 -0.126040
C95   C     C_R   0.552939 0.244726 0.385785 -0.130032
C96   C     C_R   0.566140 0.215082 0.347263 -0.124813
C97   C     C_R   0.658748 0.187823 0.329447 0.032057
C98   C     C_R   0.298005 0.589129 0.551684 0.544060
C99   C     C_R   0.632160 0.247812 0.407018 0.021801
C100  C     C_R   0.691504 0.689767 0.919948 0.020963
C101  C     C_R   0.602232 0.194110 0.709380 0.026016
C102  C     C_R   0.765467 0.596924 0.903570 -0.127687
C103  C     C_R   0.753193 0.571986 0.865732 -0.123675
C104  C     C_R   0.666847 0.639427 0.843626 0.032088
C105  C     C_R   0.588500 0.727322 0.861207 -0.120563
C106  C     C_R   0.600550 0.752092 0.899068 -0.127792
C107  C     C_R   0.571142 0.651090 0.782080 -0.120404
C108  C     C_R   0.566112 0.650462 0.742047 -0.118527
C109  C     C_R   0.653698 0.623728 0.720703 0.027370
C110  C     C_R   0.740816 0.716660 0.103386 0.021519
C111  C     C_R   0.747173 0.594342 0.740030 -0.117307
C112  C     C_R   0.600070 0.108951 0.723588 -0.117357
C113  C     C_R   0.752120 0.595596 0.780079 -0.113991
C114  C     C_R   0.663801 0.625426 0.801515 0.028813
C115  C     C_R   0.718732 0.544052 0.656511 -0.123190
C116  C     C_R   0.704294 0.541208 0.616824 -0.129004
C117  C     C_R   0.550517 0.707407 0.619976 -0.126750
C118  C     C_R   0.564686 0.709864 0.659619 -0.123049
C119  C     C_R   0.646801 0.626640 0.678357 0.031395
C120  C     C_R   0.617795 0.621139 0.598379 0.021621
C121  C     C_R   0.066986 0.698371 0.902544 0.023684
C122  C     C_R   0.653065 0.778201 0.124797 -0.124591
Cr1   Cr    Cr6+3 0.426010 0.422500 0.497000 1.009300
Cr2   Cr    Cr6+3 0.651300 0.426310 0.501970 1.008547
Cr3   Cr    Cr6+3 0.422670 0.651170 0.501050 1.007396
Cr4   Cr    Cr6+3 0.905130 0.911420 0.992650 1.009461
Cr5   Cr    Cr6+3 0.911860 0.682710 0.002320 1.009003
Cr6   Cr    Cr6+3 0.682710 0.906840 0.004710 1.010303
H1    H     H_    0.585380 0.840776 0.111557 0.128331
H2    H     H_    0.048930 0.676368 0.281707 0.111285
H3    H     H_    0.895894 0.587530 0.105945 0.126131
H4    H     H_    0.034567 0.688215 0.211448 0.114544
H5    H     H_    0.214523 0.534562 0.320330 0.108173
H6    H     H_    0.267249 0.483603 0.386648 0.127458
H7    H     H_    0.107651 0.880696 0.157898 0.102779
H8    H     H_    0.223400 0.782744 0.413697 0.121302
H9    H     H_    0.875129 0.081953 0.097063 0.122211
H10   H     H_    0.570675 0.121504 0.087765 0.119123
H11   H     H_    0.502483 0.217779 0.330946 0.099411
H12   H     H_    0.495163 0.775758 0.402543 0.125881
H13   H     H_    0.516225 0.306144 0.275579 0.105758
H14   H     H_    0.532496 0.293691 0.205893 0.103482
H15   H     H_    0.840290 0.519177 0.357676 0.101123
H16   H     H_    0.848058 0.131777 0.164649 0.101525
H17   H     H_    0.820023 0.044229 0.288545 0.102429
H18   H     H_    0.836472 0.032528 0.218829 0.108397
H19   H     H_    0.812893 0.161912 0.338509 0.100246
H20   H     H_    0.790290 0.212971 0.405758 0.125726
H21   H     H_    0.544403 0.170275 0.155349 0.101375
H22   H     H_    0.478691 0.271256 0.398159 0.123241
H23   H     H_    0.895628 0.560831 0.174931 0.100305
H24   H     H_    0.835989 0.546744 0.919059 0.122037
H25   H     H_    0.542023 0.824067 0.910863 0.124318
H26   H     H_    0.509457 0.775371 0.675857 0.101637
H27   H     H_    0.786957 0.502009 0.292918 0.104684
H28   H     H_    0.493603 0.671154 0.727706 0.107608
H29   H     H_    0.502254 0.673046 0.797837 0.103389
H30   H     H_    0.813674 0.502522 0.853142 0.099165
H31   H     H_    0.815587 0.573708 0.724149 0.103970
H32   H     H_    0.824232 0.577303 0.794200 0.104072
H33   H     H_    0.782790 0.479068 0.670369 0.099868
H34   H     H_    0.783341 0.495711 0.419508 0.122873
H35   H     H_    0.757419 0.473558 0.601025 0.121492
H36   H     H_    0.521227 0.781093 0.844895 0.100325
H37   H     H_    0.483302 0.770383 0.606672 0.124887
H38   H     H_    0.087007 0.831269 0.902465 0.121733
H39   H     H_    0.804009 0.513514 0.223996 0.104449
H40   H     H_    0.057164 0.560860 0.892814 0.126051
H41   H     H_    0.142852 0.534521 0.653083 0.103770
H42   H     H_    0.257227 0.501500 0.711869 0.109407
H43   H     H_    0.240820 0.507391 0.781473 0.105173
H44   H     H_    0.138907 0.809758 0.835782 0.101050
H45   H     H_    0.151531 0.567283 0.091619 0.125119
H46   H     H_    0.058135 0.828968 0.706667 0.104610
H47   H     H_    0.040144 0.834977 0.776320 0.106497
H48   H     H_    0.204937 0.784512 0.662249 0.101605
H49   H     H_    0.263388 0.753687 0.596288 0.124909
H50   H     H_    0.106672 0.541011 0.825979 0.101072
H51   H     H_    0.585896 0.813592 0.180176 0.104200
H52   H     H_    0.201586 0.502803 0.587218 0.127611
H53   H     H_    0.567079 0.021648 0.899586 0.123918
H54   H     H_    0.769032 0.148130 0.903061 0.125445
H55   H     H_    0.741417 0.231125 0.676936 0.105412
H56   H     H_    0.062152 0.887910 0.089400 0.122378
H57   H     H_    0.594063 0.338074 0.724360 0.112851
H58   H     H_    0.587672 0.318634 0.793435 0.105985
H59   H     H_    0.513362 0.084132 0.833916 0.100823
H60   H     H_    0.605203 0.049449 0.704245 0.106444
H61   H     H_    0.602259 0.027749 0.773549 0.106780
H62   H     H_    0.491017 0.177304 0.649472 0.103213
H63   H     H_    0.668345 0.827637 0.304706 0.105069
H64   H     H_    0.494647 0.219586 0.582283 0.119415
H65   H     H_    0.717688 0.207935 0.837723 0.104052
H66   H     H_    0.746212 0.272502 0.610044 0.124907
H67   H     H_    0.300125 0.736813 0.280371 0.113826
H68   H     H_    0.683908 0.838990 0.235610 0.109814
H69   H     H_    0.551218 0.797656 0.340576 0.100769
H70   H     H_    0.272487 0.886220 0.378348 0.144702
H71   H     H_    0.311812 0.836048 0.330540 0.148960
H72   H     H_    0.220217 0.969631 0.337604 0.133073
H73   H     H_    0.124575 0.887439 0.314781 0.150386
H74   H     H_    0.095850 0.921464 0.363818 0.134778
H75   H     H_    0.282583 0.753269 0.210155 0.107551
H76   H     H_    0.194165 0.561929 0.159874 0.105461
O1    O     O_R   0.324990 0.503440 0.453910 -0.519546
O2    O     O_R   0.675430 0.831160 0.051290 -0.518521
O3    O     O_R   0.698870 0.998880 0.039560 -0.500695
O4    O     O_R   0.522030 0.339050 0.458320 -0.503839
O5    O     O_R   0.811290 0.006780 0.950620 -0.517044
O6    O     O_R   0.980960 0.812920 0.953200 -0.500673
O7    O     O_R   0.001480 0.656720 0.955830 -0.520678
O8    O     O_R   0.809240 0.683250 0.968050 -0.501754
O9    O     O_R   0.652500 0.818540 0.967340 -0.520912
O10   O     O_R   0.677620 0.987170 0.961730 -0.502503
O11   O     O_3   0.833240 0.833660 0.999890 -0.234997
O12   O     O_R   0.639980 0.519500 0.542640 -0.503298
O13   O     O_R   0.676180 0.324490 0.458320 -0.519011
O14   O     O_R   0.643570 0.521510 0.464260 -0.501513
O15   O     O_R   0.504630 0.675350 0.460920 -0.519667
O16   O     O_R   0.339850 0.642450 0.459830 -0.502307
O17   O     O_R   0.321120 0.501280 0.538470 -0.518906
O18   O     O_R   0.518440 0.337050 0.536710 -0.499792
O19   O     O_R   0.672300 0.322330 0.542880 -0.521284
O20   O     O_R   0.500750 0.673190 0.545480 -0.520779
O21   O     O_R   0.336260 0.640450 0.538210 -0.504057
O22   O     O_3   0.499990 0.499990 0.500010 -0.233962
O23   O     O_R   0.834210 0.019400 0.034570 -0.522320
O24   O     O_R   0.002210 0.824620 0.031030 -0.502892
O25   O     O_R   0.024400 0.669340 0.039790 -0.520308
O26   O     O_R   0.830490 0.694950 0.045870 -0.502477

loop_
_geom_bond_atom_site_label_1
_geom_bond_atom_site_label_2
_ccdc_geom_bond_type
C87   C88   A    
C13   C79   A    
C34   C56   S    
C93   C94   A    
C14   C122  A    
C79   H58   S    
C18   C21   A    
C37   O3    A    
C62   C77   S    
C95   C96   A    
C2    H61   S    
C80   H9    S    
C7    H40   S    
C1    C99   S    
C96   H11   S    
C81   C82   A    
C90   C101  A    
Cr1   O22   S    
C49   H69   S    
C53   C54   A    
C42   H39   S    
C101  C112  A    
C89   H17   S    
Cr1   O17   S    
C68   H54   S    
C26   C27   S    
C42   C48   A    
Cr6   O2    S    
Cr5   O8    S    
C26   H74   S    
C1    O13   A    
C23   H53   S    
C34   O25   A    
C109  C111  A    
C13   C46   S    
C95   C99   A    
C22   C41   S    
C52   H34   S    
C28   C40   A    
C115  C116  A    
C86   C120  S    
C98   O17   A    
C29   C33   A    
C50   O15   A    
Cr5   O25   S    
C82   C92   S    
C108  C109  A    
Cr1   O1    S    
C18   C19   A    
C61   C63   A    
C2    C13   A    
C111  H31   S    
C118  C119  A    
C79   C90   A    
C25   H59   S    
C24   C29   A    
C59   H76   S    
C45   H63   S    
C81   H16   S    
Cr4   O23   S    
C28   C35   A    
C10   C20   S    
C8    C9    A    
C49   C51   A    
C39   O8    A    
C107  C108  A    
Cr2   O19   S    
C93   H19   S    
Cr6   O3    S    
C64   C70   A    
C38   O7    A    
C89   C91   A    
C4    H44   S    
C9    C10   A    
C62   O1    A    
C51   C55   A    
C14   H51   S    
C52   C55   A    
Cr6   O9    S    
C91   H18   S    
C98   O21   A    
C41   O5    A    
C51   H12   S    
C16   H48   S    
C45   C47   A    
C66   C67   A    
C65   H67   S    
C84   H10   S    
C59   C60   A    
C2    C112  A    
C73   C75   A    
C9    H42   S    
C102  C103  A    
C27   H70   S    
C86   O20   A    
C7    C121  A    
Cr3   O21   S    
C35   C48   S    
C104  C105  A    
C107  H29   S    
C85   C92   A    
C85   C87   A    
C94   H20   S    
Cr1   O18   S    
Cr2   O14   S    
C56   C63   A    
C39   O9    A    
C47   C48   A    
C47   H68   S    
C26   H73   S    
C27   H71   S    
C43   H27   S    
Cr4   O6    S    
C117  C120  A    
C117  H37   S    
C14   C35   A    
C16   C17   A    
C40   C110  A    
C58   C59   A    
C74   O19   A    
C50   O14   A    
Cr5   O26   S    
C38   O6    A    
C109  C119  S    
C116  C120  A    
C57   H65   S    
C60   C61   A    
C67   C69   A    
C62   O16   A    
C115  H33   S    
C34   O24   A    
C75   C76   A    
C24   C32   A    
C107  C114  A    
C112  H60   S    
C72   C77   A    
C44   C54   S    
C30   H66   S    
C72   H6    S    
C83   C84   A    
C108  H28   S    
C12   C15   A    
C60   C70   S    
C30   C31   A    
C16   C20   A    
C106  H25   S    
C66   C76   S    
C96   C97   A    
C100  C102  A    
C26   C75   S    
C3    C4    A    
C29   H64   S    
C111  C113  A    
C95   H22   S    
C36   O2    A    
C52   C53   A    
C87   H13   S    
C22   C68   A    
C12   H47   S    
C104  C114  S    
Cr3   O15   S    
Cr5   O7    S    
C40   H3    S    
C65   C66   A    
C116  H35   S    
C115  C119  A    
C10   C11   A    
C46   C57   A    
C36   C110  S    
C58   H45   S    
C42   C43   A    
C57   C68   A    
Cr3   O22   S    
C93   C97   A    
C71   C76   A    
C91   C92   A    
C44   C45   A    
C1    O4    A    
C113  C114  A    
Cr2   O12   S    
Cr3   O20   S    
C17   H49   S    
Cr2   O13   S    
C11   H46   S    
C63   H56   S    
C122  H1    S    
C30   C33   A    
C31   H55   S    
C22   C23   A    
C64   H75   S    
C31   C32   A    
Cr4   O24   S    
C27   H72   S    
C19   H41   S    
C80   C81   A    
Cr4   O5    S    
C85   H14   S    
C71   H5    S    
C73   H8    S    
Cr2   O22   S    
C11   C12   A    
C8    H43   S    
C103  H30   S    
C41   O10   A    
C6    C7    A    
C90   H57   S    
C105  H36   S    
C8    C15   A    
C105  C106  A    
C74   O18   A    
C100  C106  A    
C50   C55   S    
C64   C65   A    
C19   C20   A    
C88   C97   S    
C71   C72   A    
C117  C118  A    
C110  C122  A    
C21   C98   S    
Cr5   O11   S    
C39   C100  S    
C5    C6    A    
C94   C99   A    
C43   C44   A    
C69   H4    S    
C56   C58   A    
Cr1   O4    S    
C118  H26   S    
C78   C80   A    
C23   C25   A    
C113  H32   S    
C69   C70   A    
C86   O12   A    
C5    C15   S    
C38   C121  S    
Cr4   O11   S    
Cr6   O11   S    
C18   H52   S    
C3    C121  A    
C67   H2    S    
Cr3   O16   S    
C78   C84   A    
C33   C74   S    
C4    C5    A    
C88   C89   A    
C28   H23   S    
C36   O26   A    
C82   C83   A    
C102  H24   S    
C103  C104  A    
C73   C77   A    
C32   C101  S    
C24   H62   S    
C53   H15   S    
C37   C78   S    
C37   O23   A    
C25   C46   A    
C61   H7    S    
C6    H50   S    
C49   C54   A    
C3    H38   S    
Cr6   O10   S    
C83   H21   S    
C17   C21   A    
