data_mof_unit_30453.cif
_audit_creation_date              2012-12-10T19:46:56-0500
_audit_creation_method            fapswitch 2.2
_symmetry_space_group_name_H-M    P1
_symmetry_Int_Tables_number       1
_space_group_crystal_system       triclinic
_cell_length_a                    10.939826
_cell_length_b                    10.890258
_cell_length_c                    13.146732
_cell_angle_alpha                 90.558515
_cell_angle_beta                  91.86738
_cell_angle_gamma                 89.816909
_cell_volume                      1565.35648342

loop_
_atom_site_label
_atom_site_type_symbol
_atom_type_description
_atom_site_fract_x
_atom_site_fract_y
_atom_site_fract_z
_atom_type_partial_charge
C1    C     C_R   0.506033 0.259740 0.499822 0.825339
C2    C     C_R   0.494722 0.740428 0.500448 0.825975
C3    C     C_R   0.873009 0.501865 0.503738 -0.112471
C4    C     C_R   0.127060 0.499867 0.496131 -0.110506
C5    C     C_R   0.944105 0.504662 0.595041 0.027596
C6    C     C_R   0.055966 0.499061 0.404740 0.021840
C7    C     C_R   0.657451 0.150346 0.157396 -0.103736
C8    C     C_R   0.434119 0.834450 0.857476 -0.150753
C9    C     C_R   0.586281 0.102565 0.233942 -0.165690
C10   C     C_R   0.473680 0.893953 0.770908 -0.124381
C11   C     C_R   0.623932 0.116240 0.336509 0.122273
C12   C     C_R   0.406861 0.882883 0.678243 0.114402
C13   C     C_R   0.733682 0.177996 0.361417 -0.122445
C14   C     C_R   0.298432 0.813894 0.673833 -0.126873
C15   C     C_R   0.805098 0.224484 0.284583 -0.140582
C16   C     C_R   0.259120 0.754650 0.760774 -0.085501
C17   C     C_R   0.767171 0.210491 0.182729 -0.031259
C18   C     C_R   0.327391 0.764391 0.852218 -0.064732
C19   C     C_R   0.542562 0.932595 0.418040 -0.222811
C20   C     C_R   0.459323 0.067982 0.583477 -0.217492
C21   C     C_R   0.494201 0.873110 0.501485 -0.094196
C22   C     C_R   0.507147 0.127265 0.499760 -0.098585
C23   C     C_R   0.259458 0.499400 0.498283 0.825800
C24   C     C_R   0.740557 0.501074 0.501686 0.827492
C25   C     C_R   0.453311 0.941005 0.585883 -0.004108
C26   C     C_R   0.553204 0.059413 0.417684 0.002262
C27   C     C_1   0.499438 0.499915 0.173615 0.188172
C28   C     C_1   0.499708 0.499876 0.826352 0.197507
C29   C     C_1   0.498854 0.499849 0.050644 0.016475
C30   C     C_1   0.499211 0.499848 0.949280 0.016664
C31   C     C_R   0.120760 0.594165 0.137362 0.299217
C32   C     C_R   0.819800 0.399158 0.843566 0.272292
C33   C     C_R   0.095267 0.600764 0.240763 -0.204597
C34   C     C_R   0.850391 0.400420 0.741101 -0.167265
C35   C     C_R   0.106502 0.496434 0.301968 0.077862
C36   C     C_R   0.893013 0.508344 0.697456 0.078829
C37   C     C_R   0.146969 0.385549 0.259545 -0.184002
C38   C     C_R   0.901929 0.616166 0.756252 -0.209883
C39   C     C_R   0.172730 0.378578 0.156174 -0.205895
C40   C     C_R   0.871560 0.615205 0.858513 -0.150845
C41   C     C_R   0.157482 0.481784 0.094241 0.299598
C42   C     C_R   0.833275 0.506515 0.903317 0.308252
C43   C     C_R   0.929747 0.500915 0.409951 -0.239999
C44   C     C_R   0.070296 0.503318 0.589953 -0.229588
Cu1   Cu    Cu3+1 0.499990 0.499990 0.592680 0.995575
Cu2   Cu    Cu3+1 0.500010 0.500010 0.407320 0.995159
H1    H     H_    0.764928 0.188015 0.440098 0.108600
H2    H     H_    0.245792 0.804561 0.602970 0.108940
H3    H     H_    0.890682 0.269805 0.303851 0.141629
H4    H     H_    0.176388 0.700445 0.757175 0.151156
H5    H     H_    0.578773 0.879637 0.355440 0.164294
H6    H     H_    0.425472 0.120796 0.647119 0.171860
H7    H     H_    0.061888 0.686108 0.272727 0.172051
H8    H     H_    0.844335 0.316595 0.696169 0.158098
H9    H     H_    0.153710 0.303631 0.305487 0.146005
H10   H     H_    0.935999 0.699858 0.723662 0.153685
H11   H     H_    0.200742 0.291731 0.123509 0.184288
H12   H     H_    0.881116 0.698409 0.903664 0.212830
H13   H     H_    0.875430 0.500467 0.339374 0.192279
H14   H     H_    0.124484 0.504261 0.660566 0.186332
H15   H     H_    0.823617 0.245295 0.123611 0.209291
H16   H     H_    0.298465 0.716856 0.918923 0.197517
H17   H     H_    0.628110 0.139370 0.078472 0.181751
H18   H     H_    0.486787 0.841673 0.928411 0.149790
H19   H     H_    0.502348 0.054568 0.213427 0.139952
H20   H     H_    0.557509 0.946691 0.775499 0.153943
N1    N     N_1   0.500030 0.500030 0.268070 -0.134024
N2    N     N_1   0.499970 0.499970 0.731930 -0.132604
O1    O     O_R   0.499980 0.319630 0.578260 -0.577852
O2    O     O_R   0.500020 0.680370 0.421740 -0.582865
O3    O     O_R   0.500000 0.319650 0.421740 -0.571461
O4    O     O_R   0.500000 0.680350 0.578260 -0.571410
O5    O     O_R   0.319630 0.500000 0.578260 -0.581088
O6    O     O_R   0.680370 0.500000 0.421740 -0.575053
O7    O     O_R   0.319650 0.500020 0.421740 -0.574798
O8    O     O_R   0.680350 0.499980 0.578260 -0.578312
Br1   Br    Br    0.179360 0.463388 0.950873 -0.547113
Br2   Br    Br    0.808414 0.507431 0.046793 -0.539866
Br3   Br    Br    0.096878 0.738955 0.057651 -0.532151
Br4   Br    Br    0.763412 0.248411 0.898527 -0.556080

loop_
_geom_bond_atom_site_label_1
_geom_bond_atom_site_label_2
_ccdc_geom_bond_type
C27   C29   S    
C39   C41   A    
Cu1   Cu2   S    
C3    C43   A    
C1    O3    A    
Cu1   O8    S    
C28   N2    T    
C23   O5    A    
C41   Br1   S    
C20   C25   A    
C39   H11   S    
C5    C36   S    
C6    C35   S    
Cu1   O5    S    
C19   C26   A    
C17   H15   S    
C7    C17   A    
C31   C33   A    
C43   H13   S    
C40   C42   A    
C1    C22   S    
Cu1   O4    S    
C3    C24   S    
C2    C21   S    
C2    O4    A    
C15   C17   A    
Cu2   O7    S    
C9    H19   S    
C10   H20   S    
C33   H7    S    
C40   H12   S    
Cu1   O1    S    
C4    C6    A    
C23   O7    A    
C13   H1    S    
C4    C23   S    
C24   O8    A    
C14   H2    S    
C4    C44   A    
C11   C26   S    
C8    C18   A    
C32   C34   A    
C29   C30   T    
C32   Br4   S    
Cu1   N2    S    
C16   C18   A    
C9    C11   A    
C7    H17   S    
Cu2   O3    S    
C10   C12   A    
C8    H18   S    
C8    C10   A    
C5    C44   A    
C20   C22   A    
C34   H8    S    
C6    C43   A    
C13   C15   A    
C14   C16   A    
Cu2   O6    S    
C35   C37   A    
C42   Br2   S    
C7    C9    A    
C21   C25   A    
C31   C41   A    
C19   C21   A    
C18   H16   S    
C16   H4    S    
C3    C5    A    
C31   Br3   S    
C12   C25   S    
C36   C38   A    
C12   C14   A    
Cu2   N1    S    
C37   C39   A    
C38   C40   A    
C11   C13   A    
C24   O6    A    
C44   H14   S    
C28   C30   S    
C33   C35   A    
C34   C36   A    
C15   H3    S    
C1    O1    A    
Cu2   O2    S    
C27   N1    T    
C37   H9    S    
C19   H5    S    
C38   H10   S    
C20   H6    S    
C22   C26   A    
C32   C42   A    
C2    O2    A    
