data_mof_unit_67468.cif
_audit_creation_date              2013-03-05T15:40:59-0500
_audit_creation_method            fapswitch 2.2
_symmetry_space_group_name_H-M    P1
_symmetry_Int_Tables_number       1
_space_group_crystal_system       triclinic
_cell_length_a                    10.826931
_cell_length_b                    8.710572
_cell_length_c                    7.557287
_cell_angle_alpha                 102.353417
_cell_angle_beta                  95.621981
_cell_angle_gamma                 94.549146
_cell_volume                      689.172030194

loop_
_atom_site_label
_atom_site_type_symbol
_atom_site_description
_atom_site_fract_x
_atom_site_fract_y
_atom_site_fract_z
_atom_type_partial_charge
O1    O     O_R   0.509140 0.286130 0.619770 -0.606322
O2    O     O_R   0.485380 0.256770 0.308360 -0.620399
C1    C     C_R   0.494707 0.200617 0.455048 0.772750
O3    O     O_R   0.329570 0.514650 0.655700 -0.559606
O4    O     O_R   0.305810 0.485300 0.344290 -0.528176
C2    C     C_R   0.260656 0.499282 0.500609 0.845723
Cu1   Cu    Cu3+1 0.514070 0.517380 0.684380 0.976062
Cu2   Cu    Cu3+1 0.485930 0.482620 0.315620 0.965763
O5    O     O_R   0.514620 0.743230 0.691640 -0.607485
O6    O     O_R   0.490860 0.713870 0.380230 -0.566602
O7    O     O_R   0.694190 0.514700 0.655710 -0.512290
O8    O     O_R   0.670430 0.485350 0.344300 -0.644400
C3    C     C_R   0.509625 0.799376 0.545012 0.875583
C4    C     C_R   0.738772 0.492414 0.498703 0.935524
C5    C     C_3   0.080398 0.468042 0.687193 0.025103
H1    H     H_    0.090799 0.343321 0.686539 0.130643
C6    C     C_3   0.939447 0.491094 0.696876 0.666228
C7    C     C_3   0.079420 0.661290 0.466202 0.487898
C8    C     C_3   0.055768 0.352516 0.340505 0.371693
C9    C     C_3   0.122653 0.497252 0.500224 -0.177312
C10   C     C_3   0.876856 0.489643 0.497769 -0.118514
C11   C     C_3   0.932331 0.642066 0.436706 -0.109818
C12   C     C_3   0.908925 0.332778 0.360342 0.312882
H2    H     H_    0.904137 0.620502 0.287932 0.169086
C13   C     C_2   0.475015 0.032721 0.437985 0.203477
C14   C     C_2   0.536537 0.965988 0.561769 -0.056568
N1    N     N_2   0.464720 0.456420 0.038520 -0.040179
N2    N     N_2   0.535280 0.543580 0.961480 -0.060207
O9    O     O_3   0.157487 0.545856 0.848464 -0.663521
H3    H     H_    0.144760 0.658263 0.882267 0.374352
C15   C     C_3   0.830015 0.294492 0.169575 -0.670562
H4    H     H_    0.734614 0.240431 0.176588 0.256479
H5    H     H_    0.819323 0.398639 0.109670 0.194992
H6    H     H_    0.871459 0.203292 0.073459 0.233565
O10   O     O_3   0.120155 0.693221 0.304178 -0.721581
H7    H     H_    0.210879 0.727602 0.325117 0.389801
O11   O     O_3   0.383481 0.943601 0.306649 -0.763174
H8    H     H_    0.348854 0.010759 0.227591 0.322215
C16   C     C_3   0.649948 0.047298 0.692594 -0.877269
H9    H     H_    0.698787 0.961860 0.756436 0.225937
H10   H     H_    0.717139 0.102045 0.617284 0.300382
H11   H     H_    0.625837 0.138417 0.805470 0.264200
C17   C     C_3   0.396984 0.309594 0.936840 -0.280063
H12   H     H_    0.459659 0.215482 0.915293 0.133202
H13   H     H_    0.326462 0.272400 0.020342 0.174759
H14   H     H_    0.343677 0.319439 0.809729 0.199336
C18   C     C_3   0.595522 0.694161 0.063259 -0.327719
H15   H     H_    0.660650 0.741026 0.978495 0.166456
H16   H     H_    0.525631 0.779729 0.091436 0.215435
H17   H     H_    0.654056 0.683714 0.185782 0.174512
O12   O     O_3   0.878133 0.367680 0.760910 -0.753197
H18   H     H_    0.935345 0.339235 0.856006 0.319508
O13   O     O_3   0.924996 0.635610 0.815332 -0.753794
H19   H     H_    0.935587 0.621351 0.942561 0.343319
C19   C     C_3   0.134708 0.806424 0.622030 -0.819517
H20   H     H_    0.082055 0.825608 0.740998 0.247235
H21   H     H_    0.233815 0.797664 0.668354 0.214337
H22   H     H_    0.133089 0.916682 0.570859 0.234015
C20   C     C_3   0.872544 0.797023 0.504811 -0.799458
H23   H     H_    0.771792 0.784005 0.456390 0.205333
H24   H     H_    0.882147 0.836524 0.654796 0.274532
H25   H     H_    0.915668 0.892658 0.447666 0.261984
O14   O     O_3   0.077782 0.382029 0.168675 -0.674778
H26   H     H_    0.023476 0.458929 0.135186 0.351230
C21   C     C_3   0.115624 0.194856 0.338772 -0.730071
H27   H     H_    0.206553 0.199121 0.283270 0.231559
H28   H     H_    0.134840 0.166017 0.473425 0.143694
H29   H     H_    0.055484 0.094310 0.246778 0.256342
O15   O     O_3   0.873824 0.198473 0.428580 -0.737209
H30   H     H_    0.937983 0.181460 0.522078 0.332669

loop_
_geom_bond_atom_site_label_1
_geom_bond_atom_site_label_2
_geom_bond_distance
_ccdc_geom_bond_type
C8    C9    1.613559 S    
O4    Cu2   1.984543 S    
C8    C12   1.610605 S    
C17   H12   1.100811 S    
C15   H5    1.106097 S    
N2    C18   1.439369 S    
C5    O9    1.413830 S    
O9    H3    0.981945 S    
C6    O13   1.409612 S    
C16   H11   1.101168 S    
C2    C9    1.492567 S    
C7    O10   1.415362 S    
C12   O15   1.415974 S    
O10   H7    0.991050 S    
C1    C13   1.437140 S    
Cu2   O8    1.985762 S    
C21   H29   1.111160 S    
C6    O12   1.415211 S    
C19   H20   1.101129 S    
C19   H21   1.109322 S    
O2    C1    1.302407 A    
C15   H6    1.110650 S    
C20   H23   1.105043 S    
C18   H16   1.107524 S    
O1    Cu1   1.963605 S    
O13   H19   0.992381 S    
Cu1   O7    1.984543 S    
C17   H13   1.108523 S    
O11   H8    0.990039 S    
C7    C19   1.564661 S    
O3    Cu1   1.985763 S    
N1    N2    1.297409 D    
O4    C2    1.307840 A    
C4    C10   1.497807 S    
C10   C11   1.589477 S    
C17   H14   1.094403 S    
O8    C4    1.306049 A    
C8    C21   1.562456 S    
C18   H17   1.094311 S    
C7    C9    1.602054 S    
O15   H30   0.984249 S    
C10   C12   1.613979 S    
C5    C9    1.591403 S    
C3    C14   1.433258 S    
O7    C4    1.306556 A    
C11   H2    1.107195 S    
C14   C16   1.520333 S    
C20   H24   1.103781 S    
O3    C2    1.301554 A    
C21   H28   1.103680 S    
C5    C6    1.561658 S    
C5    H1    1.100074 S    
C16   H9    1.110098 S    
C18   H15   1.108574 S    
N1    C17   1.443706 S    
Cu1   Cu2   2.721921 S    
C16   H10   1.105793 S    
Cu2   O6    1.963605 S    
C21   H27   1.108285 S    
C19   H22   1.110182 S    
O2    Cu2   1.955797 S    
C11   C20   1.553193 S    
Cu1   O5    1.955797 S    
Cu2   N1    2.045274 S    
O5    C3    1.301672 A    
C20   H25   1.109137 S    
C13   O11   1.387613 S    
C13   C14   1.352279 D    
C7    C11   1.576707 S    
C15   H4    1.111610 S    
C6    C10   1.585640 S    
Cu1   N2    2.045274 S    
O12   H18   0.987368 S    
C8    O14   1.415252 S    
O14   H26   0.981990 S    
O1    C1    1.294434 A    
O6    C3    1.294743 A    
C12   C15   1.557992 S    
