data_mof_unit_39749.cif
_audit_creation_date              2012-12-10T17:34:57-0500
_audit_creation_method            fapswitch 2.2
_symmetry_space_group_name_H-M    P1
_symmetry_Int_Tables_number       1
_space_group_crystal_system       triclinic
_cell_length_a                    12.332905
_cell_length_b                    13.177739
_cell_length_c                    13.866673
_cell_angle_alpha                 105.173635
_cell_angle_beta                  73.941574
_cell_angle_gamma                 116.474651
_cell_volume                      1913.29680927

loop_
_atom_site_label
_atom_site_type_symbol
_atom_type_description
_atom_site_fract_x
_atom_site_fract_y
_atom_site_fract_z
_atom_type_partial_charge
C1    C     C_R   0.144538 0.713819 0.509862 0.781507
C2    C     C_1   0.975184 0.506566 0.791569 -0.138942
C3    C     C_R   0.737874 0.965275 0.392997 -0.248134
C4    C     C_R   0.776035 0.162954 0.469435 -0.063880
C5    C     C_R   0.180413 0.913403 0.591470 -0.272278
C6    C     C_R   0.259570 0.017707 0.636343 -0.168298
C7    C     C_R   0.386792 0.047942 0.615049 0.342471
C8    C     C_R   0.437750 0.982021 0.531060 -0.060130
C9    C     C_R   0.355700 0.874186 0.486727 0.049756
C10   C     C_R   0.566008 0.016326 0.490052 0.070319
C11   C     C_R   0.611026 0.935681 0.424425 0.133145
C12   C     C_R   0.984294 0.504161 0.686369 0.826648
C13   C     C_R   0.529116 0.830243 0.383542 -0.214045
C14   C     C_R   0.404120 0.804579 0.407639 -0.164604
C15   C     C_R   0.649050 0.130938 0.502671 -0.192801
C16   C     C_R   0.821394 0.078134 0.417485 0.150945
C17   C     C_R   0.227084 0.836711 0.524053 -0.099139
C18   C     C_R   0.641152 0.677029 0.659268 -0.284194
C19   C     C_R   0.251765 0.351182 0.364290 0.097833
C20   C     C_R   0.350406 0.318313 0.334684 -0.247002
C21   C     C_R   0.449575 0.374408 0.385714 -0.184222
C22   C     C_R   0.451204 0.464629 0.467628 -0.002688
C23   C     C_R   0.856383 0.285947 0.484736 0.839655
C24   C     C_R   0.347498 0.494962 0.495561 0.284672
C25   C     C_R   0.551148 0.525574 0.522899 -0.028158
C26   C     C_R   0.545331 0.615577 0.603996 0.172125
C27   C     C_R   0.443669 0.643524 0.630065 -0.267219
C28   C     C_R   0.346712 0.584055 0.577690 -0.169744
C29   C     C_R   0.657395 0.501605 0.501760 0.058713
C30   C     C_R   0.742635 0.649164 0.634690 0.094504
C31   C     C_R   0.015723 0.495845 0.313620 0.801938
C32   C     C_1   0.025008 0.493595 0.208409 -0.165647
C33   C     C_2   0.041103 0.489791 0.014330 -0.155524
C34   C     C_2   0.959361 0.510598 0.985635 -0.154340
C35   C     C_1   0.967390 0.508581 0.880193 0.029497
C36   C     C_1   0.032965 0.491701 0.119775 0.013523
Cu1   Cu    Cu3+1 0.899780 0.525060 0.522890 0.966062
Cu2   Cu    Cu3+1 0.100220 0.474940 0.477110 0.944528
H1    H     H_    0.886104 0.529149 0.041060 0.161010
H2    H     H_    0.346233 0.728931 0.363395 0.168773
H3    H     H_    0.816985 0.696320 0.677023 0.121230
H4    H     H_    0.438446 0.711933 0.692365 0.155110
H5    H     H_    0.637436 0.746082 0.721253 0.141625
H6    H     H_    0.669623 0.434761 0.441567 0.115224
H7    H     H_    0.175376 0.307309 0.324066 0.145312
H8    H     H_    0.523457 0.345472 0.359455 0.137427
H9    H     H_    0.350049 0.249168 0.271873 0.155736
H10   H     H_    0.272525 0.610918 0.604944 0.204178
H11   H     H_    0.114357 0.471229 0.958906 0.167756
H12   H     H_    0.562194 0.770930 0.327238 0.145217
H13   H     H_    0.772181 0.901985 0.346069 0.140226
H14   H     H_    0.614341 0.196781 0.534012 0.216496
H15   H     H_    0.082125 0.887754 0.618510 0.173215
H16   H     H_    0.219908 0.069513 0.696376 0.189654
N1    N     N_R   0.748810 0.563010 0.557590 -0.178913
N2    N     N_R   0.250540 0.437620 0.443020 -0.209440
O1    O     O_R   0.025040 0.682470 0.528790 -0.585938
O2    O     O_R   0.194310 0.640150 0.490130 -0.608754
O3    O     O_R   0.903380 0.524130 0.659910 -0.555463
O4    O     O_R   0.072660 0.481800 0.621240 -0.594681
O5    O     O_R   0.805690 0.359850 0.509870 -0.580790
O6    O     O_R   0.974960 0.317530 0.471210 -0.550194
O7    O     O_R   0.927340 0.518200 0.378760 -0.583688
O8    O     O_R   0.096620 0.475870 0.340090 -0.585996
N3    N     N_3   0.950803 0.106974 0.383094 -0.578127
H17   H     H_    0.967179 0.084777 0.303926 0.208087
H18   H     H_    0.974988 0.056918 0.413543 0.225529
S1    S     S_3+6 0.467524 0.148599 0.711675 -0.010738
O9    O     O_2   0.507287 0.268663 0.693243 -0.269848
O10   O     O_2   0.383164 0.135542 0.813517 -0.283391
O11   O     O_3   0.591563 0.128369 0.715504 -0.513061
H19   H     H_    0.558723 0.047560 0.725788 0.340364

loop_
_geom_bond_atom_site_label_1
_geom_bond_atom_site_label_2
_ccdc_geom_bond_type
C2    C35   T    
C4    C16   A    
Cu1   O5    S    
C9    C14   A    
C19   H7    S    
C30   H3    S    
C6    C7    A    
C18   C30   A    
C1    O1    A    
C24   N2    A    
C24   C28   A    
C30   N1    A    
C1    C17   S    
C19   C20   A    
C18   C26   A    
C19   N2    A    
C23   O5    A    
C2    C12   S    
C4    C15   A    
C33   C34   D    
C18   H5    S    
Cu2   N2    S    
O11   H19   S    
C31   C32   S    
C15   H14   S    
C11   C13   A    
C27   H4    S    
C26   C27   A    
Cu1   O3    S    
C1    O2    A    
C6    H16   S    
S1    O11   S    
Cu2   O4    S    
C32   C36   T    
C21   C22   A    
C7    S1    S    
Cu1   O7    S    
Cu1   Cu2   S    
C34   C35   S    
Cu2   O8    S    
C10   C15   A    
N3    H17   S    
C29   H6    S    
C25   C29   A    
C5    C6    A    
C22   C24   A    
C20   H9    S    
C3    C11   A    
C10   C11   A    
C33   H11   S    
C13   H12   S    
C12   O4    A    
C31   O7    A    
C7    C8    A    
C33   C36   S    
C5    C17   A    
C20   C21   A    
C8    C9    A    
C8    C10   A    
C21   H8    S    
C9    C17   A    
C27   C28   A    
C4    C23   S    
S1    O10   D    
C3    H13   S    
C28   H10   S    
C5    H15   S    
C16   N3    S    
C29   N1    A    
C13   C14   A    
Cu2   O6    S    
C25   C26   A    
Cu2   O2    S    
C12   O3    A    
C14   H2    S    
C31   O8    A    
C23   O6    A    
Cu1   O1    S    
C3    C16   A    
C34   H1    S    
S1    O9    D    
N3    H18   S    
C22   C25   A    
Cu1   N1    S    
