data_mof_unit_21402.cif
_audit_creation_date              2013-03-05T16:35:50-0500
_audit_creation_method            fapswitch 2.2
_symmetry_space_group_name_H-M    P1
_symmetry_Int_Tables_number       1
_space_group_crystal_system       monoclinic
_cell_length_a                    23.534012
_cell_length_b                    9.085025
_cell_length_c                    7.776747
_cell_angle_alpha                 89.912066
_cell_angle_beta                  90.0
_cell_angle_gamma                 90.0
_cell_volume                      1662.72166708

loop_
_atom_site_label
_atom_site_type_symbol
_atom_site_description
_atom_site_fract_x
_atom_site_fract_y
_atom_site_fract_z
_atom_type_partial_charge
O1    O     O_R   0.500000 0.288390 0.642760 -0.576281
O2    O     O_R   0.500000 0.711610 0.357240 -0.576281
O3    O     O_R   0.500000 0.711610 0.642760 -0.568097
O4    O     O_R   0.500000 0.288390 0.357240 -0.568097
H1    H     H_    0.948347 0.362938 0.904855 0.198190
H2    H     H_    0.051634 0.637096 0.095165 0.198201
H3    H     H_    0.948347 0.637057 0.095146 0.198190
H4    H     H_    0.051634 0.362898 0.904837 0.198201
C1    C     C_R   0.500000 0.219995 0.500074 0.850147
C2    C     C_R   0.500000 0.780005 0.499925 0.850147
O5    O     O_R   0.417880 0.500000 0.642820 -0.574054
O6    O     O_R   0.582120 0.500000 0.357180 -0.574057
O7    O     O_R   0.582120 0.500000 0.642820 -0.574057
O8    O     O_R   0.417880 0.500000 0.357180 -0.574053
C3    C     C_R   0.208908 0.499997 0.500002 0.245914
C4    C     C_R   0.791078 0.499998 0.500000 0.245986
C5    C     C_R   0.390852 0.500000 0.500000 0.801798
C6    C     C_R   0.609145 0.500000 0.500000 0.801928
Cu1   Cu    Cu3+1 0.500000 0.500000 0.669080 1.047715
Cu2   Cu    Cu3+1 0.500000 0.500000 0.330920 1.047715
C7    C     C_R   0.298382 0.612009 0.587300 -0.109799
C8    C     C_R   0.701605 0.387651 0.413295 -0.109746
C9    C     C_R   0.298382 0.387989 0.412701 -0.109800
C10   C     C_R   0.701606 0.612347 0.586705 -0.109746
C11   C     C_R   0.328331 0.499999 0.500000 -0.122815
C12   C     C_R   0.671660 0.499999 0.500000 -0.122722
C13   C     C_R   0.880545 0.549403 0.357407 0.555974
C14   C     C_R   0.119436 0.450523 0.642562 0.555912
C15   C     C_R   0.880545 0.450592 0.642594 0.555974
C16   C     C_R   0.119436 0.549472 0.357440 0.555912
N1    N     N_R   0.852175 0.499998 0.500001 -0.472034
N2    N     N_R   0.147808 0.499997 0.500001 -0.472015
C17   C     C_R   0.940117 0.450196 0.645917 -0.016469
C18   C     C_R   0.059863 0.549828 0.354100 -0.016461
C19   C     C_R   0.940117 0.549798 0.354084 -0.016469
C20   C     C_R   0.059863 0.450166 0.645902 -0.016461
C21   C     C_R   0.970017 0.499997 0.500001 -0.012264
C22   C     C_R   0.029963 0.499997 0.500001 -0.012280
C23   C     C_R   0.970352 0.401272 0.790928 -0.163375
C24   C     C_R   0.029629 0.598746 0.209085 -0.163348
C25   C     C_R   0.970352 0.598723 0.209074 -0.163375
C26   C     C_R   0.029628 0.401249 0.790917 -0.163347
C27   C     C_1   0.500000 0.065380 0.500103 -0.128104
C28   C     C_1   0.500000 0.934619 0.499897 -0.128104
C29   C     C_R   0.238634 0.612084 0.586372 -0.031961
C30   C     C_R   0.761354 0.387581 0.414218 -0.031868
C31   C     C_R   0.238634 0.387912 0.413631 -0.031961
C32   C     C_R   0.761354 0.612416 0.585783 -0.031868
N3    N     N_1   0.500000 0.500000 0.076820 -0.031256
N4    N     N_1   0.500000 0.500000 0.923180 -0.031256
O9    O     O_2   0.851105 0.598036 0.219659 -0.504364
O10   O     O_2   0.148873 0.401787 0.780265 -0.504447
O11   O     O_2   0.851105 0.401960 0.780342 -0.504364
O12   O     O_2   0.148874 0.598208 0.219737 -0.504447
C33   C     C_1   0.207253 0.727815 0.672344 0.319523
N5    N     N_1   0.182133 0.820142 0.740996 -0.221524
C34   C     C_1   0.792736 0.271530 0.328846 0.319447
N6    N     N_1   0.817858 0.178942 0.260677 -0.221717
C35   C     C_1   0.207254 0.272179 0.327660 0.319523
N7    N     N_1   0.182134 0.179851 0.259008 -0.221524
C36   C     C_1   0.792736 0.728467 0.671155 0.319447
N8    N     N_1   0.817859 0.821053 0.739324 -0.221717
C37   C     C_1   0.328919 0.729497 0.673421 0.277269
N9    N     N_1   0.353300 0.823213 0.741983 -0.246614
C38   C     C_1   0.671063 0.269839 0.327800 0.277200
N10   N     N_1   0.646678 0.175862 0.259740 -0.246786
C39   C     C_1   0.328920 0.270502 0.326578 0.277269
N11   N     N_1   0.353300 0.176788 0.258013 -0.246613
C40   C     C_1   0.671064 0.730160 0.672200 0.277200
N12   N     N_1   0.646679 0.824137 0.740259 -0.246786

loop_
_geom_bond_atom_site_label_1
_geom_bond_atom_site_label_2
_geom_bond_distance
_ccdc_geom_bond_type
C13   N1    1.369452 A    
C33   N5    1.157365 T    
C8    C38   1.451375 S    
O3    Cu1   1.933035 S    
C21   C22   1.410782 A    
O8    Cu2   1.943375 S    
C14   O10   1.349565 S    
H2    C24   1.083281 S    
C20   C26   1.405016 A    
Cu1   Cu2   2.629786 S    
C6    C12   1.471238 S    
C2    C28   1.404676 S    
C3    C31   1.406981 A    
C27   C28   1.187971 T    
C14   C20   1.402227 A    
C5    C11   1.471363 S    
C13   C19   1.402220 A    
C4    C32   1.406956 A    
C20   C22   1.409226 A    
C34   N6    1.157370 T    
C35   N7    1.157367 T    
C15   N1    1.369452 A    
O3    C2    1.271940 A    
C17   C23   1.405012 A    
C4    N1    1.437860 S    
C16   N2    1.369477 A    
C16   O12   1.349565 S    
O8    C5    1.279920 A    
O6    Cu2   1.943373 S    
C32   C36   1.449134 S    
Cu2   N3    1.976071 S    
C15   O11   1.349564 S    
O7    C6    1.279882 A    
C9    C39   1.451389 S    
C18   C24   1.405016 A    
C14   N2    1.369476 A    
C24   C25   1.395014 A    
C8    C30   1.406138 A    
H4    C26   1.083280 S    
C10   C40   1.451377 S    
N3    N4    1.194820 T    
C23   C26   1.395014 A    
C7    C29   1.406136 A    
H1    C23   1.083281 S    
C30   C34   1.449135 S    
C40   N12   1.157499 T    
C19   C25   1.405012 A    
Cu1   N4    1.976071 S    
C1    C27   1.404676 S    
C9    C31   1.406136 A    
C36   N8    1.157370 T    
C16   C18   1.402227 A    
C4    C30   1.406957 A    
C39   N11   1.157494 T    
O4    Cu2   1.933036 S    
C15   C17   1.402220 A    
C3    N2    1.437921 S    
C9    C11   1.412569 A    
O1    C1    1.272592 A    
C29   C33   1.449151 S    
C17   C21   1.409230 A    
C38   N10   1.157499 T    
C8    C12   1.412523 A    
O6    C6    1.279882 A    
O2    Cu2   1.933660 S    
O7    Cu1   1.943373 S    
O5    Cu1   1.943375 S    
C7    C11   1.412569 A    
C7    C37   1.451390 S    
C19   C21   1.409231 A    
O4    C1    1.271940 A    
C18   C22   1.409227 A    
O1    Cu1   1.933661 S    
C31   C35   1.449151 S    
O2    C2    1.272592 A    
O5    C5    1.279919 A    
C37   N9    1.157495 T    
H3    C25   1.083280 S    
C13   O9    1.349563 S    
C10   C12   1.412523 A    
C3    C29   1.406980 A    
C10   C32   1.406138 A    
