data_mof_unit_48140.cif
_audit_creation_date              2012-12-10T16:57:03-0500
_audit_creation_method            fapswitch 2.2
_symmetry_space_group_name_H-M    P1
_symmetry_Int_Tables_number       1
_space_group_crystal_system       triclinic
_cell_length_a                    7.770463
_cell_length_b                    8.57732
_cell_length_c                    16.695516
_cell_angle_alpha                 91.898586
_cell_angle_beta                  80.539015
_cell_angle_gamma                 93.812787
_cell_volume                      1094.90796592

loop_
_atom_site_label
_atom_site_type_symbol
_atom_type_description
_atom_site_fract_x
_atom_site_fract_y
_atom_site_fract_z
_atom_type_partial_charge
C1    C     C_R   0.546243 0.794828 0.498001 0.974630
C2    C     C_R   0.390389 0.517054 0.221957 -0.197877
C3    C     C_R   0.540294 0.269035 0.833033 -0.151714
C4    C     C_R   0.396892 0.493260 0.139159 -0.142027
C5    C     C_R   0.407457 0.322994 0.892116 0.141532
C6    C     C_R   0.546331 0.435471 0.092138 0.149693
C7    C     C_R   0.288317 0.424579 0.871869 -0.150620
C8    C     C_R   0.693097 0.409877 0.127081 -0.158666
C9    C     C_R   0.310388 0.481820 0.793760 -0.188738
C10   C     C_R   0.687345 0.434802 0.209915 -0.189718
C11   C     C_2   0.425442 0.314022 0.977045 -0.102096
C12   C     C_R   0.453741 0.205178 0.502128 0.967430
C13   C     C_2   0.550503 0.407817 0.005458 -0.094065
C14   C     C_1   0.683706 0.498699 0.951877 0.185364
C15   C     C_1   0.294891 0.219433 0.029527 0.167049
C16   C     C_2   0.570575 0.958341 0.496928 -0.384263
C17   C     C_2   0.429381 0.041695 0.503453 -0.377406
C18   C     C_R   0.475678 0.493053 0.653921 0.854650
C19   C     C_R   0.522785 0.497484 0.345567 0.863040
C20   C     C_R   0.453197 0.439064 0.736529 -0.030705
C21   C     C_R   0.534589 0.485599 0.257910 -0.037424
C22   C     C_R   0.564524 0.328503 0.755636 -0.185295
H1    H     H_    0.671233 0.289138 0.711019 0.158836
H2    H     H_    0.296120 0.990460 0.509693 0.180142
H3    H     H_    0.022934 0.380374 0.439432 0.190455
H4    H     H_    0.977073 0.619653 0.560550 0.193173
H5    H     H_    0.272269 0.558232 0.257780 0.158251
H6    H     H_    0.800508 0.410420 0.236520 0.160006
H7    H     H_    0.220411 0.563430 0.778923 0.158813
H8    H     H_    0.186902 0.468311 0.917957 0.142322
H9    H     H_    0.810076 0.367906 0.090552 0.140804
H10   H     H_    0.284927 0.518198 0.111735 0.135208
H11   H     H_    0.633873 0.192011 0.848914 0.141294
H12   H     H_    0.703831 0.009585 0.490718 0.179908
N1    N     N_2   0.953500 0.457650 0.478520 -0.175930
N2    N     N_2   0.046500 0.542350 0.521480 -0.173265
N3    N     N_1   0.789871 0.571035 0.909280 -0.216987
N4    N     N_1   0.190530 0.143961 0.071407 -0.208884
O1    O     O_R   0.388470 0.738640 0.505270 -0.610100
O2    O     O_R   0.611530 0.261360 0.494730 -0.614378
O3    O     O_R   0.679650 0.711510 0.491500 -0.625469
O4    O     O_R   0.320350 0.288490 0.508500 -0.626921
O5    O     O_R   0.337210 0.515200 0.623500 -0.613910
O6    O     O_R   0.662790 0.484800 0.376500 -0.619660
O7    O     O_R   0.628380 0.488060 0.609730 -0.625606
O8    O     O_R   0.371620 0.511940 0.390270 -0.625977
Zn1   Zn    Zn3+2 0.305580 0.518120 0.509190 0.944966
Zn2   Zn    Zn3+2 0.694420 0.481880 0.490810 0.940134

loop_
_geom_bond_atom_site_label_1
_geom_bond_atom_site_label_2
_ccdc_geom_bond_type
C12   C17   S    
C12   O2    A    
C1    O3    A    
C2    C4    A    
C15   N4    T    
C2    H5    S    
C13   C14   S    
C9    C20   A    
N1    N2    D    
C9    H7    S    
C3    C5    A    
C2    C21   A    
C19   O8    A    
C1    C16   S    
C7    H8    S    
C18   O5    A    
C6    C13   S    
C11   C13   D    
C4    H10   S    
C11   C15   S    
H3    N1    S    
C6    C8    A    
N1    Zn2   S    
H4    N2    S    
C19   C21   S    
O3    Zn2   S    
C20   C22   A    
C5    C11   S    
C18   C20   S    
O4    Zn1   S    
C10   C21   A    
C17   H2    S    
C1    O1    A    
C18   O7    A    
C7    C9    A    
C19   O6    A    
N2    Zn1   S    
C4    C6    A    
O7    Zn2   S    
C10   H6    S    
C5    C7    A    
C3    H11   S    
O8    Zn1   S    
C3    C22   A    
C12   O4    A    
C16   H12   S    
C22   H1    S    
O1    Zn1   S    
O5    Zn1   S    
O2    Zn2   S    
C8    C10   A    
C8    H9    S    
O6    Zn2   S    
C16   C17   D    
C14   N3    T    
