data_mof_unit_57517.cif
_audit_creation_date              2013-03-05T15:47:46-0500
_audit_creation_method            fapswitch 2.2
_symmetry_space_group_name_H-M    P1
_symmetry_Int_Tables_number       1
_space_group_crystal_system       triclinic
_cell_length_a                    10.867347
_cell_length_b                    13.037291
_cell_length_c                    11.7045
_cell_angle_alpha                 99.773633
_cell_angle_beta                  95.457619
_cell_angle_gamma                 92.148883
_cell_volume                      1624.39203556

loop_
_atom_site_label
_atom_site_type_symbol
_atom_site_description
_atom_site_fract_x
_atom_site_fract_y
_atom_site_fract_z
_atom_type_partial_charge
O1    O     O_R   0.506570 0.354460 0.582000 -0.555537
O2    O     O_R   0.493430 0.645540 0.418000 -0.569761
O3    O     O_R   0.490940 0.341410 0.386200 -0.551797
O4    O     O_R   0.509060 0.658590 0.613800 -0.549648
C1    C     C_R   0.500312 0.299458 0.479319 0.869110
C2    C     C_R   0.504241 0.700695 0.521400 0.835296
O5    O     O_R   0.327470 0.506520 0.597900 -0.607137
O6    O     O_R   0.672530 0.493480 0.402100 -0.610163
O7    O     O_R   0.311840 0.493460 0.402100 -0.525676
O8    O     O_R   0.688160 0.506540 0.597900 -0.523916
C3    C     C_R   0.260583 0.496018 0.499172 0.840133
C4    C     C_R   0.735351 0.484592 0.499836 0.811012
Cu1   Cu    Cu3+1 0.509250 0.507730 0.615930 1.012864
Cu2   Cu    Cu3+1 0.490750 0.492270 0.384070 0.994245
C5    C     C_R   0.130568 0.561607 0.710947 -0.278307
C6    C     C_R   0.846795 0.367296 0.296611 -0.364430
C7    C     C_R   0.090705 0.547992 0.817720 0.418859
C8    C     C_R   0.901435 0.317637 0.199888 0.483748
C9    C     C_R   0.984449 0.483199 0.818693 0.005533
C10   C     C_R   0.027040 0.300129 0.213960 0.043077
C11   C     C_R   0.907405 0.450024 0.714223 0.449962
C12   C     C_R   0.100062 0.344658 0.318286 0.446947
C13   C     C_R   0.943987 0.474265 0.607644 -0.088970
C14   C     C_R   0.050074 0.418376 0.402504 -0.076376
C15   C     C_R   0.067353 0.508610 0.604993 -0.066438
C16   C     C_R   0.919574 0.418903 0.398252 -0.041924
C17   C     C_R   0.866465 0.458095 0.501476 -0.099243
C18   C     C_R   0.124017 0.479804 0.499664 -0.109344
H1    H     H_    0.212832 0.611362 0.713659 0.193566
H2    H     H_    0.747886 0.355965 0.293055 0.190779
C19   C     C_R   0.504676 0.813723 0.533839 -0.037478
C20   C     C_R   0.509758 0.187316 0.471021 -0.059102
C21   C     C_R   0.586140 0.027283 0.375116 -0.218790
C22   C     C_R   0.439447 0.975636 0.636090 -0.227754
C23   C     C_R   0.570877 0.133043 0.381906 -0.292367
C24   C     C_R   0.450820 0.869383 0.627248 -0.233718
C25   C     C_R   0.465594 0.135884 0.556896 0.083167
C26   C     C_R   0.553854 0.865553 0.450938 0.092518
C27   C     C_R   0.481942 0.028743 0.551277 0.098464
C28   C     C_R   0.541487 0.973580 0.458576 0.098169
H3    H     H_    0.413711 0.829956 0.691940 0.168005
H4    H     H_    0.609378 0.173083 0.318517 0.159310
H5    H     H_    0.633512 0.988639 0.304042 0.151769
H6    H     H_    0.395165 0.014806 0.709012 0.145243
N1    N     N_R   0.523180 0.519350 0.790130 -0.230668
N2    N     N_R   0.476820 0.480650 0.209870 -0.239373
C29   C     C_R   0.391746 0.393057 0.016911 -0.012412
C30   C     C_R   0.604116 0.612215 0.981684 -0.035385
C31   C     C_R   0.408094 0.399280 0.139712 0.677197
C32   C     C_R   0.597506 0.598401 0.857800 0.714812
C33   C     C_R   0.541322 0.550414 0.159503 -0.087201
C34   C     C_R   0.455416 0.452770 0.840709 -0.031414
C35   C     C_R   0.537073 0.541778 0.035765 -0.080985
C36   C     C_R   0.461101 0.461755 0.963864 -0.049674
H7    H     H_    0.396135 0.393198 0.783946 0.168794
H8    H     H_    0.598188 0.611564 0.216328 0.180640
N3    N     N_3   0.076951 0.230131 0.124359 -0.522386
H9    H     H_    0.122053 0.172165 0.160888 0.235052
H10   H     H_    0.140428 0.272771 0.087274 0.281086
N4    N     N_3   0.953552 0.449352 0.923575 -0.542186
H11   H     H_    0.022849 0.472874 0.992243 0.258115
H12   H     H_    0.873663 0.485382 0.947761 0.205904
N5    N     N_3   0.301619 0.318480 0.948779 -0.618430
H13   H     H_    0.237615 0.357845 0.902243 0.253230
H14   H     H_    0.346419 0.266851 0.890299 0.201559
N6    N     N_3   0.674159 0.700820 0.049687 -0.605619
H15   H     H_    0.741290 0.674974 0.106675 0.207517
H16   H     H_    0.613960 0.746999 0.097475 0.226329
O9    O     O_3   0.164870 0.587148 0.919411 -0.571162
C37   C     C_3   0.129553 0.688448 0.961065 -0.348436
H17   H     H_    0.032835 0.687060 0.984879 0.151822
H18   H     H_    0.140451 0.741062 0.896580 0.157199
H19   H     H_    0.190970 0.721178 0.041182 0.199320
O10   O     O_3   0.832161 0.269541 0.097455 -0.544720
C38   C     C_3   0.739647 0.333937 0.061369 -0.265727
H20   H     H_    0.768596 0.418411 0.081980 0.146583
H21   H     H_    0.654020 0.320308 0.101765 0.133861
H22   H     H_    0.717716 0.312902 0.965488 0.206782
O11   O     O_3   0.801838 0.388022 0.717261 -0.551890
C39   C     C_3   0.825253 0.283112 0.676856 -0.281648
H23   H     H_    0.905388 0.257588 0.729659 0.175126
H24   H     H_    0.840571 0.269841 0.583003 0.141561
H25   H     H_    0.742695 0.233561 0.685876 0.190388
O12   O     O_3   0.208160 0.298816 0.348029 -0.523468
C40   C     C_3   0.180917 0.222492 0.415831 -0.364639
H26   H     H_    0.093374 0.175041 0.382273 0.143993
H27   H     H_    0.176813 0.259563 0.508080 0.175300
H28   H     H_    0.255669 0.167164 0.412639 0.189481
N7    N     N_3   0.615757 0.807447 0.360048 -0.603626
H29   H     H_    0.568137 0.814260 0.280162 0.207454
H30   H     H_    0.706454 0.838735 0.364744 0.210787
N8    N     N_3   0.402338 0.193067 0.647645 -0.607668
H31   H     H_    0.313241 0.159003 0.644899 0.199053
H32   H     H_    0.451889 0.190118 0.727945 0.212474
O13   O     O_3   0.650495 0.672903 0.803054 -0.550713
C41   C     C_3   0.779892 0.687186 0.831622 -0.258179
H33   H     H_    0.820522 0.630948 0.883440 0.122386
H34   H     H_    0.802539 0.767230 0.880856 0.185034
H35   H     H_    0.825191 0.679788 0.749788 0.166503
O14   O     O_3   0.348472 0.326493 0.190762 -0.519750
C42   C     C_3   0.393943 0.226545 0.157539 -0.271534
H36   H     H_    0.496088 0.228681 0.156856 0.122468
H37   H     H_    0.348207 0.186620 0.072144 0.162158
H38   H     H_    0.370510 0.177437 0.221803 0.205027

loop_
_geom_bond_atom_site_label_1
_geom_bond_atom_site_label_2
_geom_bond_distance
_ccdc_geom_bond_type
N6    H16   1.043130 S    
N5    H14   1.044099 S    
C7    O9    1.381029 S    
C42   H36   1.110182 S    
O13   C41   1.411975 S    
C38   H20   1.113301 S    
Cu2   N2    2.009423 S    
C35   C36   1.408350 A    
C15   C18   1.429916 A    
O5    C3    1.288984 A    
N2    C31   1.373198 A    
C16   C17   1.413882 A    
O1    C1    1.285075 A    
C3    C18   1.491917 S    
C9    C11   1.407753 A    
C14   C16   1.414640 A    
C29   N5    1.434343 S    
C32   O13   1.387501 S    
C5    C15   1.413755 A    
C6    H2    1.075375 S    
C41   H35   1.109488 S    
N4    H12   1.042459 S    
C33   H8    1.079207 S    
O4    Cu1   1.971265 S    
C23   H4    1.082677 S    
N8    H31   1.045350 S    
C21   C23   1.384718 A    
C41   H34   1.109614 S    
C37   H17   1.113004 S    
C13   C17   1.413132 A    
N7    H30   1.045384 S    
C8    C10   1.391325 A    
C34   H7    1.079590 S    
C1    C20   1.456853 S    
C30   C32   1.425008 A    
C2    C19   1.455737 S    
C8    O10   1.391058 S    
C26   C28   1.408304 A    
Cu1   Cu2   2.674556 S    
C24   H3    1.083910 S    
O2    C2    1.291019 A    
C39   H25   1.109571 S    
C34   C36   1.421458 A    
C5    H1    1.079409 S    
C40   H27   1.111305 S    
C6    C16   1.415229 A    
C30   C35   1.417644 A    
C21   C28   1.405990 A    
O10   C38   1.413132 S    
C4    C17   1.477800 S    
C22   C27   1.405224 A    
C21   H5    1.081439 S    
C20   C23   1.395070 A    
C22   H6    1.081400 S    
O12   C40   1.413591 S    
C39   H24   1.112094 S    
C27   C28   1.420129 A    
N1    C34   1.362234 A    
C40   H26   1.115512 S    
N2    C33   1.370764 A    
O11   C39   1.410142 S    
N4    H11   1.044507 S    
C33   C35   1.429640 A    
C12   O12   1.379809 S    
O7    Cu2   1.975901 S    
O7    C3    1.308132 A    
C26   N7    1.434878 S    
O6    C4    1.300194 A    
C41   H33   1.106657 S    
C11   O11   1.385206 S    
C37   H19   1.109337 S    
N8    H32   1.045152 S    
C20   C25   1.409505 A    
C38   H21   1.104928 S    
O3    Cu2   1.971268 S    
O8    C4    1.293747 A    
C29   C36   1.408168 A    
O4    C2    1.290985 A    
C10   C12   1.413602 A    
C42   H38   1.108259 S    
C11   C13   1.425775 A    
C12   C14   1.417683 A    
O1    Cu1   1.968625 S    
C42   H37   1.107451 S    
C40   H28   1.105524 S    
C5    C7    1.397689 A    
O6    Cu2   1.965829 S    
C25   N8    1.437018 S    
C14   C18   1.431452 A    
C39   H23   1.113675 S    
O3    C1    1.297259 A    
O8    Cu1   1.975901 S    
C9    N4    1.437249 S    
C29   C31   1.419439 A    
C19   C26   1.406374 A    
N7    H29   1.043831 S    
C25   C27   1.405930 A    
C31   O14   1.377459 S    
Cu1   N1    2.009423 S    
N3    H9    1.044873 S    
N1    C32   1.371372 A    
O14   C42   1.416378 S    
C7    C9    1.407010 A    
N6    H15   1.045388 S    
C22   C24   1.382583 A    
C13   C15   1.402295 A    
O9    C37   1.408615 S    
O2    Cu2   1.968623 S    
C38   H22   1.109576 S    
N3    H10   1.040876 S    
N5    H13   1.045685 S    
O5    Cu1   1.965828 S    
C6    C8    1.400432 A    
C19   C24   1.395933 A    
C37   H18   1.113955 S    
C30   N6    1.433175 S    
C10   N3    1.430827 S    
