data_mof_unit_56547.cif
_audit_creation_date              2013-03-05T15:53:18-0500
_audit_creation_method            fapswitch 2.2
_symmetry_space_group_name_H-M    P1
_symmetry_Int_Tables_number       1
_space_group_crystal_system       triclinic
_cell_length_a                    27.134454
_cell_length_b                    7.202774
_cell_length_c                    22.732207
_cell_angle_alpha                 89.922346
_cell_angle_beta                  101.133839
_cell_angle_gamma                 89.917731
_cell_volume                      4359.22795194

loop_
_atom_site_label
_atom_site_type_symbol
_atom_site_description
_atom_site_fract_x
_atom_site_fract_y
_atom_site_fract_z
_atom_type_partial_charge
O1    O     O_R   0.207310 0.594030 0.676830 -0.580249
O2    O     O_R   0.792690 0.405970 0.323170 -0.580249
O3    O     O_R   0.292690 0.094030 0.823170 -0.579973
O4    O     O_R   0.707310 0.905970 0.176830 -0.579973
O5    O     O_R   0.197320 0.262370 0.795700 -0.591310
O6    O     O_R   0.802680 0.737630 0.204300 -0.591311
O7    O     O_R   0.302680 0.762370 0.704300 -0.591263
O8    O     O_R   0.697320 0.237630 0.295700 -0.591263
C1    C     C_R   0.184657 0.432532 0.811928 0.903646
C2    C     C_R   0.815343 0.567468 0.188072 0.903646
C3    C     C_R   0.315348 0.932499 0.688071 0.904990
C4    C     C_R   0.684652 0.067501 0.311929 0.904991
O9    O     O_R   0.201410 0.264250 0.675590 -0.580268
O10   O     O_R   0.798590 0.735750 0.324410 -0.580268
O11   O     O_R   0.298590 0.764250 0.824410 -0.581662
O12   O     O_R   0.701410 0.235750 0.175590 -0.581661
O13   O     O_R   0.296810 0.094940 0.702210 -0.591388
O14   O     O_R   0.703190 0.905060 0.297790 -0.591389
O15   O     O_R   0.203190 0.594940 0.797790 -0.591617
O16   O     O_R   0.796810 0.405060 0.202210 -0.591616
C5    C     C_R   0.189803 0.432752 0.653463 0.908646
C6    C     C_R   0.810197 0.567248 0.346537 0.908647
C7    C     C_R   0.310230 0.932299 0.846581 0.908427
C8    C     C_R   0.689770 0.067701 0.153419 0.908425
O17   O     O_3   0.281300 0.427390 0.758870 -0.279701
O18   O     O_3   0.718700 0.572610 0.241130 -0.279701
O19   O     O_3   0.218700 0.927390 0.741130 -0.279382
O20   O     O_3   0.781300 0.072610 0.258870 -0.279382
V1    V     V_3+5 0.244190 0.152150 0.748350 1.166434
V2    V     V_3+5 0.755810 0.847850 0.251650 1.166434
V3    V     V_3+5 0.255810 0.652150 0.751650 1.165749
V4    V     V_3+5 0.744190 0.347850 0.248350 1.165749
C9    C     C_R   0.654959 0.063795 0.094855 -0.102916
C10   C     C_R   0.345041 0.936205 0.905145 -0.102916
C11   C     C_R   0.844991 0.561057 0.404999 -0.099929
C12   C     C_R   0.155008 0.438942 0.595001 -0.099929
C13   C     C_R   0.639078 0.136930 0.989207 -0.070500
C14   C     C_R   0.360922 0.863068 0.010793 -0.070500
C15   C     C_R   0.859221 0.606975 0.512059 -0.065155
C16   C     C_R   0.140778 0.393020 0.487941 -0.065154
C17   C     C_R   0.671737 0.127419 0.044340 -0.173069
C18   C     C_R   0.328263 0.872580 0.955659 -0.173070
C19   C     C_R   0.826716 0.599970 0.456771 -0.175287
C20   C     C_R   0.173283 0.400025 0.543229 -0.175287
C21   C     C_R   0.604318 0.013585 0.090118 -0.191925
C22   C     C_R   0.395681 0.986416 0.909883 -0.191925
C23   C     C_R   0.896451 0.525813 0.408962 -0.190632
C24   C     C_R   0.103549 0.474189 0.591038 -0.190634
C25   C     C_R   0.569340 0.028163 0.034533 0.119913
C26   C     C_R   0.430660 0.971837 0.965467 0.119913
C27   C     C_R   0.930866 0.531730 0.465081 0.120641
C28   C     C_R   0.069134 0.468270 0.534919 0.120642
C29   C     C_R   0.588183 0.085657 0.983116 -0.024846
C30   C     C_R   0.411817 0.914342 0.016884 -0.024846
C31   C     C_R   0.911330 0.578560 0.516990 -0.024787
C32   C     C_R   0.088670 0.421436 0.483010 -0.024787
C33   C     C_R   0.516478 0.990745 0.028544 0.017469
C34   C     C_R   0.483522 0.009255 0.971456 0.017469
C35   C     C_R   0.983748 0.494237 0.471230 0.018375
C36   C     C_R   0.016252 0.505762 0.528770 0.018375
C37   C     C_R   0.504571 0.060985 0.921811 -0.281206
C38   C     C_R   0.495428 0.939015 0.078189 -0.281206
C39   C     C_R   0.995029 0.556983 0.578321 -0.278887
C40   C     C_R   0.004970 0.443014 0.421680 -0.278886
C41   C     C_R   0.555704 0.096789 0.926789 0.317145
C42   C     C_R   0.444296 0.903210 0.073211 0.317144
C43   C     C_R   0.943917 0.594168 0.573092 0.320918
C44   C     C_R   0.056083 0.405827 0.426908 0.320918
H1    H     H_    0.406399 0.031856 0.869022 0.106358
H2    H     H_    0.593601 0.968146 0.130978 0.106358
H3    H     H_    0.091831 0.501439 0.632812 0.104047
H4    H     H_    0.908169 0.498567 0.367188 0.104047
H5    H     H_    0.289616 0.828892 0.952313 0.119050
H6    H     H_    0.710384 0.171106 0.047687 0.119049
H7    H     H_    0.212967 0.373762 0.545680 0.116904
H8    H     H_    0.787033 0.626231 0.454320 0.116904
H9    H     H_    0.653990 0.190081 0.951731 0.172832
H10   H     H_    0.346010 0.809916 0.048269 0.172832
H11   H     H_    0.842879 0.634520 0.550936 0.172960
H12   H     H_    0.157120 0.365472 0.449064 0.172960
H13   H     H_    0.482334 0.071222 0.877340 0.172239
H14   H     H_    0.517666 0.928777 0.122660 0.172240
H15   H     H_    0.017513 0.574742 0.622369 0.170941
H16   H     H_    0.982487 0.425253 0.377632 0.170941
C45   C     C_R   0.629496 0.881874 0.367597 -0.143443
C46   C     C_R   0.370504 0.118126 0.632403 -0.143443
C47   C     C_R   0.870451 0.381798 0.132313 -0.144786
C48   C     C_R   0.129549 0.618202 0.867687 -0.144786
H17   H     H_    0.644703 0.754296 0.353264 0.135185
H18   H     H_    0.355297 0.245704 0.646735 0.135184
H19   H     H_    0.855203 0.254238 0.146570 0.135155
H20   H     H_    0.144797 0.745762 0.853430 0.135155
C49   C     C_R   0.593584 0.868913 0.404109 -0.118513
C50   C     C_R   0.406416 0.131087 0.595891 -0.118512
C51   C     C_R   0.906367 0.368840 0.095801 -0.118116
C52   C     C_R   0.093633 0.631160 0.904198 -0.118116
H21   H     H_    0.582449 0.732270 0.416526 0.117565
H22   H     H_    0.417551 0.267730 0.583474 0.117565
H23   H     H_    0.917465 0.232215 0.083310 0.117421
H24   H     H_    0.082534 0.767785 0.916690 0.117421
C53   C     C_R   0.572544 0.029413 0.424429 0.116367
C54   C     C_R   0.427456 0.970587 0.575571 0.116368
C55   C     C_R   0.927456 0.529330 0.075575 0.117165
C56   C     C_R   0.072544 0.470670 0.924425 0.117165
C57   C     C_R   0.588348 0.203666 0.406831 -0.115497
C58   C     C_R   0.411652 0.796334 0.593169 -0.115497
C59   C     C_R   0.911699 0.703557 0.093265 -0.114269
C60   C     C_R   0.088301 0.296443 0.906735 -0.114269
H25   H     H_    0.573016 0.330510 0.421509 0.120381
H26   H     H_    0.426984 0.669490 0.578491 0.120381
H27   H     H_    0.927068 0.830390 0.078661 0.120052
H28   H     H_    0.072931 0.169610 0.921339 0.120052
C61   C     C_R   0.624358 0.216771 0.370173 -0.144000
C62   C     C_R   0.375642 0.783229 0.629827 -0.143999
C63   C     C_R   0.875686 0.716658 0.129919 -0.142852
C64   C     C_R   0.124314 0.283342 0.870081 -0.142852
H29   H     H_    0.635671 0.353279 0.357866 0.130776
H30   H     H_    0.364329 0.646721 0.642134 0.130776
H31   H     H_    0.864414 0.853157 0.142300 0.130504
H32   H     H_    0.135586 0.146843 0.857700 0.130504
C65   C     C_R   0.645597 0.055907 0.350105 -0.126371
C66   C     C_R   0.354403 0.944093 0.649895 -0.126372
C67   C     C_R   0.854398 0.555819 0.149895 -0.125731
C68   C     C_R   0.145602 0.444181 0.850105 -0.125731
N1    N     N_R   0.514173 0.168513 0.483951 -0.067405
N2    N     N_R   0.485827 0.831487 0.516049 -0.067405
N3    N     N_R   0.985867 0.668476 0.016142 -0.067244
N4    N     N_R   0.014133 0.331524 0.983858 -0.067244
N5    N     N_R   0.480373 0.154504 0.519269 -0.068984
N6    N     N_R   0.519627 0.845496 0.480731 -0.068984
N7    N     N_R   0.019667 0.654512 0.980821 -0.068888
N8    N     N_R   0.980333 0.345488 0.019179 -0.068888
C69   C     C_R   0.465403 0.985716 0.536169 0.124971
C70   C     C_R   0.534596 0.014284 0.463831 0.124972
C71   C     C_R   0.034596 0.485761 0.963828 0.125501
C72   C     C_R   0.965403 0.514239 0.036172 0.125501
N9    N     N_R   0.574098 0.141138 0.873238 0.236985
O21   O     O_R   0.549120 0.255437 0.834061 -0.370578
O22   O     O_R   0.610159 0.043064 0.858517 -0.369018
N10   N     N_R   0.425902 0.858860 0.126762 0.236985
O23   O     O_R   0.450880 0.744562 0.165939 -0.370578
O24   O     O_R   0.389840 0.956933 0.141483 -0.369018
N11   N     N_R   0.926096 0.653523 0.625621 0.236371
O25   O     O_R   0.941427 0.568943 0.676501 -0.361644
O26   O     O_R   0.902606 0.811282 0.625301 -0.378796
N12   N     N_R   0.073903 0.346469 0.374380 0.236371
O27   O     O_R   0.058573 0.431047 0.323499 -0.361644
O28   O     O_R   0.097394 0.188709 0.374700 -0.378796

loop_
_geom_bond_atom_site_label_1
_geom_bond_atom_site_label_2
_geom_bond_distance
_ccdc_geom_bond_type
N1    C70   1.359360 A    
O17   V3    1.754530 S    
C48   C52   1.399885 A    
O1    C5    1.327804 A    
C56   C71   1.493501 S    
C47   H19   1.082798 S    
O19   V1    1.756772 S    
C9    C21   1.405313 A    
O3    C7    1.328781 A    
C10   C18   1.391749 A    
C48   C68   1.409823 A    
C11   C23   1.404505 A    
C25   C33   1.440288 A    
C33   C38   1.409630 A    
C5    C12   1.474664 S    
C53   C70   1.493524 S    
O7    C3    1.343444 A    
C6    C11   1.474663 S    
N9    O22   1.301375 A    
C35   C40   1.409792 A    
C26   C30   1.424473 A    
C58   C62   1.404492 A    
C36   C39   1.409794 A    
C40   C44   1.394469 A    
C57   C61   1.404492 A    
N10   O24   1.301374 A    
C14   C18   1.389763 A    
N7    C71   1.360515 A    
C58   H26   1.082801 S    
O4    C8    1.328782 A    
C51   H23   1.082900 S    
C50   H22   1.082901 S    
N11   O25   1.301344 A    
O1    V3    1.984696 S    
C1    C68   1.496103 S    
O13   V1    1.971401 S    
O2    V4    1.984701 S    
O3    V1    1.982931 S    
C40   H16   1.075098 S    
C22   H1    1.076203 S    
C46   C50   1.399856 A    
C17   H6    1.083851 S    
C45   C49   1.399858 A    
C1    O15   1.337043 A    
C15   C31   1.411227 A    
C4    C65   1.496113 S    
C48   H20   1.082799 S    
N2    C69   1.359360 A    
C2    O16   1.337044 A    
C16   C32   1.411229 A    
C47   C51   1.399885 A    
O2    C6    1.327803 A    
C16   H12   1.081015 S    
C45   C65   1.409822 A    
C10   C22   1.405311 A    
C11   C19   1.391195 A    
C64   H32   1.082836 S    
C16   C20   1.390054 A    
O5    V1    1.983528 S    
O8    C4    1.343444 A    
C13   C29   1.410869 A    
C34   C37   1.409629 A    
O11   C7    1.326712 A    
C38   H14   1.074974 S    
O15   V3    1.971669 S    
C35   C36   1.431986 A    
O12   C8    1.326713 A    
C43   N11   1.437443 S    
N6    C70   1.360527 A    
O10   V2    1.996827 S    
N4    N8    1.334283 A    
C51   C55   1.406137 A    
N12   O28   1.301399 A    
C53   C57   1.409133 A    
C39   C43   1.394469 A    
C63   C67   1.408472 A    
C38   C42   1.394569 A    
C26   C34   1.440288 A    
O7    V3    1.983822 S    
N10   O23   1.301367 A    
C2    C67   1.496103 S    
C46   H18   1.082796 S    
N4    C71   1.359360 A    
C49   C53   1.406121 A    
C45   H17   1.082795 S    
O18   V4    1.754529 S    
C23   C27   1.428789 A    
C14   H10   1.081078 S    
C32   C44   1.409296 A    
C13   H9    1.081078 S    
C60   H28   1.082804 S    
C39   H15   1.075095 S    
O8    V4    1.983823 S    
C20   H7    1.083785 S    
C55   C72   1.493499 S    
O5    C1    1.343618 A    
N1    N5    1.334283 A    
C31   C43   1.409297 A    
C14   C30   1.410871 A    
C21   C25   1.429915 A    
N8    C72   1.360515 A    
C7    C10   1.476434 S    
O9    C5    1.327138 A    
N3    C72   1.359361 A    
C59   C63   1.404441 A    
C62   H30   1.082848 S    
C61   H29   1.082848 S    
C44   N12   1.437444 S    
O6    V2    1.983529 S    
C63   H31   1.082837 S    
C52   C56   1.406135 A    
O14   V2    1.971406 S    
N5    C69   1.360527 A    
C12   C20   1.391197 A    
C3    C66   1.496113 S    
C27   C35   1.439736 A    
C24   H3    1.076266 S    
C49   H21   1.082901 S    
C56   C60   1.409097 A    
C29   C41   1.409383 A    
N12   O27   1.301342 A    
O16   V4    1.971666 S    
O9    V1    1.996826 S    
C19   H8    1.083785 S    
N11   O26   1.301399 A    
C57   H25   1.082800 S    
C3    O13   1.336812 A    
C18   H5    1.083849 S    
C64   C68   1.408471 A    
C21   H2    1.076203 S    
C59   H27   1.082804 S    
O6    C2    1.343617 A    
C15   C19   1.390054 A    
O11   V3    1.999987 S    
C30   C42   1.409383 A    
O12   V4    1.999983 S    
C61   C65   1.408473 A    
N9    O21   1.301368 A    
C22   C26   1.429917 A    
C8    C9    1.476434 S    
C9    C17   1.391748 A    
O10   C6    1.327139 A    
O20   V2    1.756771 S    
C54   C69   1.493526 S    
C41   N9    1.437741 S    
C37   H13   1.074974 S    
C47   C67   1.409822 A    
C60   C64   1.404443 A    
C33   C34   1.432664 A    
C25   C29   1.424473 A    
C52   H24   1.082900 S    
C12   C24   1.404505 A    
C27   C31   1.424550 A    
C13   C17   1.389763 A    
C46   C66   1.409823 A    
N3    N7    1.334281 A    
C23   H4    1.076270 S    
C62   C66   1.408473 A    
C37   C41   1.394568 A    
C24   C28   1.428789 A    
C42   N10   1.437742 S    
C50   C54   1.406119 A    
C28   C36   1.439736 A    
C54   C58   1.409132 A    
C4    O14   1.336810 A    
N2    N6    1.334283 A    
C55   C59   1.409097 A    
O4    V2    1.982926 S    
C28   C32   1.424550 A    
C15   H11   1.081015 S    
