data_mof_unit_8193.cif
_audit_creation_date              2012-12-11T14:22:55-0500
_audit_creation_method            fapswitch 2.2
_symmetry_space_group_name_H-M    P1
_symmetry_Int_Tables_number       1
_space_group_crystal_system       triclinic
_cell_length_a                    11.020378
_cell_length_b                    10.963384
_cell_length_c                    18.852312
_cell_angle_alpha                 90.037409
_cell_angle_beta                  89.898456
_cell_angle_gamma                 59.348455
_cell_volume                      1959.50353845

loop_
_atom_site_label
_atom_site_type_symbol
_atom_type_description
_atom_site_fract_x
_atom_site_fract_y
_atom_site_fract_z
_atom_type_partial_charge
C1    C     C_R   0.240660 0.644046 0.611105 0.534111
C2    C     C_3   0.664280 0.557954 0.800417 -0.250863
C3    C     C_3   0.699202 0.675772 0.811639 0.045139
C4    C     C_3   0.669400 0.648804 0.676187 0.056878
C5    C     C_3   0.819415 0.619592 0.690630 -0.246595
C6    C     C_3   0.644041 0.543797 0.720821 -0.211951
C7    C     C_R   0.689524 0.158113 0.823562 -0.012493
C8    C     C_R   0.805149 0.142710 0.782431 0.018307
C9    C     C_R   0.796534 0.141675 0.707022 0.014808
C10   C     C_R   0.556207 0.190440 0.717217 -0.159405
C11   C     C_R   0.564946 0.189106 0.789273 -0.163576
C12   C     C_R   0.653729 0.622806 0.600904 0.544762
C13   C     C_R   0.928392 0.128722 0.813165 -0.092928
C14   C     C_R   0.043288 0.102244 0.771071 -0.135832
C15   C     C_R   0.037976 0.091062 0.697925 -0.131501
C16   C     C_R   0.916748 0.108707 0.666044 -0.088175
C17   C     C_R   0.667833 0.172885 0.674909 -0.010722
C18   C     C_R   0.193944 0.657028 0.837355 -0.009419
C19   C     C_R   0.199571 0.542397 0.799755 0.023323
C20   C     C_R   0.192741 0.546670 0.724412 0.022817
C21   C     C_R   0.227286 0.748712 0.727801 -0.151061
C22   C     C_R   0.219481 0.752106 0.800918 -0.155136
C23   C     C_R   0.629421 0.226537 0.602376 0.530921
C24   C     C_R   0.211249 0.423983 0.835538 -0.097259
C25   C     C_R   0.201439 0.319535 0.798885 -0.149850
C26   C     C_R   0.178388 0.331592 0.726163 -0.160944
C27   C     C_R   0.172444 0.444460 0.689183 -0.113308
C28   C     C_R   0.207649 0.652076 0.687800 -0.002558
C29   C     C_R   0.712886 0.684221 0.179973 -0.003361
C30   C     C_R   0.789733 0.542405 0.208011 0.039037
C31   C     C_R   0.735125 0.512275 0.267700 0.009335
C32   C     C_R   0.583553 0.764957 0.289962 -0.139682
C33   C     C_R   0.615688 0.794393 0.223107 -0.174037
C34   C     C_R   0.221602 0.652765 0.401013 0.540613
C35   C     C_R   0.919589 0.428653 0.179792 -0.095043
C36   C     C_R   0.978210 0.290662 0.203293 -0.144189
C37   C     C_R   0.911034 0.260643 0.255623 -0.120868
C38   C     C_R   0.786972 0.369572 0.284733 -0.088207
C39   C     C_R   0.638333 0.624446 0.311788 -0.000978
C40   C     C_R   0.678896 0.100845 0.185613 0.004628
C41   C     C_R   0.544300 0.176976 0.216144 -0.026245
C42   C     C_R   0.532663 0.161806 0.288727 0.058821
C43   C     C_R   0.784214 0.065977 0.302512 -0.198671
C44   C     C_R   0.798966 0.039822 0.229655 -0.162730
C45   C     C_R   0.619005 0.593138 0.385133 0.545665
C46   C     C_R   0.421251 0.263063 0.177037 -0.107142
C47   C     C_R   0.290659 0.305020 0.206166 -0.169454
C48   C     C_R   0.280003 0.261395 0.273877 -0.133320
C49   C     C_R   0.402510 0.181824 0.315203 0.306433
C50   C     C_R   0.649665 0.137621 0.331843 0.014568
C51   C     C_R   0.148295 0.665961 0.183534 -0.018503
C52   C     C_R   0.226664 0.722300 0.211529 0.016091
C53   C     C_R   0.206181 0.760341 0.283058 0.019589
C54   C     C_R   0.086902 0.627247 0.302387 -0.014632
C55   C     C_R   0.073101 0.626653 0.229134 -0.148008
C56   C     C_R   0.620305 0.218571 0.398528 0.535906
C57   C     C_R   0.297364 0.770117 0.167163 -0.064661
C58   C     C_R   0.309168 0.884925 0.187970 -0.107039
C59   C     C_R   0.263534 0.942558 0.255078 -0.152862
C60   C     C_R   0.216174 0.879518 0.303134 -0.095084
C61   C     C_R   0.163126 0.686357 0.329591 0.020798
C62   C     C_R   0.702494 0.102599 0.896056 0.543313
C63   C     C_R   0.724061 0.688716 0.887681 0.555848
C64   C     C_R   0.121831 0.703060 0.906665 0.537725
C65   C     C_R   0.696408 0.056331 0.111692 0.536662
C66   C     C_R   0.733325 0.713829 0.106299 0.542392
C67   C     C_3   0.576736 0.817185 0.780642 -0.229861
C68   C     C_R   0.094058 0.707190 0.112337 0.514312
C69   C     C_3   0.562429 0.802590 0.700222 -0.241900
C70   C     C_3   0.835994 0.638338 0.770033 -0.218841
Cr1   Cr    Cr6+3 0.392940 0.397950 0.502230 0.990869
Cr2   Cr    Cr6+3 0.398400 0.708500 0.501260 0.982353
Cr3   Cr    Cr6+3 0.708640 0.393530 0.496460 0.981644
Cr4   Cr    Cr6+3 0.937880 0.938320 0.007620 1.004782
Cr5   Cr    Cr6+3 0.625560 0.937220 0.994510 0.992720
Cr6   Cr    Cr6+3 0.938080 0.625010 0.001190 0.982344
H1    H     H_    0.597431 0.905167 0.790001 0.147286
H2    H     H_    0.718772 0.432633 0.704240 0.152933
H3    H     H_    0.925441 0.538101 0.790637 0.168677
H4    H     H_    0.898024 0.509276 0.674621 0.145214
H5    H     H_    0.457314 0.211198 0.694854 0.163088
H6    H     H_    0.937148 0.142328 0.869169 0.143644
H7    H     H_    0.474957 0.201888 0.818345 0.154812
H8    H     H_    0.139053 0.084997 0.795561 0.091007
H9    H     H_    0.129211 0.065934 0.665681 0.095723
H10   H     H_    0.920145 0.092079 0.609397 0.130677
H11   H     H_    0.250395 0.822656 0.702515 0.137307
H12   H     H_    0.475587 0.845762 0.807547 0.114213
H13   H     H_    0.233984 0.407907 0.891673 0.130940
H14   H     H_    0.226451 0.834519 0.828905 0.134584
H15   H     H_    0.213115 0.229095 0.827541 0.103863
H16   H     H_    0.167591 0.252270 0.697767 0.112411
H17   H     H_    0.147524 0.451255 0.633539 0.134659
H18   H     H_    0.515298 0.852021 0.324496 0.190634
H19   H     H_    0.984343 0.442210 0.141773 0.146144
H20   H     H_    0.565326 0.903173 0.205225 0.129583
H21   H     H_    0.076173 0.207348 0.180845 0.117173
H22   H     H_    0.958087 0.153490 0.274391 0.118822
H23   H     H_    0.452689 0.830423 0.688413 0.127117
H24   H     H_    0.730267 0.343820 0.320198 0.160347
H25   H     H_    0.875991 0.032916 0.335601 0.113673
H26   H     H_    0.424521 0.299278 0.124105 0.157799
H27   H     H_    0.903828 0.976965 0.207442 0.157240
H28   H     H_    0.198920 0.365579 0.174101 0.117971
H29   H     H_    0.176986 0.287066 0.292402 0.094486
H30   H     H_    0.326877 0.731005 0.113367 0.127454
H31   H     H_    0.995798 0.605927 0.207754 0.117976
H32   H     H_    0.582197 0.878959 0.670935 0.115269
H33   H     H_    0.349050 0.932159 0.151280 0.127987
H34   H     H_    0.267504 0.034434 0.270497 0.127086
H35   H     H_    0.176954 0.933177 0.353304 0.134712
H36   H     H_    0.862449 0.722924 0.777563 0.127954
H37   H     H_    0.840474 0.692656 0.659070 0.109590
H38   H     H_    0.751184 0.455244 0.821086 0.134466
H39   H     H_    0.566418 0.583504 0.829856 0.118289
H40   H     H_    0.535580 0.564090 0.711483 0.131066
O1    O     O_R   0.507340 0.255690 0.581430 -0.533616
O2    O     O_R   0.524510 0.695820 0.424050 -0.501924
O3    O     O_R   0.736370 0.504260 0.414810 -0.532656
O4    O     O_R   0.691220 0.277270 0.422180 -0.542991
O5    O     O_3   0.499990 0.499990 0.499980 -0.251239
O6    O     O_R   0.089570 0.825450 0.930590 -0.520133
O7    O     O_R   0.818700 0.054260 0.929860 -0.502481
O8    O     O_R   0.606310 0.077010 0.915520 -0.530857
O9    O     O_R   0.646730 0.806540 0.917560 -0.503425
O10   O     O_R   0.837290 0.593240 0.915240 -0.519886
O11   O     O_R   0.065320 0.635310 0.931580 -0.511090
O12   O     O_R   0.280360 0.527380 0.578910 -0.511826
O13   O     O_R   0.068470 0.828620 0.091850 -0.524683
O14   O     O_R   0.799150 0.057200 0.079350 -0.490566
O15   O     O_R   0.585220 0.080180 0.076770 -0.537333
O16   O     O_R   0.627170 0.809480 0.067050 -0.503119
O17   O     O_R   0.816200 0.596410 0.076500 -0.526587
O18   O     O_R   0.045770 0.638240 0.081070 -0.542116
O19   O     O_3   0.833840 0.833520 0.001110 -0.273172
O20   O     O_R   0.260600 0.739610 0.584580 -0.534121
O21   O     O_R   0.532370 0.695050 0.573830 -0.511150
O22   O     O_R   0.744850 0.503430 0.576380 -0.526543
O23   O     O_R   0.699080 0.276500 0.571950 -0.511158
O24   O     O_R   0.498860 0.256520 0.419860 -0.473905
O25   O     O_R   0.272490 0.528150 0.429140 -0.508701
O26   O     O_R   0.252110 0.740440 0.423010 -0.546112
O27   O     O_3   0.406662 0.105258 0.375443 -0.565788
C71   C     C_3   0.277993 0.166986 0.413376 -0.001286
H41   H     H_    0.199620 0.149675 0.385148 0.097487
H42   H     H_    0.235147 0.282074 0.422258 0.144729
C72   C     C_3   0.303897 0.096007 0.485557 -0.350724
H43   H     H_    0.382375 0.110207 0.515663 0.170992
H44   H     H_    0.203792 0.144096 0.516234 0.061452
H45   H     H_    0.344290 0.980904 0.478818 0.173308
C73   C     C_3   0.001499 0.588161 0.350149 -0.273587
C74   C     C_3   0.881076 0.720238 0.385389 -0.417963
H46   H     H_    0.922523 0.774931 0.418287 0.139172
H47   H     H_    0.809532 0.794789 0.344430 0.171232
H48   H     H_    0.819905 0.690020 0.420474 0.180504
H49   H     H_    0.956604 0.534377 0.319534 0.158498
H50   H     H_    0.068585 0.512187 0.391429 0.150866

loop_
_geom_bond_atom_site_label_1
_geom_bond_atom_site_label_2
_ccdc_geom_bond_type
C45   O2    A    
C32   H18   S    
C21   H11   S    
C34   O25   A    
C8    C13   A    
Cr3   O3    S    
Cr2   O5    S    
C58   H33   S    
Cr6   O10   S    
C41   C42   A    
Cr1   O24   S    
C35   C36   A    
C67   H1    S    
C1    O12   A    
C14   H8    S    
C24   H13   S    
C62   O8    A    
C65   O14   A    
C7    C8    A    
C52   C53   A    
Cr2   O26   S    
C46   H26   S    
C26   C27   A    
C17   C23   S    
C30   C35   A    
C64   O6    A    
C73   H50   S    
C23   O23   A    
C36   C37   A    
C72   H44   S    
C9    C16   A    
C30   C31   A    
C56   O24   A    
Cr5   O19   S    
C6    H2    S    
Cr3   O22   S    
C10   C17   A    
C26   H16   S    
C15   C16   A    
C29   C33   A    
C59   H34   S    
C18   C19   A    
C32   C39   A    
C37   H22   S    
C12   O21   A    
C72   H43   S    
C54   C55   A    
C53   C61   A    
C44   H27   S    
C19   C20   A    
C31   C39   A    
C8    C9    A    
C69   H32   S    
C1    C28   S    
C73   C74   S    
C36   H21   S    
C4    C12   S    
C1    O20   A    
C39   C45   S    
C45   O3    A    
Cr4   O7    S    
C59   C60   A    
Cr3   O4    S    
C21   C22   A    
C16   H10   S    
C56   O4    A    
C2    C6    S    
C71   C72   S    
C4    C69   S    
C65   O15   A    
Cr6   O19   S    
Cr5   O15   S    
C54   C61   A    
C66   O16   A    
Cr2   O21   S    
C25   H15   S    
Cr1   O1    S    
Cr5   O8    S    
C47   C48   A    
C3    C70   S    
C24   C25   A    
C4    C6    S    
C10   C11   A    
Cr6   O18   S    
C71   H41   S    
Cr3   O23   S    
C11   H7    S    
C58   C59   A    
C13   H6    S    
C34   C61   S    
C50   C56   S    
C15   H9    S    
C51   C52   A    
C55   H31   S    
C67   C69   S    
C7    C11   A    
C43   C44   A    
C43   H25   S    
C7    C62   S    
C37   C38   A    
C66   O17   A    
C2    H39   S    
C48   H29   S    
C74   H48   S    
C41   C46   A    
C64   O11   A    
Cr4   O19   S    
C72   H45   S    
C53   C60   A    
C22   H14   S    
C73   H49   S    
C5    H4    S    
C6    H40   S    
C63   O9    A    
C70   H36   S    
C42   C50   A    
C69   H23   S    
C71   H42   S    
C40   C41   A    
Cr4   O6    S    
C21   C28   A    
C74   H47   S    
Cr3   O5    S    
C40   C65   S    
Cr4   O14   S    
C12   O22   A    
Cr1   O12   S    
C27   H17   S    
C33   H20   S    
C57   H30   S    
Cr5   O16   S    
C9    C17   A    
C46   C47   A    
C34   O26   A    
C47   H28   S    
C5    H37   S    
C70   H3    S    
C18   C22   A    
Cr1   O5    S    
C3    C67   S    
C4    C5    S    
C5    C70   S    
C23   O1    A    
Cr6   O17   S    
C43   C50   A    
C67   H12   S    
C54   C73   S    
C20   C27   A    
C3    C63   S    
C20   C28   A    
C10   H5    S    
C31   C38   A    
Cr1   O25   S    
C32   C33   A    
C68   O18   A    
C2    C3    S    
C25   C26   A    
C60   H35   S    
C2    H38   S    
C38   H24   S    
C18   C64   S    
C57   C58   A    
C48   C49   A    
C49   O27   S    
C62   O7    A    
C19   C24   A    
C51   C55   A    
C51   C68   S    
C68   O13   A    
C63   O10   A    
Cr2   O20   S    
C52   C57   A    
C42   C49   A    
C29   C30   A    
C29   C66   S    
C40   C44   A    
C74   H46   S    
Cr4   O13   S    
Cr2   O2    S    
Cr6   O11   S    
C14   C15   A    
Cr5   O9    S    
C13   C14   A    
O27   C71   S    
C35   H19   S    
