data_mof_unit_58266.cif
_audit_creation_date              2012-12-11T15:48:39-0500
_audit_creation_method            fapswitch 2.2
_symmetry_space_group_name_H-M    P1
_symmetry_Int_Tables_number       1
_space_group_crystal_system       triclinic
_cell_length_a                    10.931381
_cell_length_b                    11.015545
_cell_length_c                    18.828269
_cell_angle_alpha                 90.59043
_cell_angle_beta                  90.22183
_cell_angle_gamma                 60.3207
_cell_volume                      1969.66768407

loop_
_atom_site_label
_atom_site_type_symbol
_atom_type_description
_atom_site_fract_x
_atom_site_fract_y
_atom_site_fract_z
_atom_type_partial_charge
C1    C     C_R   0.240600 0.645374 0.610599 0.548538
C2    C     C_3   0.637063 0.576643 0.800593 -0.271973
C3    C     C_3   0.698556 0.674225 0.811841 0.007631
C4    C     C_3   0.669818 0.646490 0.676141 0.080816
C5    C     C_3   0.825563 0.598903 0.692913 -0.218106
C6    C     C_3   0.621011 0.559176 0.720526 -0.278066
C7    C     C_R   0.692103 0.134197 0.820728 0.005185
C8    C     C_R   0.798506 0.134403 0.780936 0.004687
C9    C     C_R   0.787537 0.154272 0.709401 0.017947
C10   C     C_R   0.574513 0.144188 0.709050 -0.105072
C11   C     C_R   0.577867 0.140453 0.782270 -0.192771
C12   C     C_R   0.653987 0.621709 0.600825 0.581567
C13   C     C_3   0.933904 0.133230 0.787481 0.165752
C14   C     C_3   0.919566 0.163368 0.706862 0.253568
C15   C     C_R   0.673079 0.163957 0.671023 0.042267
C16   C     C_R   0.181612 0.668471 0.835257 0.014826
C17   C     C_R   0.161219 0.573172 0.794754 0.015311
C18   C     C_R   0.167880 0.571967 0.720689 -0.008082
C19   C     C_R   0.217441 0.761807 0.726373 -0.119056
C20   C     C_R   0.214386 0.760121 0.800153 -0.181874
C21   C     C_3   0.250940 0.418554 0.797375 -0.288668
C22   C     C_3   0.252991 0.417433 0.717374 -0.271668
C23   C     C_R   0.630241 0.225972 0.601547 0.561497
C24   C     C_R   0.196253 0.665968 0.685174 0.036190
C25   C     C_R   0.651285 0.674086 0.167922 -0.012618
C26   C     C_R   0.709699 0.541937 0.198573 0.081877
C27   C     C_R   0.710004 0.528389 0.271290 -0.004946
C28   C     C_R   0.579701 0.777833 0.286619 -0.174200
C29   C     C_R   0.579440 0.792194 0.212669 -0.178891
C30   C     C_3   0.853310 0.416137 0.191644 0.240659
C31   C     C_3   0.854482 0.403831 0.271608 -0.215146
C32   C     C_R   0.651776 0.644901 0.316698 0.009245
C33   C     C_R   0.657160 0.161973 0.174972 0.065633
C34   C     C_R   0.223678 0.648630 0.400864 0.549355
C35   C     C_R   0.524892 0.236446 0.206220 0.014550
C36   C     C_R   0.514941 0.246493 0.278912 0.045119
C37   C     C_R   0.767411 0.127932 0.291181 -0.181946
C38   C     C_R   0.778492 0.114534 0.218005 -0.080871
C39   C     C_3   0.396799 0.221233 0.199363 -0.280316
C40   C     C_3   0.391028 0.223713 0.279729 -0.263133
C41   C     C_R   0.635018 0.188270 0.322131 0.018832
C42   C     C_R   0.156563 0.664146 0.180660 0.022838
C43   C     C_R   0.230562 0.723559 0.211962 0.019582
C44   C     C_R   0.241329 0.724232 0.284179 0.046159
C45   C     C_R   0.642119 0.621106 0.391777 0.553240
C46   C     C_R   0.128569 0.585274 0.296440 -0.173740
C47   C     C_R   0.115063 0.585681 0.222828 -0.166646
C48   C     C_3   0.215584 0.866375 0.206734 -0.269669
C49   C     C_3   0.220709 0.868609 0.286889 -0.261638
C50   C     C_R   0.184459 0.662560 0.327564 0.026831
C51   C     C_R   0.703546 0.097291 0.895061 0.568246
C52   C     C_R   0.723054 0.688108 0.888164 0.551252
C53   C     C_R   0.118541 0.706256 0.905920 0.543079
C54   C     C_R   0.676136 0.106296 0.104039 0.569689
C55   C     C_R   0.695800 0.691124 0.097672 0.555427
C56   C     C_R   0.615936 0.229428 0.395204 0.557058
C57   C     C_R   0.093475 0.709368 0.112144 0.546811
C58   C     C_3   0.596077 0.818056 0.778184 -0.185910
C59   C     C_3   0.578062 0.801727 0.697975 0.230007
C60   C     C_3   0.841696 0.616205 0.772273 -0.224760
Cr1   Cr    Cr6+3 0.392960 0.397920 0.502240 1.025018
Cr2   Cr    Cr6+3 0.398340 0.708480 0.501250 1.057854
Cr3   Cr    Cr6+3 0.708670 0.393570 0.496460 1.039347
Cr4   Cr    Cr6+3 0.937650 0.938540 0.007610 1.030050
Cr5   Cr    Cr6+3 0.625330 0.937370 0.994520 0.987805
Cr6   Cr    Cr6+3 0.937940 0.625230 0.001190 1.013186
H1    H     H_    0.641365 0.887174 0.786115 0.179834
H2    H     H_    0.682342 0.447126 0.705870 0.129538
H3    H     H_    0.920772 0.513407 0.793467 0.150349
H4    H     H_    0.895233 0.487422 0.677866 0.122480
H5    H     H_    0.485946 0.143901 0.683192 0.192758
H6    H     H_    0.492162 0.134955 0.807862 0.140050
H7    H     H_    0.019271 0.028644 0.802969 0.142655
H8    H     H_    0.903589 0.267384 0.692254 0.129002
H9    H     H_    0.246012 0.832854 0.702101 0.186104
H10   H     H_    0.491384 0.866960 0.804839 0.077586
H11   H     H_    0.233111 0.834174 0.829686 0.113056
H12   H     H_    0.195477 0.367132 0.819700 0.115728
H13   H     H_    0.354704 0.387251 0.822089 0.144968
H14   H     H_    0.358016 0.384835 0.694947 0.164399
H15   H     H_    0.194558 0.369040 0.692809 0.142241
H16   H     H_    0.528683 0.869960 0.320252 0.117556
H17   H     H_    0.533878 0.895652 0.191163 0.133213
H18   H     H_    0.936901 0.435294 0.171456 0.132013
H19   H     H_    0.855885 0.308525 0.290337 0.176267
H20   H     H_    0.465041 0.838593 0.687080 0.137076
H21   H     H_    0.932826 0.425852 0.297853 0.080354
H22   H     H_    0.861363 0.089570 0.323435 0.112387
H23   H     H_    0.882842 0.057899 0.195768 0.169807
H24   H     H_    0.416029 0.121092 0.175783 0.148779
H25   H     H_    0.307833 0.314533 0.174800 0.145757
H26   H     H_    0.295440 0.313524 0.302058 0.154889
H27   H     H_    0.416756 0.121312 0.302769 0.128653
H28   H     H_    0.091587 0.529294 0.328858 0.115897
H29   H     H_    0.060858 0.535648 0.199885 0.116437
H30   H     H_    0.113810 0.949061 0.186080 0.170453
H31   H     H_    0.308469 0.862842 0.181080 0.144907
H32   H     H_    0.312610 0.872462 0.308620 0.158586
H33   H     H_    0.118560 0.944948 0.311540 0.131315
H34   H     H_    0.882573 0.689878 0.780200 0.138103
H35   H     H_    0.861537 0.661255 0.662155 0.179936
H36   H     H_    0.705795 0.473724 0.824902 0.203703
H37   H     H_    0.532511 0.621493 0.827057 0.116655
H38   H     H_    0.509141 0.592491 0.708647 0.106943
O1    O     O_R   0.507380 0.255700 0.581440 -0.527816
O2    O     O_R   0.524480 0.695810 0.424040 -0.500924
O3    O     O_R   0.736390 0.504290 0.414790 -0.519783
O4    O     O_R   0.691300 0.277290 0.422170 -0.502576
O5    O     O_3   0.499990 0.499990 0.499980 -0.274147
O6    O     O_R   0.089400 0.825690 0.930570 -0.544656
O7    O     O_R   0.818460 0.054440 0.929850 -0.482928
O8    O     O_R   0.606060 0.077150 0.915510 -0.544786
O9    O     O_R   0.646550 0.806680 0.917570 -0.516245
O10   O     O_R   0.837170 0.593410 0.915250 -0.515250
O11   O     O_R   0.065200 0.635530 0.931570 -0.504564
O12   O     O_R   0.280320 0.527350 0.578930 -0.515201
O13   O     O_R   0.068260 0.828890 0.091840 -0.530470
O14   O     O_R   0.798870 0.057410 0.079340 -0.480991
O15   O     O_R   0.584930 0.080350 0.076780 -0.536824
O16   O     O_R   0.626960 0.809650 0.067060 -0.510596
O17   O     O_R   0.816040 0.596610 0.076510 -0.509807
O18   O     O_R   0.045610 0.638500 0.081060 -0.515769
O19   O     O_3   0.833640 0.833710 0.001100 -0.259636
O20   O     O_R   0.260510 0.739590 0.584590 -0.489663
O21   O     O_R   0.532300 0.695080 0.573820 -0.492835
O22   O     O_R   0.744840 0.503500 0.576370 -0.538147
O23   O     O_R   0.699120 0.276560 0.571960 -0.494166
O24   O     O_R   0.498940 0.256500 0.419860 -0.514816
O25   O     O_R   0.272500 0.528080 0.429150 -0.504725
O26   O     O_R   0.252060 0.740380 0.423010 -0.514489
O27   O     O_3   0.916708 0.246296 0.830392 -0.610434
C61   C     C_3   0.048482 0.226491 0.853168 -0.025321
H39   H     H_    0.033086 0.331067 0.866441 0.171504
H40   H     H_    0.130588 0.179801 0.810813 0.118320
C62   C     C_3   0.097195 0.141365 0.921572 -0.261145
H41   H     H_    0.014168 0.191708 0.962939 0.202095
H42   H     H_    0.115657 0.034618 0.911594 0.178972
C63   C     C_3   0.233829 0.130738 0.948965 -0.458643
H43   H     H_    0.318775 0.078583 0.908703 0.148460
H44   H     H_    0.267001 0.068150 0.998320 0.150709
H45   H     H_    0.218307 0.236388 0.961080 0.147245
F1    F     F_    0.022681 0.054987 0.667219 -0.654829
F2    F     F_    0.848248 0.308103 0.156487 -0.648465
F3    F     F_    0.617389 0.882529 0.658830 -0.661854

loop_
_geom_bond_atom_site_label_1
_geom_bond_atom_site_label_2
_ccdc_geom_bond_type
C53   O6    A    
C44   C49   S    
C62   C63   S    
C14   F1    S    
C51   O8    A    
C31   H19   S    
C32   C45   S    
Cr2   O26   S    
C37   H22   S    
C35   C36   A    
C40   H27   S    
C9    C14   S    
Cr1   O5    S    
C55   O17   A    
C58   H10   S    
C7    C8    A    
Cr5   O8    S    
C52   O9    A    
C7    C11   A    
C48   H31   S    
C38   H23   S    
C26   C27   A    
C8    C13   S    
C20   H11   S    
C18   C24   A    
C14   H8    S    
C23   O23   A    
C28   C29   A    
C54   O15   A    
C29   H17   S    
C10   C15   A    
C30   C31   S    
C12   O22   A    
C2    H36   S    
C23   O1    A    
Cr4   O14   S    
C16   C53   S    
C56   O4    A    
C56   O24   A    
C49   H32   S    
C19   C20   A    
C34   O25   A    
C16   C17   A    
C21   H12   S    
Cr6   O18   S    
C1    O12   A    
C6    H38   S    
C4    C12   S    
Cr1   O1    S    
C43   C48   S    
C39   H24   S    
Cr1   O25   S    
C3    C60   S    
C15   C23   S    
C57   O18   A    
C21   C22   S    
C37   C41   A    
C36   C41   A    
C2    C6    S    
Cr6   O10   S    
C42   C57   S    
C39   H25   S    
C55   O16   A    
C25   C29   A    
C5    H35   S    
C34   C50   S    
C31   H21   S    
Cr6   O11   S    
C27   C31   S    
C22   H15   S    
C28   C32   A    
C4    C6    S    
C63   H43   S    
C39   C40   S    
C11   H6    S    
C8    C9    A    
Cr4   O7    S    
C12   O21   A    
C25   C26   A    
C28   H16   S    
C63   H45   S    
C17   C21   S    
Cr4   O13   S    
Cr3   O5    S    
C35   C39   S    
C43   C44   A    
C41   C56   S    
C37   C38   A    
C61   H39   S    
C49   H33   S    
Cr4   O6    S    
C46   H28   S    
C36   C40   S    
C16   C20   A    
C21   H13   S    
Cr1   O12   S    
C17   C18   A    
Cr5   O15   S    
Cr6   O17   S    
C40   H26   S    
C63   H44   S    
C13   O27   S    
C48   C49   S    
C13   H7    S    
C59   F3    S    
C26   C30   S    
C54   O14   A    
C42   C43   A    
Cr3   O3    S    
O27   C61   S    
C45   O2    A    
C57   O13   A    
C44   C50   A    
C33   C54   S    
C62   H42   S    
C46   C47   A    
C51   O7    A    
C48   H30   S    
C5    C60   S    
C27   C32   A    
C18   C22   S    
Cr5   O9    S    
Cr2   O20   S    
C25   C55   S    
C4    C5    S    
C60   H34   S    
C5    H4    S    
Cr2   O21   S    
C3    C52   S    
Cr2   O2    S    
C52   O10   A    
Cr4   O19   S    
C46   C50   A    
C33   C38   A    
C19   H9    S    
C2    C3    S    
C58   C59   S    
C1    O20   A    
C22   H14   S    
C10   H5    S    
Cr2   O5    S    
C60   H3    S    
C61   C62   S    
C4    C59   S    
C6    H2    S    
C33   C35   A    
Cr5   O16   S    
C19   C24   A    
Cr1   O24   S    
C42   C47   A    
Cr5   O19   S    
C30   H18   S    
C2    H37   S    
C59   H20   S    
Cr3   O22   S    
C62   H41   S    
C10   C11   A    
C30   F2    S    
C7    C51   S    
C3    C58   S    
C53   O11   A    
C58   H1    S    
C34   O26   A    
C1    C24   S    
C61   H40   S    
C47   H29   S    
Cr6   O19   S    
Cr3   O4    S    
C13   C14   S    
Cr3   O23   S    
C45   O3    A    
C9    C15   A    
