data_mof_unit_13789.cif
_audit_creation_date              2012-12-10T18:14:29-0500
_audit_creation_method            fapswitch 2.2
_symmetry_space_group_name_H-M    P1
_symmetry_Int_Tables_number       1
_space_group_crystal_system       triclinic
_cell_length_a                    12.564975
_cell_length_b                    12.896113
_cell_length_c                    19.171278
_cell_angle_alpha                 91.825035
_cell_angle_beta                  102.208448
_cell_angle_gamma                 81.499006
_cell_volume                      3002.88791655

loop_
_atom_site_label
_atom_site_type_symbol
_atom_type_description
_atom_site_fract_x
_atom_site_fract_y
_atom_site_fract_z
_atom_type_partial_charge
C1    C     C_R   0.439098 0.691183 0.484375 0.874004
C2    C     C_R   0.485224 0.544924 0.145209 0.092147
C3    C     C_R   0.730109 0.039593 0.494439 -0.201288
C4    C     C_R   0.500148 0.501179 0.634278 0.874307
C5    C     C_R   0.596706 0.192092 0.505622 -0.085491
C6    C     C_R   0.290996 0.842273 0.450372 -0.242729
C7    C     C_R   0.255958 0.945267 0.427260 -0.146581
C8    C     C_R   0.332391 0.009648 0.417781 0.218979
C9    C     C_R   0.446909 0.969141 0.434661 0.077213
C10   C     C_R   0.476644 0.860006 0.439015 -0.005454
C11   C     C_R   0.533657 0.030289 0.454946 0.029570
C12   C     C_R   0.497222 0.509157 0.709777 -0.081273
C13   C     C_R   0.644989 0.983388 0.461238 0.101838
C14   C     C_R   0.667502 0.878079 0.440076 0.165586
C15   C     C_R   0.582139 0.817345 0.428521 -0.177283
C16   C     C_R   0.561527 0.306469 0.509678 0.863883
C17   C     C_R   0.512735 0.132253 0.479442 -0.290526
C18   C     C_R   0.706628 0.141055 0.521028 0.205191
C19   C     C_R   0.401539 0.798379 0.456540 -0.112763
C20   C     C_R   0.078837 0.415169 0.364981 0.126013
C21   C     C_R   0.800905 0.618085 0.593625 -0.028675
C22   C     C_R   0.900009 0.658003 0.609154 -0.270128
C23   C     C_R   0.483414 0.553825 0.069411 0.282087
C24   C     C_R   0.977773 0.631562 0.566611 0.221944
C25   C     C_R   0.957490 0.557080 0.510664 -0.023269
C26   C     C_R   0.851748 0.524195 0.493656 0.148101
C27   C     C_R   0.037370 0.509530 0.471989 -0.046918
C28   C     C_R   0.498785 0.501645 0.365604 0.830618
C29   C     C_R   0.001535 0.464690 0.403863 0.124839
C30   C     C_R   0.889895 0.458870 0.380472 -0.300570
C31   C     C_R   0.827049 0.460440 0.432093 0.172968
C32   C     C_R   0.150751 0.495130 0.501133 -0.071774
C33   C     C_R   0.189828 0.406190 0.396985 -0.008413
C34   C     C_R   0.481189 0.548659 0.928412 0.294363
C35   C     C_R   0.410888 0.474234 0.733890 -0.192494
C36   C     C_R   0.401993 0.487028 0.805011 0.212761
C37   C     C_R   0.481466 0.536959 0.852453 0.071929
C38   C     C_R   0.568334 0.570524 0.827922 -0.206337
C39   C     C_R   0.576342 0.556616 0.757175 -0.196637
C40   C     C_3   0.781790 0.826861 0.435342 -0.915276
C41   C     C_3   0.287195 0.113238 0.380665 -0.968795
C42   C     C_3   0.046006 0.369500 0.291432 -0.960105
C43   C     C_3   0.310117 0.443616 0.828593 -0.901268
C44   C     C_3   0.070450 0.696514 0.576365 -0.941314
C45   C     C_R   0.391452 0.523964 0.167884 -0.161517
C46   C     C_3   0.789288 0.356731 0.437456 -0.777627
C47   C     C_3   0.797064 0.181596 0.574669 -0.944171
C48   C     C_R   0.396150 0.507541 0.239782 -0.191229
C49   C     C_R   0.494423 0.512821 0.289645 -0.030634
C50   C     C_R   0.587603 0.535077 0.266857 -0.206157
C51   C     C_R   0.583137 0.550674 0.195153 -0.163429
H1    H     H_    0.350102 0.436655 0.697128 0.157429
H2    H     H_    0.836292 0.821925 0.489181 0.248897
H3    H     H_    0.429754 0.164618 0.482125 0.199959
H4    H     H_    0.247955 0.168229 0.416707 0.244433
H5    H     H_    0.351635 0.148751 0.362213 0.250403
H6    H     H_    0.223828 0.101123 0.332274 0.251756
H7    H     H_    0.168856 0.975175 0.416930 0.149892
H8    H     H_    0.599625 0.735944 0.413748 0.183677
H9    H     H_    0.994514 0.430969 0.254752 0.252173
H10   H     H_    0.118866 0.338650 0.268773 0.242305
H11   H     H_    0.999312 0.303512 0.293917 0.248123
H12   H     H_    0.814933 0.002258 0.505077 0.157245
H13   H     H_    0.344245 0.390054 0.874690 0.251056
H14   H     H_    0.250680 0.508683 0.843364 0.255757
H15   H     H_    0.263683 0.398075 0.785504 0.231200
H16   H     H_    0.184016 0.522484 0.553777 0.159786
H17   H     H_    0.739892 0.642452 0.625303 0.149395
H18   H     H_    0.135847 0.667525 0.622947 0.244416
H19   H     H_    0.104943 0.696943 0.527705 0.243951
H20   H     H_    0.039502 0.779748 0.586359 0.239669
H21   H     H_    0.703690 0.355306 0.408426 0.254252
H22   H     H_    0.839984 0.291965 0.414239 0.199391
H23   H     H_    0.231049 0.796184 0.461406 0.167455
H24   H     H_    0.804956 0.336641 0.494149 0.256928
H25   H     H_    0.630115 0.608288 0.863632 0.157511
H26   H     H_    0.643221 0.584774 0.739394 0.156456
H27   H     H_    0.315201 0.518247 0.130061 0.149652
H28   H     H_    0.322901 0.491380 0.256225 0.156171
H29   H     H_    0.663979 0.541202 0.304314 0.164115
H30   H     H_    0.770544 0.258586 0.597498 0.260343
H31   H     H_    0.824149 0.125888 0.620127 0.244454
H32   H     H_    0.869347 0.185273 0.550601 0.236469
H33   H     H_    0.251740 0.372078 0.368121 0.146852
H34   H     H_    0.861075 0.420935 0.330228 0.176880
H35   H     H_    0.913786 0.713801 0.652428 0.159269
H36   H     H_    0.656434 0.567084 0.178896 0.148619
H37   H     H_    0.781969 0.745939 0.413601 0.244322
H38   H     H_    0.815598 0.873235 0.399583 0.240164
N1    N     N_R   0.577925 0.537617 0.976639 -0.177045
N2    N     N_R   0.579008 0.540099 0.045977 -0.179481
N3    N     N_R   0.386652 0.568166 0.021216 -0.179507
N4    N     N_R   0.385660 0.566156 0.951838 -0.170391
N5    N     N_R   0.222200 0.444680 0.463280 -0.126148
N6    N     N_R   0.776960 0.554780 0.536340 -0.119454
O1    O     O_R   0.366740 0.627160 0.482470 -0.603042
O2    O     O_R   0.544830 0.662520 0.505920 -0.612910
O3    O     O_R   0.410920 0.482320 0.590130 -0.619471
O4    O     O_R   0.589010 0.517690 0.613590 -0.620576
O5    O     O_R   0.455170 0.337480 0.494080 -0.610742
O6    O     O_R   0.633260 0.372840 0.517530 -0.609744
O7    O     O_R   0.410990 0.482310 0.386410 -0.622263
O8    O     O_R   0.589080 0.517680 0.409870 -0.625865
Zn1   Zn    Zn3+2 0.381090 0.476390 0.484340 0.932042
Zn2   Zn    Zn3+2 0.618910 0.523610 0.515660 0.925553

loop_
_geom_bond_atom_site_label_1
_geom_bond_atom_site_label_2
_ccdc_geom_bond_type
C32   N5    A    
C4    O3    A    
C27   C29   A    
C34   C37   S    
C35   C36   A    
C34   N4    A    
C18   C47   S    
C7    C8    A    
C38   H25   S    
C6    C19   A    
C29   C30   A    
C44   H20   S    
C39   H26   S    
C48   H28   S    
C36   C37   A    
C10   C15   A    
C1    O1    A    
C30   C31   A    
C5    C17   A    
O5    Zn1   S    
C3    C18   A    
C47   H31   S    
C41   H4    S    
C5    C16   S    
N6    Zn2   S    
C8    C9    A    
C31   C46   S    
C44   H19   S    
C45   H27   S    
C47   H32   S    
C40   H38   S    
C4    C12   S    
C9    C10   A    
C42   H11   S    
C7    H7    S    
C46   H21   S    
C3    C13   A    
O2    Zn2   S    
C22   H35   S    
N5    Zn1   S    
C26   C31   A    
C13   C14   A    
C33   N5    A    
C46   H24   S    
C43   H13   S    
C6    H23   S    
C20   C29   A    
C2    C45   A    
O6    Zn2   S    
O4    Zn2   S    
C1    C19   S    
C51   H36   S    
C24   C25   A    
C1    O2    A    
C16   O5    A    
C5    C18   A    
C21   N6    A    
C25   C26   A    
C12   C35   A    
C34   N1    A    
C41   H5    S    
C37   C38   A    
C28   C49   S    
C10   C19   A    
C43   H14   S    
C50   C51   A    
C44   H18   S    
O8    Zn2   S    
C8    C41   S    
C30   H34   S    
O7    Zn1   S    
C9    C11   A    
C42   H10   S    
C32   H16   S    
C20   C33   A    
C48   C49   A    
C40   H2    S    
O1    Zn1   S    
C21   H17   S    
C24   C44   S    
C23   N2    A    
C42   H9    S    
C35   H1    S    
C45   C48   A    
C26   N6    A    
C11   C17   A    
C27   C32   A    
C23   N3    A    
C15   H8    S    
C50   H29   S    
C20   C42   S    
C6    C7    A    
C3    H12   S    
C25   C27   A    
C40   H37   S    
C12   C39   A    
C41   H6    S    
C11   C13   A    
C28   O8    A    
N1    N2    A    
C38   C39   A    
C43   H15   S    
O3    Zn1   S    
N3    N4    A    
C22   C24   A    
C47   H30   S    
C33   H33   S    
C2    C51   A    
C14   C40   S    
C28   O7    A    
C16   O6    A    
C49   C50   A    
C4    O4    A    
C2    C23   S    
C14   C15   A    
C36   C43   S    
C21   C22   A    
C17   H3    S    
C46   H22   S    
