data_mof_unit_7827.cif
_audit_creation_date              2012-12-11T16:08:33-0500
_audit_creation_method            fapswitch 2.2
_symmetry_space_group_name_H-M    P1
_symmetry_Int_Tables_number       1
_space_group_crystal_system       triclinic
_cell_length_a                    12.975066
_cell_length_b                    13.281496
_cell_length_c                    27.71087
_cell_angle_alpha                 94.885872
_cell_angle_beta                  90.28497
_cell_angle_gamma                 119.335728
_cell_volume                      4141.86587609

loop_
_atom_site_label
_atom_site_type_symbol
_atom_type_description
_atom_site_fract_x
_atom_site_fract_y
_atom_site_fract_z
_atom_type_partial_charge
C1    C     C_R   0.627813 0.895168 0.427483 0.547803
C2    C     C_R   0.579399 0.257941 0.219975 -0.104570
C3    C     C_R   0.567925 0.242372 0.269322 -0.103036
C4    C     C_R   0.663132 0.312149 0.302846 0.036232
C5    C     C_R   0.686416 0.343007 0.203796 0.035764
C6    C     C_1   0.695210 0.366453 0.153738 -0.058246
C7    C     C_1   0.649953 0.293044 0.353380 -0.058630
C8    C     C_1   0.703704 0.394274 0.113013 -0.014413
C9    C     C_R   0.197649 0.755489 0.347912 -0.130271
C10   C     C_R   0.186871 0.750577 0.298024 0.008885
C11   C     C_R   0.175177 0.745936 0.197480 0.010138
C12   C     C_R   0.600881 0.221775 0.440492 0.545294
C13   C     C_R   0.187459 0.660272 0.218752 -0.132442
C14   C     C_R   0.191242 0.661476 0.268862 -0.134831
C15   C     C_R   0.159910 0.738459 0.147593 -0.130054
C16   C     C_R   0.128234 0.812450 0.126621 -0.006067
C17   C     C_R   0.197127 0.939071 0.356816 -0.137222
C18   C     C_R   0.178298 0.931427 0.306560 0.011199
C19   C     C_R   0.178070 0.839189 0.277065 0.061229
C20   C     C_R   0.165342 0.016716 0.285018 -0.134751
C21   C     C_R   0.151285 0.009958 0.234586 -0.133740
C22   C     C_R   0.153284 0.919617 0.205151 0.010723
C23   C     C_R   0.269159 0.875991 0.425527 0.546277
C24   C     C_R   0.169781 0.835560 0.226554 0.060354
C25   C     C_R   0.131821 0.907182 0.154955 -0.136338
C26   C     C_R   0.212182 0.853611 0.377222 -0.004474
C27   C     C_R   0.754036 0.934561 0.358146 -0.129305
C28   C     C_R   0.760225 0.924939 0.308232 0.012776
C29   C     C_R   0.763964 0.914518 0.207528 0.011930
C30   C     C_R   0.856573 0.007302 0.236044 -0.126518
C31   C     C_R   0.855618 0.011553 0.286248 -0.125780
C32   C     C_R   0.768410 0.906834 0.157624 -0.126798
C33   C     C_R   0.686256 0.805710 0.129118 -0.005478
C34   C     C_R   0.627454 0.898506 0.564861 0.547868
C35   C     C_R   0.560995 0.759867 0.352001 -0.133063
C36   C     C_R   0.568250 0.746040 0.301838 0.014330
C37   C     C_R   0.666124 0.831524 0.279781 0.062100
C38   C     C_R   0.476703 0.652260 0.273068 -0.126520
C39   C     C_R   0.482297 0.643243 0.222633 -0.126644
C40   C     C_R   0.578069 0.729424 0.200403 0.014792
C41   C     C_R   0.669086 0.825195 0.229217 0.062327
C42   C     C_R   0.588025 0.719318 0.150183 -0.135715
C43   C     C_R   0.650993 0.857684 0.379722 -0.005051
C44   C     C_R   0.743476 0.299728 0.650532 -0.134798
C45   C     C_R   0.604149 0.228560 0.577982 0.547001
C46   C     C_R   0.759448 0.327569 0.700725 0.012898
C47   C     C_R   0.773069 0.358230 0.802553 0.012131
C48   C     C_R   0.857532 0.340339 0.777690 -0.134196
C49   C     C_R   0.849987 0.323808 0.727037 -0.132876
C50   C     C_R   0.778359 0.373466 0.853277 -0.136517
C51   C     C_R   0.692333 0.390550 0.877296 -0.002581
C52   C     C_R   0.575287 0.333285 0.649373 -0.129002
C53   C     C_R   0.587726 0.357788 0.699380 0.014228
C54   C     C_R   0.677800 0.351344 0.725394 0.063738
C55   C     C_R   0.505624 0.379547 0.723972 -0.128089
C56   C     C_R   0.271688 0.879320 0.563357 0.547241
C57   C     C_R   0.508880 0.388998 0.774317 -0.131422
C58   C     C_R   0.595825 0.379245 0.800388 0.009457
C59   C     C_R   0.682733 0.363572 0.776135 0.063633
C60   C     C_R   0.598689 0.388030 0.850500 -0.129385
C61   C     C_R   0.646439 0.294895 0.625476 -0.005756
C62   C     C_1   0.221390 0.861694 0.609907 -0.013193
C63   C     C_R   0.171453 0.745767 0.722562 -0.077014
C64   C     C_R   0.159338 0.736300 0.772827 0.039889
C65   C     C_R   0.140959 0.911475 0.780237 -0.124624
C66   C     C_R   0.152897 0.919200 0.730448 -0.115844
C67   C     C_1   0.632111 0.267628 0.394457 -0.014407
C68   C     C_R   0.168089 0.836419 0.701573 0.020834
C69   C     C_R   0.144688 0.821327 0.801650 0.037753
C70   C     C_1   0.125246 0.812439 0.852745 -0.069595
C71   C     C_1   0.191825 0.849581 0.651126 -0.060548
C72   C     C_1   0.100686 0.796955 0.894346 -0.020512
C73   C     C_1   0.648282 0.859016 0.608665 -0.017555
C74   C     C_R   0.788051 0.850336 0.718347 -0.102944
C75   C     C_R   0.800085 0.835038 0.766990 -0.101210
C76   C     C_R   0.586613 0.721814 0.769691 -0.103040
C77   C     C_R   0.574555 0.737147 0.721028 -0.104690
C78   C     C_R   0.770596 0.396606 0.286670 -0.105891
C79   C     C_R   0.675185 0.802723 0.695393 0.039355
C80   C     C_R   0.699392 0.772392 0.793018 0.041768
C81   C     C_1   0.712392 0.764205 0.844005 -0.059909
C82   C     C_1   0.661914 0.830731 0.647420 -0.059195
C83   C     C_1   0.726619 0.759440 0.886656 -0.016017
C84   C     C_R   0.065682 0.773206 0.078996 0.549844
C85   C     C_R   0.717076 0.441371 0.067284 0.550321
C86   C     C_R   0.720709 0.782807 0.081084 0.558594
C87   C     C_R   0.056390 0.766167 0.941232 0.539037
C88   C     C_R   0.710951 0.436495 0.928332 0.537939
C89   C     C_R   0.782077 0.412212 0.237250 -0.104417
C90   C     C_R   0.748895 0.754040 0.936950 0.564220
Cr1   Cr    Cr6+3 0.416430 0.829200 0.492370 1.019515
Cr2   Cr    Cr6+3 0.674630 0.087020 0.504170 1.020074
Cr3   Cr    Cr6+3 0.408920 0.083740 0.503490 1.021054
Cr4   Cr    Cr6+3 0.914010 0.832750 0.013970 1.016339
Cr5   Cr    Cr6+3 0.922310 0.578600 0.003000 1.015418
Cr6   Cr    Cr6+3 0.656280 0.574630 0.003870 1.019252
H1    H     H_    0.845017 0.450531 0.312169 0.111642
H2    H     H_    0.138589 0.075042 0.218626 0.101090
H3    H     H_    0.165257 0.087987 0.307141 0.104275
H4    H     H_    0.207064 0.014308 0.379472 0.123235
H5    H     H_    0.843427 0.975268 0.141609 0.132562
H6    H     H_    0.824690 0.009055 0.379539 0.131868
H7    H     H_    0.930554 0.075509 0.219520 0.099657
H8    H     H_    0.927957 0.083882 0.307842 0.102705
H9    H     H_    0.523811 0.641749 0.128139 0.123870
H10   H     H_    0.411687 0.569336 0.201048 0.103492
H11   H     H_    0.400932 0.586103 0.289558 0.100062
H12   H     H_    0.864884 0.479243 0.225221 0.119044
H13   H     H_    0.481840 0.699442 0.368779 0.122951
H14   H     H_    0.851222 0.376343 0.873841 0.123354
H15   H     H_    0.800227 0.272407 0.631847 0.128989
H16   H     H_    0.927962 0.337010 0.797400 0.108044
H17   H     H_    0.913578 0.306090 0.708495 0.104268
H18   H     H_    0.531924 0.401760 0.868501 0.137600
H19   H     H_    0.443146 0.403368 0.792857 0.102655
H20   H     H_    0.436423 0.385027 0.704292 0.104983
H21   H     H_    0.502299 0.332676 0.629834 0.131300
H22   H     H_    0.184890 0.684093 0.699249 0.113910
H23   H     H_    0.504441 0.204870 0.194598 0.114189
H24   H     H_    0.128436 0.975849 0.802134 0.107963
H25   H     H_    0.151683 0.990434 0.714586 0.110145
H26   H     H_    0.866484 0.901964 0.699105 0.108401
H27   H     H_    0.887714 0.874381 0.784630 0.110462
H28   H     H_    0.508111 0.672986 0.789375 0.105109
H29   H     H_    0.486769 0.700732 0.703827 0.103700
H30   H     H_    0.484588 0.176234 0.281376 0.119975
H31   H     H_    0.159929 0.666752 0.125704 0.132842
H32   H     H_    0.206882 0.687811 0.363380 0.130909
H33   H     H_    0.190941 0.590738 0.196649 0.103856
H34   H     H_    0.199427 0.593840 0.284825 0.099184
H35   H     H_    0.109095 0.965595 0.138643 0.123327
O1    O     O_R   0.296680 0.802170 0.437540 -0.524414
O2    O     O_R   0.662610 0.183990 0.557860 -0.503761
O3    O     O_R   0.500730 0.201280 0.562180 -0.518121
O4    O     O_R   0.312500 0.978850 0.548170 -0.493793
O5    O     O_3   0.499990 0.999990 0.500010 -0.241401
O6    O     O_R   0.820790 0.857990 0.068830 -0.519598
O7    O     O_R   0.016700 0.827330 0.062850 -0.501587
O8    O     O_R   0.041970 0.673520 0.060040 -0.517275
O9    O     O_R   0.817980 0.483660 0.048840 -0.490789
O10   O     O_R   0.637200 0.461990 0.052510 -0.507974
O11   O     O_R   0.664790 0.681920 0.057970 -0.494436
O12   O     O_R   0.525380 0.838530 0.443500 -0.503215
O13   O     O_R   0.815840 0.852920 0.961840 -0.503029
O14   O     O_R   0.012100 0.822630 0.963670 -0.511520
O15   O     O_R   0.037010 0.668460 0.953040 -0.511236
O16   O     O_R   0.813390 0.478970 0.949660 -0.502733
O17   O     O_R   0.632250 0.456930 0.945520 -0.529231
O18   O     O_R   0.660200 0.677230 0.958780 -0.494861
O19   O     O_3   0.830870 0.661990 0.006950 -0.264995
O20   O     O_R   0.702130 0.995190 0.446810 -0.519692
O21   O     O_R   0.661770 0.181390 0.458760 -0.494496
O22   O     O_R   0.499820 0.198480 0.455280 -0.511023
O23   O     O_R   0.311660 0.976250 0.449080 -0.500470
O24   O     O_R   0.297580 0.804960 0.544440 -0.509653
O25   O     O_R   0.526220 0.841130 0.542590 -0.494826
O26   O     O_R   0.703030 0.997990 0.553710 -0.511615
C91   C     C_3   0.161061 0.637823 0.796722 -0.268302
C92   C     C_3   0.182969 0.553037 0.763414 -0.461461
H36   H     H_    0.111605 0.508241 0.734314 0.151564
H37   H     H_    0.270457 0.599349 0.747296 0.142326
H38   H     H_    0.183043 0.486146 0.784858 0.134512
H39   H     H_    0.231628 0.676116 0.826342 0.152129
H40   H     H_    0.074858 0.587322 0.813359 0.157003

loop_
_geom_bond_atom_site_label_1
_geom_bond_atom_site_label_2
_ccdc_geom_bond_type
C39   H10   S    
C66   C68   A    
C87   O15   A    
C12   O21   A    
C60   H18   S    
C35   C36   A    
C42   H9    S    
C50   H14   S    
C12   O22   A    
Cr3   O5    S    
C72   C87   S    
C3    H30   S    
C62   C71   T    
C57   H19   S    
C53   C54   A    
C4    C78   A    
C5    C6    S    
C46   C49   A    
Cr5   O9    S    
C75   H27   S    
C33   C42   A    
Cr3   O23   S    
C8    C85   S    
C29   C32   A    
C52   C61   A    
C56   O24   A    
C14   H34   S    
C38   C39   A    
C55   H20   S    
C58   C60   A    
C15   C16   A    
C11   C24   A    
C16   C84   S    
C18   C19   A    
C23   C26   S    
C45   C61   S    
C38   H11   S    
C86   O6    A    
Cr6   O10   S    
C11   C15   A    
C1    C43   S    
Cr1   O5    S    
Cr2   O2    S    
C84   O8    A    
C22   C25   A    
C30   H7    S    
Cr2   O21   S    
C92   H37   S    
C49   H17   S    
C35   C43   A    
C75   C80   A    
C1    O20   A    
C18   C20   A    
C35   H13   S    
C91   H40   S    
C52   H21   S    
Cr4   O14   S    
C40   C42   A    
C84   O7    A    
C15   H31   S    
C21   C22   A    
Cr2   O5    S    
Cr5   O15   S    
C78   H1    S    
C90   O18   A    
C81   C83   T    
Cr6   O11   S    
C44   C46   A    
C9    C26   A    
C50   C51   A    
C47   C50   A    
Cr1   O12   S    
C54   C59   A    
C53   C55   A    
C78   C89   A    
Cr6   O17   S    
C12   C67   S    
C92   H38   S    
C9    H32   S    
C74   C75   A    
C76   H28   S    
C47   C48   A    
Cr5   O16   S    
C76   C77   A    
Cr3   O3    S    
C10   C14   A    
C85   O10   A    
C39   C40   A    
C63   H22   S    
C6    C8    T    
Cr1   O1    S    
C4    C7    S    
C58   C59   A    
C47   C59   A    
C88   O16   A    
Cr2   O26   S    
C33   C86   S    
C44   H15   S    
Cr1   O24   S    
C29   C30   A    
C1    O12   A    
C92   H36   S    
C74   H26   S    
C10   C19   A    
Cr6   O19   S    
C46   C54   A    
Cr2   O20   S    
C66   H25   S    
C17   C18   A    
C88   O17   A    
C77   C79   A    
Cr5   O19   S    
C45   O3    A    
C64   C69   A    
C85   O9    A    
C91   H39   S    
C40   C41   A    
C48   H16   S    
C74   C79   A    
C55   C57   A    
C91   C92   S    
Cr4   O7    S    
C22   C24   A    
C2    C5    A    
C17   C26   A    
C3    C4    A    
C25   H35   S    
C73   C82   T    
C56   O4    A    
C77   H29   S    
C52   C53   A    
C86   O11   A    
C9    C10   A    
C16   C25   A    
C83   C90   S    
C63   C68   A    
C48   C49   A    
C87   O14   A    
C29   C41   A    
C45   O2    A    
C28   C31   A    
C76   C80   A    
C80   C81   S    
Cr3   O4    S    
C51   C88   S    
C79   C82   S    
C2    H23   S    
C34   O25   A    
C44   C61   A    
Cr4   O19   S    
C27   H6    S    
Cr5   O8    S    
Cr4   O13   S    
C32   C33   A    
Cr3   O22   S    
C2    C3    A    
Cr1   O25   S    
C31   H8    S    
C21   H2    S    
C11   C13   A    
C57   C58   A    
C30   C31   A    
C20   H3    S    
C28   C37   A    
C68   C71   S    
C65   C69   A    
Cr6   O18   S    
C89   H12   S    
C36   C38   A    
C65   H24   S    
C23   O1    A    
C19   C24   A    
C56   C62   S    
C37   C41   A    
C69   C70   S    
C17   H4    S    
C90   O13   A    
C34   C73   S    
C7    C67   T    
C63   C64   A    
C34   O26   A    
C27   C43   A    
C20   C21   A    
C36   C37   A    
C65   C66   A    
C23   O23   A    
C64   C91   S    
C27   C28   A    
Cr4   O6    S    
C13   H33   S    
C32   H5    S    
C70   C72   T    
C51   C60   A    
C13   C14   A    
C5    C89   A    
