data_mof_unit_55532.cif
_audit_creation_date              2012-12-11T14:50:48-0500
_audit_creation_method            fapswitch 2.2
_symmetry_space_group_name_H-M    P1
_symmetry_Int_Tables_number       1
_space_group_crystal_system       triclinic
_cell_length_a                    20.706106
_cell_length_b                    7.111721
_cell_length_c                    20.335954
_cell_angle_alpha                 89.699519
_cell_angle_beta                  101.592686
_cell_angle_gamma                 90.437044
_cell_volume                      2933.39888157

loop_
_atom_site_label
_atom_site_type_symbol
_atom_type_description
_atom_site_fract_x
_atom_site_fract_y
_atom_site_fract_z
_atom_type_partial_charge
O1    O     O_R   0.423690 0.494470 0.435930 -0.536928
O2    O     O_R   0.576310 0.994470 0.564070 -0.536794
O3    O     O_R   0.556070 0.822310 0.435760 -0.537278
O4    O     O_R   0.443930 0.322310 0.564240 -0.536305
C1    C     C_R   0.575709 0.655750 0.420758 0.724543
C2    C     C_R   0.424207 0.154147 0.579153 0.724027
O5    O     O_R   0.422940 0.824080 0.428040 -0.541204
O6    O     O_R   0.577060 0.324080 0.571960 -0.541794
O7    O     O_R   0.442240 0.995960 0.556300 -0.532704
O8    O     O_R   0.557760 0.495960 0.443700 -0.532635
C3    C     C_R   0.398420 0.656792 0.410655 0.693569
C4    C     C_R   0.601573 0.157255 0.589346 0.693022
O9    O     O_3   0.506490 0.661310 0.542090 -0.371762
O10   O     O_3   0.493510 0.161310 0.457910 -0.371767
V1    V     V_3+5 0.498800 0.935560 0.492190 1.404432
V2    V     V_3+5 0.501200 0.435560 0.507810 1.403910
C5    C     C_R   0.838102 0.072429 0.856325 -0.067216
C6    C     C_R   0.162102 0.574059 0.143312 -0.065925
C7    C     C_R   0.661998 0.161450 0.643593 -0.066279
C8    C     C_R   0.337891 0.659990 0.356551 -0.065869
C9    C     C_R   0.753725 0.346161 0.707371 -0.202742
C10   C     C_R   0.245303 0.841806 0.294053 -0.203275
C11   C     C_R   0.700994 0.326709 0.652865 -0.162054
C12   C     C_R   0.298152 0.822304 0.348409 -0.161847
C13   C     C_R   0.678293 0.013127 0.689751 -0.244075
C14   C     C_R   0.322308 0.514563 0.309355 -0.244202
C15   C     C_R   0.731229 0.032660 0.745287 0.159401
C16   C     C_R   0.269285 0.534274 0.253929 0.158930
C17   C     C_R   0.769073 0.200964 0.754445 0.159405
C18   C     C_R   0.230621 0.699663 0.245977 0.158506
C19   C     C_R   0.821933 0.220599 0.810063 -0.241949
C20   C     C_R   0.177599 0.719366 0.190557 -0.242724
C21   C     C_R   0.799194 0.907025 0.846936 -0.163166
C22   C     C_R   0.201869 0.411850 0.151396 -0.168160
C23   C     C_R   0.746581 0.887425 0.792334 -0.202837
C24   C     C_R   0.254641 0.392207 0.205814 -0.200676
H1    H     H_    0.851577 0.348011 0.816045 0.124707
H2    H     H_    0.147259 0.844228 0.185523 0.124035
H3    H     H_    0.809969 0.790200 0.881712 0.129414
H4    H     H_    0.191598 0.297543 0.115732 0.131550
H5    H     H_    0.648635 0.885743 0.683801 0.123829
H6    H     H_    0.352605 0.389624 0.314413 0.123558
C25   C     C_3   0.263548 0.243216 0.814628 -0.444766
C26   C     C_3   0.735558 0.705314 0.181226 -0.414950
C27   C     C_3   0.244024 0.899712 0.791237 0.350001
C28   C     C_3   0.777679 0.395508 0.235697 0.350932
C29   C     C_3   0.289689 0.907556 0.738197 -0.326078
C30   C     C_3   0.719306 0.413470 0.273892 -0.295596
H7    H     H_    0.363358 0.204744 0.796997 0.168602
H8    H     H_    0.636815 0.688256 0.204115 0.169484
H9    H     H_    0.278403 0.879541 0.840097 0.049839
H10   H     H_    0.759009 0.312395 0.189506 0.035146
H11   H     H_    0.340341 0.862337 0.762227 0.096432
H12   H     H_    0.672900 0.362219 0.241144 0.086352
H13   H     H_    0.271945 0.806204 0.696890 0.197616
H14   H     H_    0.727545 0.321246 0.319197 0.187566
C31   C     C_1   0.378528 0.139541 0.624641 -0.193316
C32   C     C_1   0.621721 0.646070 0.375649 -0.191872
C33   C     C_3   0.208534 0.093955 0.792218 0.162015
C34   C     C_3   0.798856 0.598796 0.216236 0.151213
C35   C     C_3   0.314020 0.245637 0.767841 -0.443619
C36   C     C_3   0.687204 0.733933 0.229363 -0.446943
C37   C     C_3   0.292388 0.109055 0.708399 0.167622
C38   C     C_3   0.710362 0.620612 0.294750 0.171946
C39   C     C_3   0.221589 0.163066 0.671246 0.336190
C40   C     C_3   0.778235 0.703064 0.330901 0.361380
C41   C     C_3   0.172387 0.143499 0.719851 -0.344421
C42   C     C_3   0.828427 0.701148 0.282947 -0.336688
C43   C     C_1   0.339934 0.123641 0.662253 -0.038358
C44   C     C_1   0.661059 0.634414 0.338823 -0.057764
C45   C     C_1   0.161069 0.097028 0.838614 -0.076820
C46   C     C_1   0.845263 0.597058 0.168358 -0.094496
C47   C     C_1   0.121965 0.092654 0.876049 -0.225379
C48   C     C_1   0.881769 0.590640 0.128188 -0.202374
H15   H     H_    0.145314 0.278031 0.720121 0.109771
H16   H     H_    0.842072 0.847497 0.273350 0.117333
H17   H     H_    0.134767 0.033064 0.701608 0.187556
H18   H     H_    0.875053 0.632949 0.308064 0.171430
H19   H     H_    0.223192 0.314691 0.656718 0.055729
H20   H     H_    0.770026 0.853647 0.342478 0.042177
H21   H     H_    0.241750 0.383793 0.812961 0.206632
H22   H     H_    0.748052 0.844418 0.162028 0.163602
H23   H     H_    0.318808 0.391223 0.748836 0.167860
H24   H     H_    0.684537 0.886128 0.241045 0.158875
O11   O     O_R   0.942280 0.741210 0.056360 -0.540060
O12   O     O_R   0.057720 0.241210 0.943640 -0.533316
O13   O     O_R   0.077070 0.409690 0.071960 -0.539282
O14   O     O_R   0.922930 0.909690 0.928040 -0.540017
C49   C     C_R   0.101615 0.577233 0.089230 0.691890
C50   C     C_R   0.898361 0.076742 0.910776 0.696603
O15   O     O_R   0.943940 0.411580 0.064250 -0.534970
O16   O     O_R   0.056060 0.911580 0.935750 -0.539429
O17   O     O_R   0.923670 0.239840 0.935920 -0.533814
O18   O     O_R   0.076330 0.739840 0.064080 -0.534659
C51   C     C_R   0.924976 0.580127 0.079906 0.728248
C52   C     C_R   0.075927 0.081069 0.921222 0.736927
O19   O     O_3   0.993540 0.572620 0.957940 -0.372811
O20   O     O_3   0.006460 0.072620 0.042060 -0.375078
V3    V     V_3+5 0.001200 0.298330 0.007800 1.372750
V4    V     V_3+5 0.998800 0.798330 0.992200 1.371421
O21   O     O_3   0.201209 0.041792 0.615353 -0.570420
C53   C     C_3   0.175514 0.142075 0.555616 0.081615
H25   H     H_    0.175699 0.045153 0.512987 0.147244
H26   H     H_    0.207298 0.263996 0.547810 0.101347
C54   C     C_3   0.104262 0.203351 0.553736 -0.327676
H27   H     H_    0.074626 0.079853 0.564164 0.202750
H28   H     H_    0.103295 0.310857 0.592932 0.186192
C55   C     C_3   0.073015 0.286550 0.485532 -0.833068
H29   H     H_    0.101649 0.411226 0.474300 0.233721
H30   H     H_    0.021825 0.331022 0.486080 0.235501
H31   H     H_    0.071342 0.180152 0.445413 0.227158
O22   O     O_3   0.803542 0.593696 0.389051 -0.557024
C56   C     C_3   0.819858 0.705543 0.447509 0.084564
H32   H     H_    0.824662 0.609662 0.491503 0.145573
H33   H     H_    0.779816 0.805797 0.451844 0.101787
C57   C     C_3   0.885928 0.808236 0.450845 -0.331360
H34   H     H_    0.924785 0.704059 0.447158 0.201569
H35   H     H_    0.882186 0.908580 0.408216 0.191056
C58   C     C_3   0.906023 0.917370 0.516235 -0.816317
H36   H     H_    0.868050 0.023540 0.520619 0.235835
H37   H     H_    0.953539 0.991321 0.516812 0.233996
H38   H     H_    0.912279 0.820065 0.559932 0.227223
H39   H     H_    0.782070 0.475901 0.713013 0.120673
H40   H     H_    0.216347 0.969278 0.289309 0.119838
H41   H     H_    0.718274 0.757621 0.786644 0.120829
H42   H     H_    0.283604 0.264755 0.210545 0.121453
H43   H     H_    0.690175 0.443550 0.618101 0.128114
H44   H     H_    0.308494 0.936825 0.383974 0.127480
H45   H     H_    0.289342 0.216516 0.867314 0.154188
H46   H     H_    0.710266 0.623460 0.136826 0.152942
O23   O     O_3   0.199903 0.743624 0.775567 -0.578162
C59   C     C_3   0.168993 0.678192 0.828325 0.076834
H47   H     H_    0.150043 0.534482 0.814532 0.141309
H48   H     H_    0.123155 0.756572 0.828269 0.140258
C60   C     C_3   0.213121 0.669561 0.899539 -0.400554
H49   H     H_    0.261667 0.606943 0.897587 0.190427
H50   H     H_    0.221635 0.813284 0.920647 0.189087
C61   C     C_3   0.181433 0.553882 0.947990 -0.761685
H51   H     H_    0.129958 0.599263 0.946067 0.251494
H52   H     H_    0.209980 0.572289 0.999971 0.209165
H53   H     H_    0.181967 0.403024 0.935236 0.227750
O24   O     O_3   0.827933 0.294003 0.279757 -0.563616
C62   C     C_3   0.885187 0.252205 0.254588 0.096915
H54   H     H_    0.915863 0.160663 0.292847 0.140324
H55   H     H_    0.915895 0.379490 0.252529 0.117206
C63   C     C_3   0.872367 0.145603 0.187592 -0.402074
H56   H     H_    0.837083 0.029663 0.188212 0.193838
H57   H     H_    0.850201 0.237271 0.145171 0.191470
C64   C     C_3   0.936342 0.067723 0.173418 -0.732582
H58   H     H_    0.974495 0.180049 0.177376 0.222900
H59   H     H_    0.926441 0.012869 0.121741 0.258888
H60   H     H_    0.954798 0.952033 0.209009 0.205089

loop_
_geom_bond_atom_site_label_1
_geom_bond_atom_site_label_2
_ccdc_geom_bond_type
C62   C63   S    
C40   C42   S    
C37   C39   S    
C9    H39   S    
O21   C53   S    
C39   H19   S    
C15   C17   A    
C41   H17   S    
C39   O21   S    
O2    C4    A    
C2    O7    A    
C60   H49   S    
C28   O24   S    
C55   H29   S    
C30   H12   S    
C54   H28   S    
C25   C35   S    
C21   H3    S    
C1    C32   S    
C22   H4    S    
C11   H43   S    
C63   H56   S    
C26   H22   S    
C64   H59   S    
C29   C37   S    
C30   C38   S    
C34   C46   S    
C26   H46   S    
C62   H54   S    
C28   H10   S    
O16   C52   A    
C57   H34   S    
C53   C54   S    
C35   C37   S    
C49   O18   A    
C23   H41   S    
C36   C38   S    
C33   C41   S    
C62   H55   S    
C37   C43   S    
C57   H35   S    
C59   H47   S    
C39   C41   S    
O1    C3    A    
C38   C44   S    
O17   V3    S    
O13   V3    S    
C30   H14   S    
C25   C33   S    
C29   H11   S    
C56   C57   S    
C58   H37   S    
O5    V1    S    
O6    V2    S    
C2    C31   S    
C5    C21   A    
O22   C56   S    
O19   V3    S    
O5    C3    A    
C63   H57   S    
C27   C29   S    
C42   H18   S    
C54   C55   S    
C28   C30   S    
C3    C8    S    
H7    C35   S    
C8    C12   A    
C25   H45   S    
C46   C48   T    
C35   H23   S    
C64   H60   S    
C13   H5    S    
C45   C47   T    
C32   C44   T    
C15   C23   A    
C9    C17   A    
C19   H1    S    
C38   C40   S    
O4    V2    S    
C7    C11   A    
O12   V3    S    
C63   C64   S    
O18   V4    S    
O6    C4    A    
O1    V2    S    
C53   H26   S    
O2    V1    S    
C6    C22   A    
C16   C24   A    
O14   V4    S    
C60   C61   S    
O12   C52   A    
O4    C2    A    
O14   C50   A    
C27   O23   S    
C20   H2    S    
C9    C11   A    
C13   C15   A    
C5    C19   A    
C10   C12   A    
C41   H15   S    
O23   C59   S    
O19   V4    S    
O3    V1    S    
O16   V4    S    
C50   O17   A    
C29   H13   S    
C56   H32   S    
C58   H38   S    
C60   H50   S    
C36   H24   S    
C27   C33   S    
C10   C18   A    
C25   H21   S    
C28   C34   S    
O24   C62   S    
C6    C49   S    
C14   C16   A    
C48   C51   S    
C24   H42   S    
C5    C50   S    
O3    C1    A    
C61   H53   S    
C58   H36   S    
C55   H31   S    
C10   H40   S    
C61   H52   S    
C42   H16   S    
C40   H20   S    
C54   H27   S    
C40   O22   S    
O20   V4    S    
C57   C58   S    
C26   C36   S    
O13   C49   A    
O7    V1    S    
C1    O8    A    
C17   C19   A    
O11   V4    S    
O8    V2    S    
C64   H58   S    
C18   C20   A    
O11   C51   A    
C8    C14   A    
C26   C34   S    
C59   C60   S    
H8    C36   S    
C4    C7    S    
C16   C18   A    
C21   C23   A    
C55   H30   S    
C22   C24   A    
C14   H6    S    
C53   H25   S    
C7    C13   A    
C61   H51   S    
O15   C51   A    
C6    C20   A    
C34   C42   S    
C59   H48   S    
O20   V3    S    
O9    V2    S    
C12   H44   S    
C27   H9    S    
O10   V1    S    
C47   C52   S    
C31   C43   T    
O15   V3    S    
C33   C45   S    
C56   H33   S    
