data_mof_unit_52897.cif
_audit_creation_date              2012-12-10T16:50:10-0500
_audit_creation_method            fapswitch 2.2
_symmetry_space_group_name_H-M    P1
_symmetry_Int_Tables_number       1
_space_group_crystal_system       triclinic
_cell_length_a                    23.4749
_cell_length_b                    8.65718
_cell_length_c                    7.533922
_cell_angle_alpha                 103.774207
_cell_angle_beta                  95.092299
_cell_angle_gamma                 93.819248
_cell_volume                      1475.08596856

loop_
_atom_site_label
_atom_site_type_symbol
_atom_type_description
_atom_site_fract_x
_atom_site_fract_y
_atom_site_fract_z
_atom_type_partial_charge
C1    C     C_R   0.497736 0.199523 0.452594 0.853148
C2    C     C_R   0.501954 0.800438 0.547407 0.875838
C3    C     C_R   0.238616 0.609873 0.446989 0.205311
C4    C     C_R   0.758932 0.416367 0.369104 0.212754
C5    C     C_R   0.298903 0.616668 0.445623 0.132726
C6    C     C_R   0.698347 0.410798 0.355974 0.152917
C7    C     C_R   0.329256 0.498888 0.501873 -0.083342
C8    C     C_R   0.671735 0.498954 0.503195 -0.143496
C9    C     C_R   0.300531 0.377709 0.561525 -0.371144
C10   C     C_R   0.705191 0.584412 0.663917 -0.284008
C11   C     C_R   0.241783 0.376007 0.577323 0.249475
C12   C     C_R   0.764898 0.586895 0.682745 0.244599
C13   C     C_R   0.210207 0.491726 0.518310 0.246601
C14   C     C_R   0.792358 0.502278 0.533887 0.207578
C15   C     C_2   0.495596 0.030538 0.427023 -0.322624
C16   C     C_2   0.503719 0.969374 0.572998 -0.308517
C17   C     C_R   0.391428 0.500829 0.500794 0.865114
C18   C     C_R   0.608875 0.498935 0.499404 0.835605
C19   C     C_R   0.888613 0.640478 0.589582 0.551096
C20   C     C_R   0.113778 0.356307 0.449655 0.603088
C21   C     C_R   0.877601 0.356138 0.522583 0.593530
C22   C     C_R   0.127983 0.624292 0.632829 0.562168
C23   C     C_R   0.936618 0.350586 0.511075 -0.042147
C24   C     C_R   0.068668 0.630348 0.635458 -0.048104
C25   C     C_R   0.972544 0.493731 0.566186 -0.014269
C26   C     C_R   0.032254 0.489868 0.561540 -0.015295
C27   C     C_R   0.948690 0.640799 0.623892 -0.084769
C28   C     C_R   0.055447 0.346173 0.481363 -0.093826
C29   C     C_R   0.960168 0.205521 0.447639 -0.164009
C30   C     C_R   0.045380 0.772888 0.712646 -0.183242
C31   C     C_R   0.019084 0.201039 0.430857 0.004786
C32   C     C_R   0.985833 0.781018 0.706268 -0.016097
Cu1   Cu    Cu3+1 0.506340 0.517380 0.684380 0.996670
Cu2   Cu    Cu3+1 0.493660 0.482620 0.315620 1.007427
H1    H     H_    0.932604 0.094601 0.410680 0.210230
H2    H     H_    0.073672 0.879336 0.777558 0.222715
H3    H     H_    0.324312 0.285051 0.598958 0.162762
H4    H     H_    0.684181 0.646743 0.778505 0.197905
H5    H     H_    0.486993 0.956419 0.287525 0.206131
H6    H     H_    0.512245 0.043518 0.712527 0.204152
N1    N     N_R   0.854111 0.499650 0.550468 -0.452492
N2    N     N_R   0.149344 0.490905 0.533542 -0.443948
N3    N     N_2   0.484110 0.456420 0.038520 -0.223876
N4    N     N_2   0.515890 0.543580 0.961480 -0.224870
O1    O     O_R   0.504120 0.286130 0.619770 -0.566009
O2    O     O_R   0.495880 0.713870 0.380230 -0.568704
O3    O     O_R   0.493410 0.256770 0.308360 -0.592201
O4    O     O_R   0.506590 0.743230 0.691640 -0.597732
O5    O     O_R   0.423230 0.514630 0.655730 -0.591713
O6    O     O_R   0.576770 0.485370 0.344270 -0.559407
O7    O     O_R   0.412530 0.485280 0.344320 -0.566641
O8    O     O_R   0.587470 0.514720 0.655680 -0.589402
O9    O     O_2   0.864899 0.778053 0.589505 -0.512983
O10   O     O_2   0.134484 0.236222 0.330939 -0.514241
O11   O     O_2   0.843849 0.219336 0.502688 -0.525652
O12   O     O_2   0.164009 0.751075 0.727030 -0.543332
C33   C     C_2   0.041190 0.041529 0.379292 0.923651
O13   O     O_2   0.014285 0.934984 0.258746 -0.604614
O14   O     O_R   0.091210 0.010594 0.475090 -0.707773
H7    H     H_    0.101251 0.896927 0.429673 0.344456
C34   C     C_2   0.965115 0.933188 0.804624 0.950772
O15   O     O_2   0.989090 0.060790 0.796591 -0.609763
O16   O     O_R   0.920566 0.931041 0.915638 -0.725089
H8    H     H_    0.911300 0.042247 0.978723 0.333094
N5    N     N_2   0.206280 0.722480 0.380776 -0.397861
H9    H     H_    0.227255 0.834247 0.397990 0.273234
C35   C     C_3   0.175326 0.662094 0.199838 -0.648350
H10   H     H_    0.148320 0.753913 0.166275 0.253194
H11   H     H_    0.146806 0.553114 0.194243 0.237132
H12   H     H_    0.205864 0.634504 0.094926 0.227208
N6    N     N_2   0.786599 0.327288 0.221791 -0.409922
H13   H     H_    0.766277 0.219126 0.147345 0.259489
C36   C     C_3   0.817669 0.417142 0.116324 -0.647469
H14   H     H_    0.861551 0.377566 0.107287 0.235506
H15   H     H_    0.821331 0.547703 0.180198 0.250784
H16   H     H_    0.795299 0.393794 0.975156 0.233678
N7    N     N_2   0.329840 0.746106 0.399114 -0.445485
H17   H     H_    0.325629 0.857237 0.482104 0.245429
C37   C     C_3   0.328148 0.741630 0.205404 -0.559160
H18   H     H_    0.302555 0.836817 0.173183 0.204079
H19   H     H_    0.308806 0.624653 0.118017 0.248512
H20   H     H_    0.372570 0.762762 0.171278 0.256686
N8    N     N_2   0.664155 0.314534 0.197392 -0.389885
H21   H     H_    0.680801 0.311145 0.074540 0.277750
C38   C     C_3   0.643357 0.158322 0.215114 -0.596486
H22   H     H_    0.679792 0.084791 0.228419 0.206804
H23   H     H_    0.613896 0.096944 0.091134 0.239788
H24   H     H_    0.619263 0.168835 0.337175 0.226445
N9    N     N_2   0.214494 0.254842 0.648236 -0.368004
H25   H     H_    0.235041 0.151337 0.629885 0.261972
C39   C     C_3   0.199447 0.307772 0.833758 -0.598965
H26   H     H_    0.177925 0.205642 0.875084 0.264616
H27   H     H_    0.169160 0.401514 0.842420 0.225007
H28   H     H_    0.238617 0.354625 0.930830 0.198262
N10   N     N_2   0.796297 0.663136 0.856695 -0.427884
H29   H     H_    0.838088 0.636873 0.878241 0.275134
C40   C     C_3   0.786863 0.827843 0.936704 -0.558185
H30   H     H_    0.795087 0.902851 0.839272 0.269540
H31   H     H_    0.742475 0.837686 0.974855 0.191171
H32   H     H_    0.816456 0.874480 0.064708 0.246203
C41   C     C_2   0.432609 0.373894 0.940453 1.116913
O17   O     O_2   0.432014 0.234657 0.855678 -0.647948
O18   O     O_R   0.381276 0.444695 0.963854 -0.782425
H33   H     H_    0.346326 0.366312 0.914084 0.298874
C42   C     C_2   0.566814 0.629148 0.061187 1.115226
O19   O     O_2   0.566253 0.768381 0.144470 -0.660705
O20   O     O_R   0.618895 0.561142 0.042936 -0.762998
H34   H     H_    0.652802 0.636423 0.112812 0.302128

loop_
_geom_bond_atom_site_label_1
_geom_bond_atom_site_label_2
_ccdc_geom_bond_type
C41   O17   D    
Cu1   O1    S    
C36   H14   S    
N10   H29   S    
C17   O7    A    
C40   H30   S    
C18   O8    A    
N4    C42   S    
C2    O2    A    
Cu1   O8    S    
C42   O20   S    
Cu2   O7    S    
C23   C29   A    
C24   C26   A    
C32   C34   S    
C33   O14   S    
Cu1   O5    S    
C15   C16   D    
C34   O16   S    
N5    C35   S    
O20   H34   S    
C12   N10   S    
C1    C15   S    
N9    C39   S    
C2    C16   S    
C3    C13   A    
N7    H17   S    
C19   O9    S    
N7    C37   S    
O14   H7    S    
C41   O18   S    
C36   H15   S    
C3    N5    S    
C13   N2    S    
C40   H31   S    
C38   H23   S    
Cu2   O6    S    
C35   H10   S    
C20   O10   S    
C21   N1    A    
C17   O5    A    
C39   H26   S    
C37   H19   S    
C1    O3    A    
C22   O12   S    
C20   C28   A    
C7    C17   S    
C25   C26   A    
C38   H22   S    
C8    C18   S    
C37   H18   S    
C35   H11   S    
N3    N4    D    
N3    C41   S    
C39   H27   S    
C11   N9    S    
C20   N2    A    
N8    H21   S    
C9    H3    S    
Cu1   Cu2   S    
C9    C11   A    
C15   H5    S    
C10   C12   A    
C16   H6    S    
C14   N1    S    
Cu2   O2    S    
C4    C6    A    
N8    C38   S    
C12   C14   A    
C21   C23   A    
C36   H16   S    
C22   C24   A    
C5    N7    S    
C40   H32   S    
C19   C27   A    
C18   O6    A    
C5    C7    A    
C38   H24   S    
C7    C9    A    
C21   O11   S    
C6    N8    S    
C27   C32   A    
Cu1   N4    S    
C28   C31   A    
Cu2   N3    S    
C3    C5    A    
C37   H20   S    
C6    C8    A    
N10   C40   S    
C25   C27   A    
C42   O19   D    
C29   H1    S    
C26   C28   A    
C30   H2    S    
C10   H4    S    
C35   H12   S    
C2    O4    A    
C31   C33   S    
N6    H13   S    
C29   C31   A    
C39   H28   S    
C30   C32   A    
C11   C13   A    
C1    O1    A    
C33   O13   D    
C22   N2    A    
C23   C25   A    
C4    C14   A    
C34   O15   D    
C24   C30   A    
O16   H8    S    
C8    C10   A    
N5    H9    S    
N6    C36   S    
O18   H33   S    
Cu1   O4    S    
Cu2   O3    S    
N9    H25   S    
C4    N6    S    
C19   N1    A    
