data_mof_unit_44422.cif
_audit_creation_date              2013-03-05T16:12:49-0500
_audit_creation_method            fapswitch 2.2
_symmetry_space_group_name_H-M    P1
_symmetry_Int_Tables_number       1
_space_group_crystal_system       triclinic
_cell_length_a                    10.752653
_cell_length_b                    9.919791
_cell_length_c                    27.171558
_cell_angle_alpha                 89.751977
_cell_angle_beta                  90.502801
_cell_angle_gamma                 89.687314
_cell_volume                      2898.04646375

loop_
_atom_site_label
_atom_site_type_symbol
_atom_site_description
_atom_site_fract_x
_atom_site_fract_y
_atom_site_fract_z
_atom_type_partial_charge
O1    O     O_R   0.316770 0.614620 0.500000 -0.609119
O2    O     O_R   0.683230 0.385380 0.500000 -0.606548
O3    O     O_R   0.683230 0.614620 0.500000 -0.607611
O4    O     O_R   0.316770 0.385380 0.500000 -0.600646
C1    C     C_R   0.260055 0.500200 0.500241 0.914418
C2    C     C_R   0.739935 0.499769 0.499885 0.906733
O5    O     O_R   0.500030 0.614650 0.428760 -0.584688
O6    O     O_R   0.499970 0.385350 0.571240 -0.575809
O7    O     O_R   0.499970 0.614650 0.571240 -0.591392
O8    O     O_R   0.500030 0.385350 0.428760 -0.578760
C3    C     C_R   0.500636 0.500752 0.405842 0.950569
C4    C     C_R   0.500320 0.500785 0.594377 0.939631
Zn1   Zn    Zn3+2 0.500000 0.653120 0.500000 1.060698
Zn2   Zn    Zn3+2 0.500000 0.346880 0.500000 1.076315
C5    C     C_R   0.457947 0.653247 0.179425 0.582930
C6    C     C_R   0.642453 0.614211 0.819478 0.573028
O9    O     O_2   0.362437 0.695155 0.207487 -0.446038
O10   O     O_2   0.741157 0.591840 0.790355 -0.456379
N1    N     N_R   0.556530 0.588269 0.201091 -0.356138
N2    N     N_R   0.524714 0.615961 0.799431 -0.349791
C7    C     C_R   0.663698 0.564571 0.175875 0.595314
C8    C     C_R   0.426194 0.662175 0.826427 0.601785
C9    C     C_R   0.634739 0.601524 0.285801 -0.023922
C10   C     C_R   0.429624 0.646790 0.716894 -0.009864
C11   C     C_R   0.619509 0.578457 0.335688 -0.206692
C12   C     C_R   0.420009 0.611333 0.667741 -0.183877
C13   C     C_R   0.428910 0.453296 0.319155 0.294642
C14   C     C_R   0.577902 0.437621 0.679767 0.295336
C15   C     C_R   0.448592 0.472495 0.268658 -0.118014
C16   C     C_R   0.571770 0.460450 0.730579 -0.130281
C17   C     C_R   0.548697 0.550313 0.252019 0.193662
C18   C     C_R   0.505637 0.571873 0.749164 0.183877
C19   C     C_R   0.570362 0.663925 0.102701 -0.112131
C20   C     C_R   0.560303 0.688493 0.897447 -0.117277
C21   C     C_R   0.457684 0.679435 0.128550 -0.121662
C22   C     C_R   0.660611 0.636252 0.870202 -0.114975
C23   C     C_R   0.348968 0.719559 0.102840 0.312702
C24   C     C_R   0.772376 0.601076 0.895008 0.322526
C25   C     C_R   0.676829 0.613213 0.127360 -0.160125
C26   C     C_R   0.445510 0.714605 0.873838 -0.149382
C27   C     C_R   0.516578 0.506515 0.352776 -0.138787
C28   C     C_R   0.496216 0.509800 0.648196 -0.158229
H1    H     H_    0.381601 0.434745 0.242171 0.208593
H2    H     H_    0.629662 0.400622 0.755159 0.212434
C29   C     C_R   0.470045 0.760356 0.975126 -0.046192
C30   C     C_R   0.687984 0.675339 0.026042 -0.053541
C31   C     C_R   0.682632 0.669092 0.973751 0.061236
C32   C     C_R   0.467178 0.740094 0.026739 0.055497
C33   C     C_R   0.572089 0.708433 0.948731 0.064793
C34   C     C_R   0.575587 0.694819 0.051888 0.063609
C35   C     C_R   0.370517 0.821867 0.948501 0.152926
C36   C     C_R   0.799505 0.654691 0.053611 0.167458
C37   C     C_R   0.353650 0.790544 0.898409 0.253735
C38   C     C_R   0.792740 0.615119 0.103329 0.246500
O11   O     O_2   0.309287 0.652190 0.808456 -0.457582
O12   O     O_2   0.755742 0.492280 0.197565 -0.455713
C39   C     C_R   0.354853 0.747929 0.052774 -0.153925
C40   C     C_R   0.779489 0.611660 0.946070 -0.166391
H3    H     H_    0.359460 0.670902 0.643965 0.187014
H4    H     H_    0.686292 0.620911 0.361336 0.171351
H5    H     H_    0.380539 0.735870 0.729121 0.204790
H6    H     H_    0.711319 0.663219 0.273504 0.189620
H7    H     H_    0.267370 0.764755 0.033904 0.225720
H8    H     H_    0.860372 0.567371 0.963522 0.213451
C41   C     C_R   0.064452 0.377336 0.502767 -0.100902
C42   C     C_R   0.935527 0.622453 0.497741 -0.120828
C43   C     C_R   0.936896 0.377066 0.502359 -0.100783
C44   C     C_R   0.063022 0.622743 0.498397 -0.119236
C45   C     C_R   0.872529 0.499645 0.499897 -0.036973
C46   C     C_R   0.127438 0.500192 0.500556 -0.035914
C47   C     C_R   0.558975 0.070352 0.536454 0.198755
C48   C     C_R   0.440892 0.928825 0.463382 0.204436
C49   C     C_R   0.440895 0.072392 0.463399 0.198940
C50   C     C_R   0.559706 0.927045 0.536361 0.210431
N3    N     N_R   0.500000 0.857200 0.500000 -0.226377
N4    N     N_R   0.500000 0.142800 0.500000 -0.225448
N5    N     N_R   0.315817 0.390530 0.335220 0.253505
O13   O     O_R   0.259209 0.304437 0.306928 -0.261557
O14   O     O_R   0.259657 0.432639 0.374545 -0.335436
N6    N     N_R   0.680145 0.360052 0.661043 0.261304
O15   O     O_R   0.729313 0.263902 0.687682 -0.258893
O16   O     O_R   0.741580 0.404526 0.623306 -0.334103
N7    N     N_R   0.619039 0.138430 0.575789 0.272659
O17   O     O_R   0.565293 0.138984 0.618463 -0.305202
O18   O     O_R   0.738170 0.158727 0.573390 -0.307028
N8    N     N_R   0.377438 0.859144 0.424843 0.269693
O19   O     O_R   0.425356 0.855422 0.381071 -0.299839
O20   O     O_R   0.262171 0.824261 0.430670 -0.346124
N9    N     N_R   0.376720 0.143086 0.425023 0.272407
O21   O     O_R   0.260791 0.176434 0.431018 -0.315910
O22   O     O_R   0.422763 0.143178 0.380925 -0.296246
N10   N     N_R   0.624988 0.855739 0.574465 0.270862
O23   O     O_R   0.739704 0.818993 0.567595 -0.342978
O24   O     O_R   0.580432 0.853892 0.618809 -0.315404
N11   N     N_R   0.228827 0.715997 0.125199 0.268089
O25   O     O_R   0.148916 0.812349 0.116492 -0.252055
O26   O     O_R   0.191162 0.604935 0.145708 -0.237157
N12   N     N_R   0.876100 0.542500 0.869991 0.250579
O27   O     O_R   0.948821 0.619319 0.844278 -0.202373
O28   O     O_R   0.913325 0.421458 0.881703 -0.297262
N13   N     N_R   0.250754 0.847768 0.871525 0.276519
O29   O     O_R   0.138701 0.804072 0.879108 -0.213377
O30   O     O_R   0.270606 0.931655 0.835539 -0.295499
N14   N     N_R   0.905175 0.589802 0.130415 0.289578
O31   O     O_R   0.961927 0.474473 0.125708 -0.223820
O32   O     O_R   0.937787 0.670852 0.165717 -0.245157
N15   N     N_R   0.299382 0.929460 0.970286 0.217307
O33   O     O_R   0.354532 0.017073 0.998408 -0.312940
O34   O     O_R   0.179716 0.938722 0.963604 -0.236416
N16   N     N_R   0.917891 0.693630 0.033794 0.217835
O35   O     O_R   0.927603 0.805820 0.009149 -0.276937
O36   O     O_R   0.015666 0.617084 0.039437 -0.304131
H9    H     H_    0.113183 0.281627 0.504893 0.198729
H10   H     H_    0.886871 0.718166 0.495469 0.201737
H11   H     H_    0.889244 0.281276 0.503979 0.201787
H12   H     H_    0.110530 0.718591 0.497132 0.205744

loop_
_geom_bond_atom_site_label_1
_geom_bond_atom_site_label_2
_geom_bond_distance
_ccdc_geom_bond_type
C2    C45   1.425737 S    
C42   C44   1.370892 A    
C10   H5    1.081818 S    
C13   C15   1.402479 A    
N11   O25   1.301283 A    
C24   N12   1.432931 S    
O3    C2    1.289290 A    
N1    C17   1.435835 S    
N14   O32   1.301266 A    
C32   C39   1.407011 A    
C31   C33   1.416244 A    
N5    O13   1.301538 A    
C5    N1    1.365285 A    
C19   C25   1.410653 A    
O1    C1    1.291427 A    
C38   N14   1.430325 S    
N1    C7    1.365603 A    
C10   C12   1.385699 A    
C47   N4    1.370236 A    
N8    O20   1.299470 A    
C25   C38   1.412278 A    
C29   C35   1.420018 A    
C41   C46   1.398796 A    
C30   C36   1.421711 A    
O7    Zn1   1.971339 S    
C23   N11   1.432916 S    
C50   N10   1.428458 S    
C43   H11   1.082937 S    
N16   O35   1.301499 A    
C4    C28   1.466481 S    
O5    Zn1   1.974585 S    
C24   C40   1.393290 A    
C9    H6    1.082962 S    
Zn1   N3    2.024431 S    
C37   N13   1.433638 S    
C41   C43   1.371531 A    
N15   O33   1.301650 A    
C11   H4    1.084302 S    
C36   N16   1.440549 S    
N9    O22   1.300474 A    
C12   H3    1.084219 S    
O3    Zn1   2.004836 S    
O6    C4    1.308714 A    
C32   C34   1.416024 A    
N13   O30   1.301034 A    
C15   H1    1.083156 S    
N15   O34   1.300584 A    
C16   H2    1.082151 S    
O2    C2    1.291083 A    
C48   N3    1.369876 A    
C14   N6    1.436499 S    
C5    C21   1.405429 A    
N14   O31   1.300992 A    
C36   C38   1.407770 A    
C39   H7    1.079220 S    
C47   N7    1.419299 S    
N5    O14   1.301268 A    
C40   H8    1.077535 S    
C50   N3    1.366737 A    
N13   O29   1.300508 A    
N6    O16   1.301351 A    
O8    Zn2   1.971344 S    
C11   C27   1.401649 A    
N8    O19   1.300873 A    
N6    O15   1.301906 A    
C19   C34   1.414647 A    
C43   C45   1.396908 A    
C9    C17   1.396716 A    
O5    C3    1.292465 A    
C10   C18   1.401548 A    
C1    C46   1.426081 S    
C47   C50   1.421568 A    
C13   C27   1.412942 A    
N7    O17   1.300111 A    
C7    C25   1.410316 A    
C29   C33   1.412245 A    
C6    N2    1.373818 A    
C8    C26   1.405493 A    
N10   O24   1.300642 A    
C44   H12   1.082347 S    
C6    O10   1.347424 S    
N7    O18   1.299944 A    
N2    C8    1.371759 A    
C26   C37   1.413019 A    
N12   O28   1.300921 A    
C49   N4    1.371316 A    
C20   C26   1.408313 A    
O1    Zn1   2.008928 S    
C22   C24   1.414033 A    
C12   C28   1.403987 A    
N2    C18   1.449149 S    
C29   C32   1.416507 A    
C5    O9    1.349349 S    
C30   C31   1.423109 A    
C20   C33   1.412996 A    
O6    Zn2   1.974580 S    
C42   H10   1.082818 S    
C21   C23   1.411076 A    
C41   H9    1.082981 S    
C48   C49   1.424162 A    
C13   N5    1.439514 S    
C7    O12   1.348876 S    
C48   N8    1.427862 S    
N11   O26   1.300720 A    
C8    O11   1.348882 S    
C30   C34   1.415871 A    
C14   C16   1.402103 A    
C49   N9    1.425140 S    
C15   C17   1.404807 A    
C6    C22   1.408481 A    
C31   C40   1.409235 A    
C16   C18   1.408873 A    
C14   C28   1.412325 A    
N10   O23   1.299597 A    
C19   C21   1.413770 A    
C3    C27   1.454427 S    
C20   C22   1.411074 A    
C9    C11   1.384997 A    
O4    Zn2   2.004836 S    
O2    Zn2   2.008928 S    
O7    C4    1.290277 A    
N16   O36   1.301096 A    
O8    C3    1.300882 A    
C42   C45   1.398374 A    
O4    C1    1.289109 A    
C35   N15   1.441902 S    
N12   O27   1.300666 A    
C44   C46   1.396619 A    
C35   C37   1.407803 A    
N9    O21   1.299751 A    
C23   C39   1.390039 A    
Zn2   N4    2.024431 S    
