data_mof_unit_65458.cif
_audit_creation_date              2012-12-10T19:45:47-0500
_audit_creation_method            fapswitch 2.2
_symmetry_space_group_name_H-M    P1
_symmetry_Int_Tables_number       1
_space_group_crystal_system       tetragonal
_cell_length_a                    18.406196
_cell_length_b                    18.406196
_cell_length_c                    27.665921
_cell_angle_alpha                 90.0
_cell_angle_beta                  90.0
_cell_angle_gamma                 90.0
_cell_volume                      9372.88345998

loop_
_atom_site_label
_atom_site_type_symbol
_atom_type_description
_atom_site_fract_x
_atom_site_fract_y
_atom_site_fract_z
_atom_type_partial_charge
C1    C     C_1   1.000000 0.500000 0.775507 -0.038305
C2    C     C_3   0.203351 0.143866 0.937083 0.127020
C3    C     C_R   0.241371 0.812626 0.529510 -0.165309
C4    C     C_1   0.500000 0.000000 0.224508 -0.035570
C5    C     C_1   0.000000 0.500000 0.224508 -0.035570
C6    C     C_1   1.000000 0.500000 0.724508 -0.035570
C7    C     C_1   0.500000 1.000000 0.724508 -0.035570
C8    C     C_3   0.828323 0.230403 0.922204 0.132672
C9    C     C_3   0.796647 0.856132 0.937081 0.127020
C10   C     C_3   0.143866 0.203351 0.937083 0.127020
C11   C     C_3   0.230403 0.828323 0.922204 0.132672
C12   C     C_3   0.856132 0.796647 0.937081 0.127020
C13   C     C_3   0.769597 0.171677 0.922204 0.132672
C14   C     C_3   0.643864 0.296650 0.437085 0.127020
C15   C     C_3   0.730403 0.671677 0.422205 0.132672
C16   C     C_3   0.356134 0.703351 0.437083 0.127020
C17   C     C_1   0.500000 1.000000 0.775507 -0.038305
C18   C     C_3   0.269597 0.328323 0.422204 0.132672
C19   C     C_3   0.671677 0.730403 0.422205 0.132672
C20   C     C_3   0.703350 0.356135 0.437085 0.127019
C21   C     C_3   0.328323 0.269597 0.422204 0.132671
C22   C     C_3   0.296649 0.643866 0.437083 0.127020
C23   C     C_R   0.500000 1.000000 0.870895 0.490234
C24   C     C_R   1.000000 0.500000 0.870895 0.490234
C25   C     C_R   0.000000 0.500000 0.370895 0.490234
C26   C     C_R   0.500000 0.000000 0.370895 0.490234
C27   C     C_R   0.500000 0.000000 0.129117 0.510747
C28   C     C_1   0.500000 0.000000 0.275507 -0.038305
C29   C     C_R   0.000000 0.500000 0.129117 0.510747
C30   C     C_R   1.000000 0.500000 0.629117 0.510748
C31   C     C_R   0.500000 1.000000 0.629117 0.510748
C32   C     C_R   0.639999 0.859955 0.000055 0.522995
C33   C     C_R   0.140050 0.640370 0.000195 0.513030
C34   C     C_R   0.360001 0.140045 0.000055 0.522996
C35   C     C_R   0.859950 0.359630 0.000195 0.513030
C36   C     C_R   0.640370 0.140049 0.000195 0.513030
C37   C     C_R   0.140045 0.360001 0.000055 0.522996
C38   C     C_R   0.359630 0.859950 0.000195 0.513030
C39   C     C_1   1.000000 0.500000 0.275507 -0.038305
C40   C     C_R   0.859955 0.639999 0.000055 0.522995
C41   C     C_R   0.140369 0.359950 0.500195 0.513030
C42   C     C_R   0.640045 0.139999 0.500055 0.522997
C43   C     C_R   0.859630 0.640050 0.500195 0.513031
C44   C     C_R   0.359955 0.860001 0.500055 0.522996
C45   C     C_R   0.139999 0.640045 0.500055 0.522996
C46   C     C_R   0.640050 0.859630 0.500195 0.513030
C47   C     C_R   0.860001 0.359955 0.500055 0.522997
C48   C     C_R   0.359950 0.140370 0.500195 0.513030
C49   C     C_1   1.000000 0.500000 0.819062 0.008075
C50   C     C_1   0.500000 0.000000 0.180952 0.014268
C51   C     C_1   0.500000 1.000000 0.819062 0.008075
C52   C     C_1   0.500000 0.000000 0.319062 0.008075
C53   C     C_1   0.000000 0.500000 0.319062 0.008075
C54   C     C_R   0.238464 0.814614 0.975146 0.103251
C55   C     C_R   0.190899 0.242791 0.972216 0.057626
C56   C     C_R   0.761536 0.185386 0.975146 0.103251
C57   C     C_R   0.809100 0.757209 0.972216 0.057627
C58   C     C_R   0.242791 0.190899 0.972216 0.057626
C59   C     C_R   0.185386 0.761536 0.975146 0.103251
C60   C     C_R   0.757209 0.809100 0.972216 0.057627
C61   C     C_1   0.000000 0.500000 0.180952 0.014268
C62   C     C_R   0.814614 0.238464 0.975146 0.103251
C63   C     C_R   0.742791 0.309101 0.472217 0.057625
C64   C     C_R   0.685386 0.738464 0.475146 0.103251
C65   C     C_R   0.257209 0.690899 0.472216 0.057626
C66   C     C_R   0.314614 0.261536 0.475146 0.103251
C67   C     C_R   0.738464 0.685386 0.475146 0.103251
C68   C     C_R   0.690899 0.257209 0.472217 0.057625
C69   C     C_R   0.261536 0.314614 0.475146 0.103251
C70   C     C_R   0.309101 0.742791 0.472216 0.057626
C71   C     C_R   0.300977 0.807114 0.003326 -0.016708
C72   C     C_1   1.000000 0.500000 0.680952 0.014268
C73   C     C_R   0.196099 0.304996 0.000343 0.021653
C74   C     C_R   0.699023 0.192886 0.003326 -0.016708
C75   C     C_R   0.803901 0.695004 0.000343 0.021652
C76   C     C_R   0.304996 0.196099 0.000343 0.021653
C77   C     C_R   0.192886 0.699023 0.003326 -0.016708
C78   C     C_R   0.695005 0.803901 0.000343 0.021652
C79   C     C_R   0.807114 0.300977 0.003326 -0.016708
C80   C     C_R   0.804996 0.303901 0.500343 0.021654
C81   C     C_R   0.692886 0.800977 0.503326 -0.016708
C82   C     C_R   0.195004 0.696099 0.500343 0.021653
C83   C     C_1   0.500000 1.000000 0.680952 0.014268
C84   C     C_R   0.307114 0.199023 0.503326 -0.016708
C85   C     C_R   0.800977 0.692886 0.503326 -0.016708
C86   C     C_R   0.696099 0.195004 0.500343 0.021653
C87   C     C_R   0.199023 0.307114 0.503326 -0.016708
C88   C     C_R   0.303901 0.804996 0.500343 0.021653
C89   C     C_R   0.304436 0.749288 0.036537 -0.170271
C90   C     C_R   0.258629 0.312626 0.029510 -0.165309
C91   C     C_R   0.695564 0.250712 0.036537 -0.170271
C92   C     C_R   0.741372 0.687375 0.029511 -0.165309
C93   C     C_R   0.312626 0.258629 0.029510 -0.165309
C94   C     C_3   0.171677 0.769597 0.922204 0.132672
C95   C     C_R   0.250712 0.695564 0.036537 -0.170271
C96   C     C_R   0.687375 0.741372 0.029511 -0.165309
C97   C     C_R   0.749288 0.304436 0.036537 -0.170271
C98   C     C_R   0.812627 0.241370 0.529509 -0.165309
C99   C     C_R   0.750712 0.804436 0.536537 -0.170271
C100  C     C_R   0.187374 0.758629 0.529510 -0.165309
C101  C     C_R   0.249288 0.195564 0.536537 -0.170271
C102  C     C_R   0.804436 0.750712 0.536537 -0.170271
C103  C     C_R   0.758629 0.187373 0.529509 -0.165309
C104  C     C_R   0.195564 0.249288 0.536537 -0.170271
H1    H     H_    0.185252 0.719968 0.900989 0.062782
H2    H     H_    0.780032 0.685252 0.400989 0.062783
H3    H     H_    0.363100 0.732872 0.402264 0.077203
H4    H     H_    0.219968 0.314748 0.400989 0.062783
H5    H     H_    0.685252 0.780032 0.400989 0.062783
H6    H     H_    0.732870 0.363103 0.402265 0.077204
H7    H     H_    0.314748 0.219968 0.400989 0.062783
H8    H     H_    0.267128 0.636900 0.402264 0.077203
H9    H     H_    0.350071 0.743653 0.060959 0.153749
H10   H     H_    0.266018 0.359950 0.052244 0.148785
H11   H     H_    0.649929 0.256346 0.060959 0.153749
H12   H     H_    0.232873 0.136900 0.902264 0.077202
H13   H     H_    0.733984 0.640051 0.052246 0.148786
H14   H     H_    0.359950 0.266018 0.052244 0.148785
H15   H     H_    0.256346 0.649928 0.060959 0.153749
H16   H     H_    0.640051 0.733984 0.052246 0.148786
H17   H     H_    0.743654 0.350071 0.060959 0.153749
H18   H     H_    0.859952 0.233980 0.552243 0.148785
H19   H     H_    0.756347 0.850072 0.560959 0.153749
H20   H     H_    0.140050 0.766018 0.552244 0.148785
H21   H     H_    0.243653 0.149928 0.560959 0.153749
H22   H     H_    0.850072 0.756347 0.560959 0.153749
H23   H     H_    0.814748 0.280032 0.900989 0.062782
H24   H     H_    0.766019 0.140048 0.552243 0.148785
H25   H     H_    0.149928 0.243653 0.560959 0.153749
H26   H     H_    0.233982 0.859950 0.552244 0.148785
H27   H     H_    0.096377 0.798731 0.877989 0.314325
H28   H     H_    0.155725 0.051063 0.933033 0.351042
H29   H     H_    0.903623 0.201269 0.877989 0.314325
H30   H     H_    0.844272 0.948935 0.933028 0.351040
H31   H     H_    0.051063 0.155725 0.933033 0.351042
H32   H     H_    0.201269 0.903623 0.877989 0.314326
H33   H     H_    0.948935 0.844273 0.933028 0.351040
H34   H     H_    0.767124 0.863097 0.902262 0.077200
H35   H     H_    0.798730 0.096377 0.877989 0.314325
H36   H     H_    0.551062 0.344277 0.433037 0.351044
H37   H     H_    0.701269 0.596376 0.377989 0.314326
H38   H     H_    0.448937 0.655725 0.433033 0.351042
H39   H     H_    0.298731 0.403623 0.377989 0.314326
H40   H     H_    0.596377 0.701269 0.377989 0.314326
H41   H     H_    0.655723 0.448938 0.433037 0.351044
H42   H     H_    0.403623 0.298731 0.377989 0.314326
H43   H     H_    0.344275 0.551063 0.433033 0.351042
H44   H     H_    0.136900 0.232873 0.902264 0.077202
H45   H     H_    0.280032 0.814748 0.900989 0.062783
H46   H     H_    0.863097 0.767124 0.902262 0.077201
H47   H     H_    0.719967 0.185252 0.900989 0.062782
H48   H     H_    0.636897 0.267130 0.402265 0.077204
O1    O     O_3   0.500000 1.000000 0.000010 -0.452356
O2    O     O_R   0.500000 0.939270 0.393740 -0.542354
O3    O     O_R   0.060730 0.500000 0.393740 -0.542354
O4    O     O_R   0.500000 0.060730 0.393740 -0.542354
O5    O     O_R   0.500000 0.939230 0.106280 -0.533925
O6    O     O_R   0.060770 0.500000 0.106280 -0.533925
O7    O     O_R   0.500000 0.060770 0.106280 -0.533925
O8    O     O_R   0.939230 0.500000 0.106280 -0.533925
O9    O     O_R   1.000000 0.439230 0.606280 -0.533925
O10   O     O_R   0.560770 1.000000 0.606280 -0.533925
O11   O     O_R   1.000000 0.560770 0.606280 -0.533925
O12   O     O_3   1.000000 0.500000 0.000010 -0.452356
O13   O     O_R   0.439230 1.000000 0.606280 -0.533925
O14   O     O_R   0.646160 0.914520 0.972140 -0.507636
O15   O     O_R   0.085480 0.646160 0.972140 -0.499566
O16   O     O_R   0.353840 0.085480 0.972140 -0.507636
O17   O     O_R   0.914520 0.353840 0.972140 -0.499566
O18   O     O_R   0.646160 0.085480 0.972140 -0.499566
O19   O     O_R   0.085480 0.353840 0.972140 -0.507637
O20   O     O_R   0.353840 0.914520 0.972140 -0.499566
O21   O     O_R   0.914520 0.646160 0.972140 -0.507636
O22   O     O_R   0.146160 0.414520 0.472140 -0.499566
O23   O     O_3   1.000000 0.500000 0.500010 -0.452356
O24   O     O_R   0.585480 0.146160 0.472140 -0.507637
O25   O     O_R   0.853840 0.585480 0.472140 -0.499566
O26   O     O_R   0.414520 0.853840 0.472140 -0.507637
O27   O     O_R   0.146160 0.585480 0.472140 -0.507637
O28   O     O_R   0.585480 0.853840 0.472140 -0.499566
O29   O     O_R   0.853840 0.414520 0.472140 -0.507637
O30   O     O_R   0.414520 0.146160 0.472140 -0.499566
O31   O     O_R   0.414550 0.146120 0.027860 -0.556137
O32   O     O_R   0.853880 0.414550 0.027860 -0.554188
O33   O     O_R   0.585450 0.853880 0.027860 -0.556137
O34   O     O_3   0.500000 1.000000 0.500010 -0.452356
O35   O     O_R   0.146120 0.585450 0.027860 -0.554188
O36   O     O_R   0.414550 0.853880 0.027860 -0.554188
O37   O     O_R   0.853880 0.585450 0.027860 -0.556137
O38   O     O_R   0.585450 0.146120 0.027860 -0.554188
O39   O     O_R   0.146120 0.414550 0.027860 -0.556137
O40   O     O_R   0.914550 0.646120 0.527860 -0.554188
O41   O     O_R   0.353880 0.914550 0.527860 -0.556137
O42   O     O_R   0.085450 0.353880 0.527860 -0.554188
O43   O     O_R   0.646120 0.085450 0.527860 -0.556137
O44   O     O_R   0.914550 0.353880 0.527860 -0.556137
O45   O     O_R   0.439270 1.000000 0.893740 -0.542354
O46   O     O_R   0.353880 0.085450 0.527860 -0.554188
O47   O     O_R   0.085450 0.646120 0.527860 -0.556137
O48   O     O_R   0.646120 0.914550 0.527860 -0.554188
O49   O     O_3   0.101682 0.796689 0.913644 -0.619070
O50   O     O_3   0.181193 0.078695 0.958728 -0.588275
O51   O     O_3   0.898318 0.203311 0.913643 -0.619072
O52   O     O_3   0.818806 0.921304 0.958725 -0.588273
O53   O     O_3   0.078695 0.181193 0.958728 -0.588275
O54   O     O_3   0.203311 0.898318 0.913644 -0.619073
O55   O     O_3   0.921304 0.818806 0.958725 -0.588273
O56   O     O_R   1.000000 0.439270 0.893740 -0.542354
O57   O     O_3   0.796689 0.101682 0.913643 -0.619071
O58   O     O_3   0.578695 0.318808 0.458732 -0.588277
O59   O     O_3   0.703311 0.601682 0.413644 -0.619076
O60   O     O_3   0.421305 0.681193 0.458729 -0.588276
O61   O     O_3   0.296689 0.398318 0.413644 -0.619074
O62   O     O_3   0.601682 0.703311 0.413644 -0.619074
O63   O     O_3   0.681192 0.421305 0.458732 -0.588278
O64   O     O_3   0.398318 0.296689 0.413644 -0.619075
O65   O     O_3   0.318807 0.578695 0.458729 -0.588276
O66   O     O_R   0.560730 1.000000 0.893740 -0.542354
O67   O     O_R   1.000000 0.560730 0.893740 -0.542354
O68   O     O_R   0.939270 0.500000 0.393740 -0.542354
Zn1   Zn    Zn3+2 0.500000 0.913210 0.039810 0.941493
Zn2   Zn    Zn3+2 0.000000 0.586760 0.960200 0.977269
Zn3   Zn    Zn3+2 0.413240 0.000000 0.960200 0.977269
Zn4   Zn    Zn3+2 1.000000 0.413240 0.960200 0.977268
Zn5   Zn    Zn3+2 0.086760 0.500000 0.460200 0.977268
Zn6   Zn    Zn3+2 0.500000 0.086760 0.460200 0.977268
Zn7   Zn    Zn3+2 0.913240 0.500000 0.460200 0.977268
Zn8   Zn    Zn3+2 0.500000 0.913240 0.460200 0.977268
Zn9   Zn    Zn3+2 0.086790 0.500000 0.039810 0.941493
Zn10  Zn    Zn3+2 0.500000 0.086790 0.039810 0.941493
Zn11  Zn    Zn3+2 0.913210 0.500000 0.039810 0.941493
Zn12  Zn    Zn3+2 1.000000 0.413210 0.539810 0.941494
Zn13  Zn    Zn3+2 0.586790 1.000000 0.539810 0.941494
Zn14  Zn    Zn3+2 1.000000 0.586790 0.539810 0.941494
Zn15  Zn    Zn3+2 0.413210 1.000000 0.539810 0.941494
Zn16  Zn    Zn3+2 0.586760 0.000000 0.960200 0.977269

loop_
_geom_bond_atom_site_label_1
_geom_bond_atom_site_label_2
_ccdc_geom_bond_type
H29   O51   S    
C7    C83   T    
C41   O22   A    
C94   H1    S    
C89   C95   A    
C8    C13   S    
C32   O14   A    
C21   C66   S    
C25   O3    A    
C18   C21   S    
C68   C86   A    
C26   O4    A    
C45   C82   S    
C2    O50   S    
H38   O60   S    
C47   O29   A    
C70   C88   A    
C59   C77   A    
O19   Zn4   S    
C58   C76   A    
C22   C65   S    
O29   Zn7   S    
C6    C72   T    
C60   C78   A    
C44   O41   A    
H42   O64   S    
C32   O33   A    
O12   Zn11  S    
C36   O38   A    
C47   C80   S    
C15   H2    S    
O37   Zn11  S    
O22   Zn5   S    
C25   C53   S    
C73   C90   A    
O1    Zn3   S    
C26   C52   S    
O46   Zn15  S    
C40   O21   A    
C66   C69   A    
O21   Zn2   S    
C27   O7    A    
C98   C103  A    
C3    H26   S    
C92   C96   A    
C31   C83   S    
C9    H34   S    
H32   O54   S    
C33   C77   S    
C15   O59   S    
C16   H3    S    
C21   H7    S    
H41   O63   S    
O10   Zn13  S    
C2    H12   S    
C3    C100  A    
C11   H45   S    
O3    Zn5   S    
C54   C71   A    
C31   O13   A    
C78   C96   A    
C97   H17   S    
C7    C17   S    
C71   C89   A    
C101  H21   S    
C102  H22   S    
C42   C86   S    
C59   C94   S    
H37   O59   S    
O26   Zn8   S    
C69   C87   A    
C27   C50   S    
H39   O61   S    
C13   C56   S    
O36   Zn1   S    
C18   C69   S    
C31   O10   A    
O33   Zn1   S    
O5    Zn1   S    
C84   C101  A    
C17   C51   T    
C33   O15   A    
C10   H44   S    
C30   O11   A    
C34   O16   A    
C86   C103  A    
O6    Zn9   S    
C4    C28   S    
C12   H46   S    
C96   H16   S    
C34   C76   S    
C29   O8    A    
C29   C61   S    
C54   C59   A    
C19   H5    S    
O14   Zn16  S    
C37   O39   A    
C41   C87   S    
C89   H9    S    
C67   C85   A    
C56   C74   A    
C14   O58   S    
H36   O58   S    
C1    C6    S    
C43   C85   S    
C64   C67   A    
C13   O57   S    
C47   O44   A    
C16   O60   S    
C16   C70   S    
O48   Zn13  S    
C13   H47   S    
C30   O9    A    
O47   Zn14  S    
C44   O26   A    
O17   Zn4   S    
C27   O5    A    
O30   Zn6   S    
C57   C60   A    
C81   C99   A    
C95   H15   S    
C35   O32   A    
O18   Zn16  S    
O28   Zn8   S    
H35   O57   S    
C48   C84   S    
O68   Zn7   S    
C48   O46   A    
O12   Zn9   S    
C100  H20   S    
O35   Zn9   S    
C74   C91   A    
O27   Zn5   S    
C15   C19   S    
C92   H13   S    
C12   O55   S    
O15   Zn2   S    
O1    Zn1   S    
C41   O42   A    
C10   C55   S    
C9    O52   S    
C14   C20   S    
C76   C93   A    
O25   Zn7   S    
O9    Zn12  S    
O7    Zn10  S    
O12   Zn4   S    
C8    H23   S    
C23   C51   S    
O34   Zn6   S    
C4    C50   T    
C19   C64   S    
O39   Zn9   S    
O23   Zn14  S    
C15   C67   S    
C48   O30   A    
C46   O28   A    
C20   O63   S    
C21   O64   S    
C5    C61   T    
C34   O31   A    
C33   O35   A    
C94   O49   S    
C91   C97   A    
O40   Zn14  S    
C103  H24   S    
O31   Zn10  S    
C11   C54   S    
C36   C74   S    
C75   C92   A    
C20   H6    S    
C12   C57   S    
C11   C94   S    
C11   O54   S    
C22   O65   S    
C8    C62   S    
C43   O40   A    
O13   Zn15  S    
C101  C104  A    
C22   H8    S    
C104  H25   S    
C5    C39   S    
C35   O17   A    
C56   C62   A    
O1    Zn10  S    
C26   O2    A    
C18   O61   S    
O56   Zn4   S    
C93   H14   S    
O23   Zn7   S    
C14   H48   S    
C2    C10   S    
C79   C97   A    
C32   C78   S    
H43   O65   S    
C77   C95   A    
C90   C93   A    
C99   H19   S    
O34   Zn15  S    
H33   O55   S    
C46   C81   S    
O4    Zn6   S    
C24   C49   S    
C98   H18   S    
C37   C73   S    
C38   C71   S    
C43   O25   A    
C16   C22   S    
O23   Zn12  S    
C80   C98   A    
C3    C88   A    
C82   C100  A    
C10   O53   S    
C8    O51   S    
O32   Zn11  S    
O45   Zn3   S    
C23   O45   A    
C37   O19   A    
C30   C72   S    
C2    C58   S    
O44   Zn12  S    
C29   O6    A    
C63   C80   A    
O24   Zn6   S    
C63   C68   A    
H28   O50   S    
O23   Zn5   S    
C40   C75   S    
H31   O53   S    
C9    C60   S    
O34   Zn13  S    
C20   C63   S    
O66   Zn16  S    
O11   Zn14  S    
C42   O24   A    
O67   Zn2   S    
H40   O62   S    
C36   O18   A    
C28   C52   T    
C57   C75   A    
C65   C82   A    
C39   C53   T    
C38   O36   A    
C46   O48   A    
C40   O37   A    
C35   C79   S    
C91   H11   S    
C42   O43   A    
C90   H10   S    
H30   O52   S    
H27   O49   S    
C9    C12   S    
C18   H4    S    
C64   C81   A    
C23   O66   A    
C19   O62   S    
C45   O27   A    
C66   C84   A    
C87   C104  A    
C55   C73   A    
C24   O67   A    
O12   Zn2   S    
C99   C102  A    
O34   Zn8   S    
O1    Zn16  S    
C55   C58   A    
C24   O56   A    
O2    Zn8   S    
O20   Zn3   S    
C14   C68   S    
C45   O47   A    
O43   Zn13  S    
C25   O68   A    
O16   Zn3   S    
O42   Zn12  S    
O38   Zn10  S    
C62   C79   A    
C44   C88   S    
C1    C49   T    
O41   Zn15  S    
C38   O20   A    
C85   C102  A    
C65   C70   A    
O8    Zn11  S    
