data_mof_unit_10157.cif
_audit_creation_date              2012-12-11T15:07:10-0500
_audit_creation_method            fapswitch 2.2
_symmetry_space_group_name_H-M    P1
_symmetry_Int_Tables_number       1
_space_group_crystal_system       triclinic
_cell_length_a                    19.776097
_cell_length_b                    11.291201
_cell_length_c                    18.706572
_cell_angle_alpha                 89.959365
_cell_angle_beta                  90.799126
_cell_angle_gamma                 90.007855
_cell_volume                      4176.69321086

loop_
_atom_site_label
_atom_site_type_symbol
_atom_type_description
_atom_site_fract_x
_atom_site_fract_y
_atom_site_fract_z
_atom_type_partial_charge
C1    C     C_R   0.761736 0.522817 0.638764 0.539423
C2    C     C_R   0.238254 0.522718 0.361254 0.538856
C3    C     C_R   0.261736 0.022817 0.638764 0.539871
C4    C     C_R   0.738254 0.022719 0.361253 0.539429
C5    C     C_3   0.806311 0.131527 0.452342 -0.268812
C6    C     C_3   0.193713 0.131625 0.547576 -0.269055
C7    C     C_3   0.306311 0.631527 0.452341 -0.268871
C8    C     C_3   0.693713 0.631626 0.547577 -0.269055
C9    C     C_3   0.744852 0.054988 0.437875 0.052713
C10   C     C_3   0.255160 0.055086 0.562132 0.052595
C11   C     C_3   0.244852 0.554988 0.437875 0.052882
C12   C     C_3   0.755160 0.555086 0.562132 0.052751
C13   C     C_3   0.756303 0.087114 0.576035 0.057236
C14   C     C_3   0.243714 0.087091 0.423957 0.057436
C15   C     C_3   0.256303 0.587114 0.576035 0.057161
C16   C     C_3   0.743714 0.587091 0.423958 0.057304
C17   C     C_3   0.750183 0.954561 0.562781 -0.267026
C18   C     C_3   0.249828 0.954556 0.437349 -0.267217
C19   C     C_3   0.250183 0.454560 0.562781 -0.267048
C20   C     C_3   0.749827 0.454557 0.437350 -0.267196
C21   C     C_3   0.817803 0.131871 0.533333 -0.218485
C22   C     C_3   0.182217 0.131893 0.466586 -0.218461
C23   C     C_3   0.317803 0.631871 0.533333 -0.218456
C24   C     C_3   0.682217 0.631894 0.466587 -0.218535
C25   C     C_3   0.013985 0.201162 0.462241 0.037460
C26   C     C_3   0.986088 0.201188 0.537953 0.037575
C27   C     C_3   0.513984 0.701161 0.462240 0.037533
C28   C     C_3   0.486087 0.701188 0.537952 0.037537
C29   C     C_3   0.063922 0.404887 0.476111 -0.267254
C30   C     C_3   0.936078 0.404859 0.523837 -0.267316
C31   C     C_3   0.563921 0.904887 0.476110 -0.267167
C32   C     C_3   0.436078 0.904860 0.523836 -0.267327
C33   C     C_3   0.941759 0.380834 0.443278 -0.278647
C34   C     C_3   0.058242 0.380982 0.556703 -0.278719
C35   C     C_3   0.441758 0.880835 0.443277 -0.278681
C36   C     C_3   0.558241 0.880981 0.556702 -0.278718
C37   C     C_3   0.012174 0.329397 0.431164 0.042697
C38   C     C_3   0.987845 0.329476 0.568869 0.042673
C39   C     C_3   0.512173 0.829397 0.431163 0.042881
C40   C     C_3   0.487845 0.829476 0.568868 0.042487
C41   C     C_3   0.818049 0.024892 0.047037 -0.232351
C42   C     C_3   0.187507 0.010829 0.955511 -0.224448
C43   C     C_3   0.319578 0.530418 0.048777 -0.227894
C44   C     C_3   0.681733 0.524084 0.952942 -0.231120
C45   C     C_R   0.772570 0.118259 0.651007 0.528124
C46   C     C_R   0.227445 0.118197 0.348974 0.527684
C47   C     C_R   0.272570 0.618259 0.651007 0.528292
C48   C     C_R   0.727444 0.618197 0.348975 0.528223
C49   C     C_3   0.817870 0.021289 0.966328 -0.238116
C50   C     C_3   0.185001 0.016127 0.035677 -0.235918
C51   C     C_3   0.322348 0.536166 0.968514 -0.227111
C52   C     C_3   0.681672 0.521556 0.033730 -0.237307
C53   C     C_3   0.690144 0.015073 0.029373 -0.226608
C54   C     C_3   0.318061 0.033441 0.970692 -0.215780
C55   C     C_3   0.192908 0.513005 0.030682 -0.222831
C56   C     C_3   0.809343 0.515321 0.970277 -0.226901
C57   C     C_3   0.743460 0.201590 0.060755 -0.253856
C58   C     C_3   0.245951 0.200085 0.937824 -0.258347
C59   C     C_3   0.244782 0.704595 0.061106 -0.254625
C60   C     C_3   0.755764 0.701645 0.938868 -0.254609
C61   C     C_3   0.747852 0.069918 0.074770 0.060612
C62   C     C_3   0.253639 0.067941 0.926087 0.061983
C63   C     C_3   0.249293 0.572697 0.075580 0.058112
C64   C     C_3   0.751694 0.569941 0.925022 0.060856
C65   C     C_3   0.760982 0.103716 0.935885 0.060428
C66   C     C_3   0.239890 0.102195 0.064721 0.058283
C67   C     C_3   0.261294 0.605798 0.936426 0.060892
C68   C     C_3   0.738657 0.603849 0.063926 0.060332
C69   C     C_3   0.693879 0.042361 0.948334 -0.248000
C70   C     C_3   0.308204 0.044246 0.052488 -0.249681
C71   C     C_3   0.200093 0.526995 0.948503 -0.257713
C72   C     C_3   0.805862 0.542865 0.051253 -0.248577
C73   C     C_3   0.758936 0.219084 0.980602 -0.234100
C74   C     C_3   0.238391 0.217617 0.019540 -0.229287
C75   C     C_3   0.246087 0.722223 0.978874 -0.216811
C76   C     C_3   0.740282 0.719226 0.018980 -0.235580
C77   C     C_3   0.998607 0.481355 0.040652 -0.235317
C78   C     C_3   0.000437 0.481468 0.959449 -0.233845
C79   C     C_3   0.494714 0.980010 0.042428 -0.231869
C80   C     C_3   0.491855 0.980214 0.961550 -0.226812
C81   C     C_3   0.066652 0.292148 0.027507 -0.226565
C82   C     C_3   0.933752 0.290073 0.971902 -0.224203
C83   C     C_3   0.566278 0.794856 0.028635 -0.221370
C84   C     C_3   0.437364 0.770936 0.972773 -0.213436
C85   C     C_3   0.946108 0.282228 0.053375 -0.256412
C86   C     C_3   0.054328 0.283712 0.946155 -0.256706
C87   C     C_3   0.444933 0.779795 0.054808 -0.257291
C88   C     C_3   0.557236 0.798354 0.946338 -0.263316
C89   C     C_R   0.967710 0.341642 0.644435 0.565612
C90   C     C_R   0.032296 0.341592 0.355576 0.565597
C91   C     C_R   0.467710 0.841642 0.644435 0.566105
C92   C     C_R   0.532296 0.841592 0.355575 0.565036
C93   C     C_3   0.009573 0.352607 0.069524 0.061787
C94   C     C_3   0.990299 0.352530 0.930260 0.063047
C95   C     C_3   0.507985 0.852301 0.070549 0.061136
C96   C     C_3   0.488027 0.851735 0.931517 0.062872
C97   C     C_R   0.760590 0.533912 0.848652 0.535838
C98   C     C_R   0.240024 0.535984 0.152096 0.531874
C99   C     C_R   0.261382 0.032100 0.849510 0.535988
C100  C     C_R   0.739264 0.033720 0.151202 0.535999
C101  C     C_R   0.774853 0.133211 0.859021 0.529439
C102  C     C_R   0.225613 0.132150 0.141437 0.526993
C103  C     C_R   0.274900 0.633649 0.859207 0.527338
C104  C     C_R   0.725058 0.633371 0.140884 0.529686
C105  C     C_R   0.969284 0.353376 0.853562 0.535732
C106  C     C_R   0.030798 0.353395 0.146299 0.535868
C107  C     C_R   0.467895 0.853353 0.854503 0.535944
C108  C     C_R   0.529720 0.853249 0.147098 0.533087
C109  C     C_3   0.684326 0.128639 0.465649 -0.226409
C110  C     C_3   0.315710 0.128691 0.534301 -0.226535
C111  C     C_3   0.184326 0.628640 0.465649 -0.226377
C112  C     C_3   0.815710 0.628692 0.534301 -0.226528
C113  C     C_3   0.689276 0.142551 0.547249 -0.223981
C114  C     C_3   0.310753 0.142582 0.452692 -0.223921
C115  C     C_3   0.189276 0.642551 0.547249 -0.223985
C116  C     C_3   0.810752 0.642582 0.452692 -0.223950
C117  C     C_3   0.755087 0.937116 0.481367 -0.223838
C118  C     C_3   0.244906 0.937183 0.518775 -0.223667
C119  C     C_3   0.255087 0.437116 0.481367 -0.223750
C120  C     C_3   0.744906 0.437184 0.518775 -0.223669
Cr1   Cr    Cr6+3 0.885690 0.492860 0.745310 1.005319
Cr2   Cr    Cr6+3 0.114310 0.492860 0.254690 1.005109
Cr3   Cr    Cr6+3 0.385690 0.992860 0.745310 1.005742
Cr4   Cr    Cr6+3 0.614310 0.992860 0.254690 1.004991
Cr5   Cr    Cr6+3 0.729880 0.332270 0.748190 1.019324
Cr6   Cr    Cr6+3 0.270120 0.332270 0.251810 1.018545
Cr7   Cr    Cr6+3 0.229880 0.832270 0.748190 1.019436
Cr8   Cr    Cr6+3 0.770120 0.832270 0.251810 1.019276
Cr9   Cr    Cr6+3 0.888120 0.178590 0.753010 1.047011
Cr10  Cr    Cr6+3 0.111880 0.178590 0.246990 1.046997
Cr11  Cr    Cr6+3 0.388120 0.678590 0.753010 1.047354
Cr12  Cr    Cr6+3 0.611880 0.678590 0.246990 1.046455
H1    H     H_    0.636246 0.090544 0.449490 0.140277
H2    H     H_    0.363777 0.090544 0.550495 0.140312
H3    H     H_    0.136245 0.590545 0.449489 0.140294
H4    H     H_    0.863777 0.590544 0.550495 0.140345
H5    H     H_    0.858475 0.066024 0.544742 0.180938
H6    H     H_    0.141529 0.066051 0.455243 0.180989
H7    H     H_    0.358474 0.566024 0.544742 0.180932
H8    H     H_    0.641528 0.566051 0.455244 0.181002
H9    H     H_    0.807544 0.907661 0.471699 0.147654
H10   H     H_    0.192432 0.907792 0.528463 0.147772
H11   H     H_    0.307544 0.407661 0.471699 0.147668
H12   H     H_    0.692431 0.407793 0.528464 0.147791
H13   H     H_    0.791378 0.905708 0.591018 0.132276
H14   H     H_    0.208633 0.905692 0.409154 0.132061
H15   H     H_    0.291378 0.405708 0.591018 0.132301
H16   H     H_    0.708632 0.405693 0.409155 0.132182
H17   H     H_    0.065189 0.179766 0.470197 0.156466
H18   H     H_    0.934893 0.179683 0.530073 0.156604
H19   H     H_    0.565188 0.679764 0.470194 0.156517
H20   H     H_    0.434893 0.679683 0.530072 0.156613
H21   H     H_    0.615881 0.891173 0.458524 0.110894
H22   H     H_    0.384120 0.891144 0.541444 0.110787
H23   H     H_    0.115882 0.391174 0.458525 0.110876
H24   H     H_    0.884120 0.391144 0.541445 0.110823
H25   H     H_    0.597417 0.817442 0.575206 0.134543
H26   H     H_    0.402601 0.817216 0.424871 0.134384
H27   H     H_    0.097418 0.317444 0.575207 0.134524
H28   H     H_    0.902602 0.317215 0.424872 0.134497
H29   H     H_    0.934591 0.464402 0.412897 0.132858
H30   H     H_    0.065360 0.464603 0.586970 0.132871
H31   H     H_    0.434590 0.964402 0.412896 0.132738
H32   H     H_    0.565360 0.964602 0.586969 0.132894
H33   H     H_    0.949991 0.498930 0.532197 0.149003
H34   H     H_    0.049988 0.498931 0.467619 0.149146
H35   H     H_    0.449991 0.998930 0.532196 0.148985
H36   H     H_    0.549987 0.998930 0.467618 0.149154
H37   H     H_    0.833841 0.936058 0.065625 0.141237
H38   H     H_    0.179700 0.919527 0.938865 0.139457
H39   H     H_    0.332768 0.438501 0.064062 0.139667
H40   H     H_    0.666269 0.435073 0.934602 0.140509
H41   H     H_    0.683553 0.217389 0.440316 0.117251
H42   H     H_    0.316510 0.217450 0.559554 0.117248
H43   H     H_    0.183553 0.717389 0.440316 0.117181
H44   H     H_    0.816510 0.717450 0.559554 0.117234
H45   H     H_    0.858183 0.085291 0.066882 0.119273
H46   H     H_    0.142795 0.058064 0.932595 0.120067
H47   H     H_    0.359544 0.585977 0.073225 0.119113
H48   H     H_    0.641390 0.583273 0.932659 0.117951
H49   H     H_    0.869510 0.042670 0.949110 0.134604
H50   H     H_    0.132796 0.040718 0.049865 0.133755
H51   H     H_    0.370960 0.571683 0.953408 0.133967
H52   H     H_    0.630112 0.544605 0.050631 0.134733
H53   H     H_    0.808979 0.929793 0.947366 0.118620
H54   H     H_    0.193055 0.927501 0.058997 0.119446
H55   H     H_    0.322714 0.444679 0.946455 0.116390
H56   H     H_    0.690173 0.430237 0.053308 0.119423
H57   H     H_    0.698610 0.923204 0.036769 0.107208
H58   H     H_    0.338309 0.947718 0.955497 0.107910
H59   H     H_    0.198986 0.422417 0.045319 0.107963
H60   H     H_    0.801312 0.423326 0.962549 0.106952
H61   H     H_    0.691113 0.959864 0.916326 0.100349
H62   H     H_    0.310636 0.956105 0.078466 0.102916
H63   H     H_    0.206233 0.439750 0.922273 0.108071
H64   H     H_    0.810247 0.460381 0.083355 0.102030
H65   H     H_    0.691856 0.234169 0.073054 0.122726
H66   H     H_    0.290516 0.249443 0.917847 0.114382
H67   H     H_    0.196782 0.738551 0.083465 0.116810
H68   H     H_    0.807267 0.734606 0.926443 0.122531
H69   H     H_    0.780229 0.250692 0.095128 0.102638
H70   H     H_    0.201181 0.233902 0.907794 0.104546
H71   H     H_    0.287302 0.752109 0.087614 0.104470
H72   H     H_    0.718791 0.750292 0.904433 0.103905
H73   H     H_    0.809941 0.249000 0.979900 0.110720
H74   H     H_    0.188492 0.248920 0.026698 0.108969
H75   H     H_    0.279227 0.794852 0.964234 0.108152
H76   H     H_    0.689107 0.748768 0.019297 0.112325
H77   H     H_    0.723172 0.282240 0.956490 0.128213
H78   H     H_    0.277031 0.280095 0.039571 0.126917
H79   H     H_    0.194135 0.747622 0.963135 0.120426
H80   H     H_    0.775940 0.782859 0.042952 0.127561
H81   H     H_    0.640469 0.041633 0.049920 0.127849
H82   H     H_    0.356745 0.099724 0.956932 0.119727
H83   H     H_    0.143158 0.546496 0.047142 0.126273
H84   H     H_    0.858580 0.542581 0.949511 0.127384
H85   H     H_    0.684801 0.235630 0.562113 0.149117
H86   H     H_    0.315217 0.235684 0.437757 0.149353
H87   H     H_    0.184801 0.735630 0.562112 0.149098
H88   H     H_    0.815217 0.735684 0.437757 0.149322
H89   H     H_    0.651191 0.100656 0.931543 0.122923
H90   H     H_    0.348336 0.100850 0.076725 0.118593
H91   H     H_    0.154416 0.568725 0.924520 0.112398
H92   H     H_    0.847789 0.603074 0.067466 0.122193
H93   H     H_    0.036315 0.546335 0.060176 0.136490
H94   H     H_    0.963329 0.546903 0.939617 0.135944
H95   H     H_    0.533342 0.045184 0.059533 0.135322
H96   H     H_    0.450673 0.036466 0.942977 0.135084
H97   H     H_    0.949201 0.514897 0.058980 0.117300
H98   H     H_    0.049677 0.515849 0.941446 0.114585
H99   H     H_    0.446711 0.013243 0.064153 0.116337
H100  H     H_    0.537738 0.025114 0.940931 0.116191
H101  H     H_    0.608913 0.846082 0.045181 0.107042
H102  H     H_    0.385118 0.782237 0.954685 0.109407
H103  H     H_    0.107391 0.351872 0.036355 0.109381
H104  H     H_    0.891659 0.346299 0.961290 0.106811
H105  H     H_    0.597706 0.850577 0.920955 0.107319
H106  H     H_    0.399759 0.821402 0.078548 0.104522
H107  H     H_    0.097303 0.322254 0.916473 0.102706
H108  H     H_    0.902258 0.317817 0.082998 0.102640
H109  H     H_    0.954047 0.188563 0.069738 0.122634
H110  H     H_    0.048409 0.189596 0.929675 0.122881
H111  H     H_    0.451461 0.690345 0.078594 0.118448
H112  H     H_    0.559376 0.708038 0.923453 0.112899
H113  H     H_    0.924606 0.200711 0.950551 0.134538
H114  H     H_    0.077939 0.203369 0.049171 0.134535
H115  H     H_    0.451743 0.679364 0.958755 0.123983
H116  H     H_    0.572936 0.702162 0.045748 0.131646
H117  H     H_    0.645339 0.099667 0.572550 0.114110
H118  H     H_    0.354695 0.099716 0.427430 0.113963
H119  H     H_    0.145339 0.599667 0.572549 0.114101
H120  H     H_    0.854694 0.599716 0.427431 0.114055
H121  H     H_    0.721708 0.867520 0.462734 0.107273
H122  H     H_    0.278253 0.867579 0.537519 0.107357
H123  H     H_    0.221709 0.367520 0.462734 0.107318
H124  H     H_    0.778253 0.367580 0.537519 0.107374
H125  H     H_    0.701487 0.920776 0.583130 0.107190
H126  H     H_    0.298530 0.920774 0.417058 0.107039
H127  H     H_    0.201487 0.420776 0.583130 0.107206
H128  H     H_    0.798530 0.420774 0.417058 0.107180
H129  H     H_    0.850279 0.094107 0.425401 0.198034
H130  H     H_    0.149743 0.094225 0.574553 0.198032
H131  H     H_    0.350278 0.594107 0.425400 0.197982
H132  H     H_    0.649743 0.594226 0.574554 0.198033
H133  H     H_    0.798984 0.222225 0.431420 0.105337
H134  H     H_    0.201047 0.222338 0.568391 0.105417
H135  H     H_    0.298985 0.722225 0.431420 0.105221
H136  H     H_    0.701047 0.722338 0.568392 0.105381
H137  H     H_    0.834622 0.218696 0.552536 0.100352
H138  H     H_    0.165400 0.218697 0.447256 0.100534
H139  H     H_    0.334622 0.718696 0.552535 0.100327
H140  H     H_    0.665399 0.718698 0.447257 0.100528
O1    O     O_R   0.957210 0.449410 0.665480 -0.535456
O2    O     O_R   0.042790 0.449410 0.334520 -0.535510
O3    O     O_R   0.457210 0.949410 0.665480 -0.535173
O4    O     O_R   0.542790 0.949410 0.334520 -0.535797
O5    O     O_R   0.736260 0.212010 0.826560 -0.512491
O6    O     O_R   0.263740 0.212010 0.173440 -0.512208
O7    O     O_R   0.236260 0.712010 0.826560 -0.512532
O8    O     O_R   0.763740 0.712010 0.173440 -0.512448
O9    O     O_R   0.832520 0.095300 0.836000 -0.532707
O10   O     O_R   0.167480 0.095300 0.164000 -0.533231
O11   O     O_R   0.332520 0.595300 0.836000 -0.532304
O12   O     O_R   0.667480 0.595300 0.164000 -0.532128
O13   O     O_R   0.946380 0.253940 0.826940 -0.508561
O14   O     O_R   0.053620 0.253940 0.173060 -0.507989
O15   O     O_R   0.446380 0.753940 0.826940 -0.507769
O16   O     O_R   0.553620 0.753940 0.173060 -0.508720
O17   O     O_3   0.834560 0.334570 0.748840 -0.289392
O18   O     O_3   0.165440 0.334570 0.251160 -0.288352
O19   O     O_3   0.334560 0.834570 0.748840 -0.290989
O20   O     O_3   0.665440 0.834570 0.251160 -0.289032
O21   O     O_R   0.820730 0.541240 0.668250 -0.516235
O22   O     O_R   0.179270 0.541240 0.331750 -0.516576
O23   O     O_R   0.320730 0.041240 0.668250 -0.516046
O24   O     O_R   0.679270 0.041240 0.331750 -0.516196
O25   O     O_R   0.714240 0.455060 0.663710 -0.503991
O26   O     O_R   0.285760 0.455060 0.336290 -0.504381
O27   O     O_R   0.214240 0.955060 0.663710 -0.503672
O28   O     O_R   0.785760 0.955060 0.336290 -0.504062
O29   O     O_R   0.736780 0.204870 0.675910 -0.515301
O30   O     O_R   0.263220 0.204870 0.324090 -0.515537
O31   O     O_R   0.236780 0.704870 0.675910 -0.515204
O32   O     O_R   0.763220 0.704870 0.324090 -0.515325
O33   O     O_R   0.833070 0.087590 0.673490 -0.504164
O34   O     O_R   0.166930 0.087590 0.326510 -0.504332
O35   O     O_R   0.333070 0.587590 0.673490 -0.504078
O36   O     O_R   0.666930 0.587590 0.326510 -0.504110
O37   O     O_R   0.946890 0.246800 0.676300 -0.456435
O38   O     O_R   0.053110 0.246800 0.323700 -0.456368
O39   O     O_R   0.446890 0.746800 0.676300 -0.456138
O40   O     O_R   0.553110 0.746800 0.323700 -0.456736
O41   O     O_R   0.956650 0.457120 0.827980 -0.531963
O42   O     O_R   0.043350 0.457120 0.172020 -0.531233
O43   O     O_R   0.456650 0.957120 0.827980 -0.531476
O44   O     O_R   0.543350 0.957120 0.172020 -0.532256
O45   O     O_R   0.820220 0.548390 0.818890 -0.510767
O46   O     O_R   0.179780 0.548390 0.181110 -0.510383
O47   O     O_R   0.320220 0.048390 0.818890 -0.510412
O48   O     O_R   0.679780 0.048390 0.181110 -0.510184
O49   O     O_R   0.713680 0.462770 0.826210 -0.525487
O50   O     O_R   0.286320 0.462770 0.173790 -0.525338
O51   O     O_R   0.213680 0.962770 0.826210 -0.525264
O52   O     O_R   0.786320 0.962770 0.173790 -0.525469
Br1   Br    Br    0.979025 0.071598 0.403273 -0.549966
Br2   Br    Br    0.021099 0.071725 0.597081 -0.549585
Br3   Br    Br    0.479023 0.571600 0.403270 -0.550507
Br4   Br    Br    0.521098 0.571724 0.597079 -0.549522

loop_
_geom_bond_atom_site_label_1
_geom_bond_atom_site_label_2
_ccdc_geom_bond_type
C78   H94   S    
C5    H133  S    
C82   C94   S    
C119  H11   S    
C120  H12   S    
C21   H5    S    
C53   C69   S    
C104  O8    A    
C56   H60   S    
C43   C63   S    
C44   C64   S    
Cr6   O6    S    
C102  O10   A    
C84   H115  S    
C112  H4    S    
C63   C98   S    
C51   H51   S    
Cr2   O2    S    
C19   H127  S    
C26   Br2   S    
C109  H41   S    
C28   C40   S    
C72   H92   S    
C30   C38   S    
C113  H85   S    
C42   H38   S    
C75   H75   S    
C56   C72   S    
C45   O33   A    
C8    H132  S    
C18   C118  S    
C81   C86   S    
C29   H23   S    
C30   H24   S    
C83   C88   S    
C87   H106  S    
C48   O32   A    
C5    H129  S    
C41   C49   S    
Cr8   O28   S    
Cr1   O45   S    
Cr2   O42   S    
Cr3   O47   S    
Cr4   O48   S    
C26   C38   S    
Cr10  O34   S    
C14   C114  S    
C41   H37   S    
C60   C76   S    
C35   H31   S    
Cr8   O52   S    
C55   H59   S    
C29   H34   S    
C33   H29   S    
C44   H40   S    
C88   H112  S    
C54   C70   S    
C48   O36   A    
C68   C72   S    
C23   H139  S    
C69   H61   S    
C13   C21   S    
C99   O47   A    
C79   H99   S    
C32   H22   S    
C64   C97   S    
C17   H13   S    
C15   C115  S    
C20   C120  S    
C1    O25   A    
C54   H82   S    
C43   H39   S    
C57   H65   S    
C59   C63   S    
C52   H52   S    
Cr4   O20   S    
C72   H64   S    
C57   C61   S    
C82   C85   S    
Cr6   O50   S    
C77   H97   S    
Cr11  O19   S    
C60   C64   S    
Cr9   O13   S    
C13   C45   S    
C102  O6    A    
C78   C94   S    
C91   O3    A    
C69   H89   S    
C95   C108  S    
C60   H68   S    
C62   C99   S    
C107  O43   A    
C5    C21   S    
C58   H70   S    
C79   H95   S    
C31   C36   S    
C47   O35   A    
C4    O28   A    
C97   O45   A    
C55   C71   S    
C90   O38   A    
Cr1   O21   S    
C107  O15   A    
Cr2   O18   S    
C65   C101  S    
Cr10  O14   S    
Cr3   O23   S    
Cr11  O11   S    
C67   C103  S    
C66   C70   S    
Cr5   O5    S    
C37   C90   S    
C24   H140  S    
C41   H45   S    
C42   H46   S    
C55   H83   S    
C115  H119  S    
C66   C74   S    
C113  H117  S    
C25   H17   S    
C57   C73   S    
C53   C61   S    
C60   H72   S    
C83   H101  S    
C55   C63   S    
C6    H134  S    
C56   C64   S    
C7    H131  S    
Cr7   O51   S    
C116  H88   S    
C42   C62   S    
C33   H28   S    
Cr5   O29   S    
C34   H27   S    
C76   H80   S    
C50   H50   S    
C1    C12   S    
Cr9   O33   S    
C80   H100  S    
C2    C11   S    
Cr3   O3    S    
C110  H42   S    
C6    H130  S    
Cr9   O37   S    
C25   C26   S    
C105  O13   A    
C84   H102  S    
C5    C9    S    
C108  O16   A    
C93   C106  S    
C71   H63   S    
C8    C12   S    
C90   O2    A    
C51   C67   S    
C43   H47   S    
C7    H135  S    
C36   H25   S    
C42   C50   S    
C49   H49   S    
C112  H44   S    
Cr2   O46   S    
Cr3   O43   S    
C110  H2    S    
C61   C100  S    
C67   C75   S    
C17   H125  S    
C50   H54   S    
C112  C116  S    
C58   C74   S    
Cr10  O38   S    
Cr11  O35   S    
C53   H81   S    
C54   H58   S    
C81   H114  S    
C30   H33   S    
C34   H30   S    
C68   C76   S    
C1    O21   A    
C98   O46   A    
C85   H108  S    
C14   C22   S    
C3    O23   A    
C7    C23   S    
C8    C24   S    
C40   C91   S    
C101  O9    A    
C56   H84   S    
Cr7   O27   S    
C46   O30   A    
C99   O51   A    
Cr8   O20   S    
C114  H86   S    
C49   H53   S    
C57   H69   S    
C52   H56   S    
Cr7   O7    S    
C4    C9    S    
Cr4   O24   S    
C53   H57   S    
Cr8   O8    S    
C86   H110  S    
C58   C62   S    
C89   O1    A    
C88   C96   S    
C94   C105  S    
C77   H93   S    
C82   H104  S    
C12   C112  S    
C44   H48   S    
C21   H137  S    
C14   C46   S    
C77   C78   S    
C15   C19   S    
C75   H79   S    
C101  O5    A    
C92   O40   A    
C25   Br1   S    
C6    C22   S    
C27   Br3   S    
Cr5   O17   S    
C2    O22   A    
C73   H73   S    
Cr6   O18   S    
Cr2   O22   S    
C103  O7    A    
Cr3   O19   S    
C46   O34   A    
C82   H113  S    
C17   C117  S    
C19   C119  S    
C81   H103  S    
Cr12  O36   S    
C16   C116  S    
C76   H76   S    
C9    C109  S    
C27   C39   S    
C26   H18   S    
C105  O41   A    
C54   C62   S    
C18   H14   S    
C109  H1    S    
C29   C34   S    
C108  O44   A    
C33   C37   S    
C41   C61   S    
C117  H9    S    
C79   C95   S    
Cr5   O25   S    
Cr6   O30   S    
C70   H62   S    
C85   H109  S    
C86   H107  S    
C80   H96   S    
Cr12  O12   S    
C96   C107  S    
C91   O39   A    
C100  O52   A    
C39   C92   S    
C73   H77   S    
C27   H19   S    
C106  O14   A    
C14   C18   S    
C68   C104  S    
C119  H123  S    
C6    C10   S    
C13   C17   S    
C78   H98   S    
C22   H6    S    
Cr5   O49   S    
C19   H15   S    
C35   H26   S    
C104  O12   A    
C43   C51   S    
Cr11  O39   S    
C65   C69   S    
C77   C93   S    
C70   H90   S    
C10   C110  S    
C67   C71   S    
C111  H3    S    
Cr1   O1    S    
C18   H126  S    
C51   H55   S    
C3    O27   A    
C59   H71   S    
C31   H36   S    
C32   H35   S    
C29   C37   S    
C36   H32   S    
C11   C111  S    
C9    C117  S    
C66   C102  S    
C35   C39   S    
C84   C87   S    
C15   C47   S    
C8    H136  S    
C11   C119  S    
C16   C48   S    
C28   Br4   S    
C7    C11   S    
C38   C89   S    
C49   C65   S    
C74   H78   S    
C111  H43   S    
C23   H7    S    
Cr7   O31   S    
Cr8   O32   S    
Cr1   O41   S    
C114  H118  S    
C65   C73   S    
C84   C96   S    
Cr4   O44   S    
C86   C94   S    
C25   C37   S    
C12   C120  S    
C59   H67   S    
C83   H116  S    
Cr12  O20   S    
C80   C96   S    
C118  H122  S    
C52   C68   S    
C16   C20   S    
C22   H138  S    
C15   C23   S    
Cr9   O17   S    
C16   C24   S    
C115  H87   S    
C85   C93   S    
C2    O26   A    
C103  O11   A    
C31   H21   S    
C71   H91   S    
C117  H121  S    
C32   C35   S    
C36   C40   S    
C97   O49   A    
Cr7   O19   S    
C116  H120  S    
C87   C95   S    
C120  H124  S    
C10   C118  S    
C81   C93   S    
C87   H111  S    
C83   C95   S    
Cr10  O18   S    
C20   H16   S    
Cr12  O40   S    
Cr9   O9    S    
C50   C66   S    
C100  O48   A    
C20   H128  S    
C28   H20   S    
C45   O29   A    
C92   O4    A    
C24   H8    S    
C59   C75   S    
C106  O42   A    
C74   H74   S    
C110  C114  S    
C58   H66   S    
C30   C33   S    
C34   C38   S    
C47   O31   A    
C4    O24   A    
C118  H10   S    
C89   O37   A    
Cr6   O26   S    
C109  C113  S    
Cr1   O17   S    
Cr10  O10   S    
C3    C10   S    
Cr11  O15   S    
Cr4   O4    S    
C44   C52   S    
Cr12  O16   S    
C88   H105  S    
C31   C39   S    
C32   C40   S    
C79   C80   S    
C98   O50   A    
C27   C28   S    
C111  C115  S    
C13   C113  S    
