data_mof_unit_15794.cif
_audit_creation_date              2012-12-10T17:42:40-0500
_audit_creation_method            fapswitch 2.2
_symmetry_space_group_name_H-M    P1
_symmetry_Int_Tables_number       1
_space_group_crystal_system       triclinic
_cell_length_a                    9.888141
_cell_length_b                    10.734047
_cell_length_c                    13.075699
_cell_angle_alpha                 91.238238
_cell_angle_beta                  69.7112
_cell_angle_gamma                 88.953703
_cell_volume                      1300.9499666

loop_
_atom_site_label
_atom_site_type_symbol
_atom_type_description
_atom_site_fract_x
_atom_site_fract_y
_atom_site_fract_z
_atom_type_partial_charge
C1    C     C_R   0.500387 0.740287 0.494256 0.927209
C2    C     C_R   0.433912 0.472913 0.983583 0.059465
C3    C     C_R   0.462055 0.436274 0.874190 -0.063474
C4    C     C_R   0.547118 0.461648 0.026103 -0.095049
C5    C     C_R   0.675387 0.391181 0.967353 -0.131384
C6    C     C_R   0.686898 0.333964 0.867318 -0.268040
C7    C     C_R   0.582551 0.356563 0.820804 0.634383
C8    C     C_R   0.537187 0.519960 0.125037 0.575042
C9    C     C_R   0.757216 0.415259 0.121341 -0.291990
C10   C     C_R   0.367544 0.479917 0.822230 -0.107847
C11   C     C_R   0.244114 0.895826 0.486797 -0.261425
C12   C     C_R   0.419916 0.493092 0.704157 0.907836
C13   C     C_R   0.110350 0.960944 0.524144 0.512979
C14   C     C_R   0.098163 0.073410 0.581896 -0.073892
C15   C     C_R   0.220527 0.126777 0.591654 -0.200501
C16   C     C_R   0.357957 0.067378 0.543879 0.017459
C17   C     C_R   0.365810 0.943461 0.507104 0.068785
C18   C     C_R   0.495908 0.874366 0.491954 -0.194770
C19   C     C_R   0.620027 0.934235 0.492307 -0.291758
C20   C     C_R   0.618407 0.060767 0.506366 0.679592
C21   C     C_R   0.488955 0.128779 0.527435 -0.238539
C22   C     C_R   0.792252 0.663364 0.644854 -0.248460
C23   C     C_R   0.495737 0.261073 0.511265 0.951546
C24   C     C_R   0.828757 0.739683 0.718137 -0.221932
C25   C     C_R   0.968109 0.736403 0.719484 0.650905
C26   C     C_R   0.071995 0.657519 0.646814 -0.307434
C27   C     C_R   0.038428 0.578304 0.572248 0.059599
C28   C     C_R   0.893935 0.579606 0.571673 0.173113
C29   C     C_R   0.961337 0.424034 0.431482 -0.066321
C30   C     C_R   0.104672 0.424300 0.431314 -0.085747
C31   C     C_R   0.580450 0.500236 0.295456 0.956294
C32   C     C_R   0.784809 0.374653 0.013801 0.500468
C33   C     C_R   0.631343 0.484575 0.177520 -0.259958
C34   C     C_R   0.229820 0.527320 0.884790 -0.149930
C35   C     C_R   0.190251 0.539013 0.997427 -0.112192
C36   C     C_R   0.291967 0.514879 0.046690 -0.070723
H1    H     H_    0.832951 0.390776 0.161378 0.196892
H2    H     H_    0.251855 0.811914 0.438005 0.186895
H3    H     H_    0.994643 0.122136 0.615618 0.188568
H4    H     H_    0.206711 0.214834 0.636469 0.181223
H5    H     H_    0.934146 0.362038 0.375621 0.161551
H6    H     H_    0.683758 0.674219 0.648148 0.224320
H7    H     H_    0.748384 0.802572 0.773578 0.192057
H8    H     H_    0.177732 0.661834 0.650361 0.229493
H9    H     H_    0.775097 0.269931 0.824424 0.187972
H10   H     H_    0.185494 0.362421 0.375282 0.154221
H11   H     H_    0.154109 0.557648 0.846589 0.171417
H12   H     H_    0.255551 0.524698 0.134452 0.191026
H13   H     H_    0.082501 0.571949 0.046239 0.160165
H14   H     H_    0.720389 0.883404 0.479976 0.228011
N1    N     N_R   0.856860 0.501200 0.500990 -0.102245
N2    N     N_R   0.142450 0.501280 0.501020 -0.106370
O1    O     O_R   0.385310 0.683220 0.500000 -0.637973
O2    O     O_R   0.614640 0.683250 0.500010 -0.647513
O3    O     O_R   0.328400 0.499950 0.653610 -0.655492
O4    O     O_R   0.557730 0.499970 0.653620 -0.592798
O5    O     O_R   0.385360 0.316750 0.499990 -0.650699
O6    O     O_R   0.614690 0.316780 0.500000 -0.510953
O7    O     O_R   0.442270 0.500030 0.346380 -0.569518
O8    O     O_R   0.671600 0.500050 0.346390 -0.634130
Zn1   Zn    Zn3+2 0.346880 0.499980 0.499990 0.947190
Zn2   Zn    Zn3+2 0.653120 0.500020 0.500010 0.998760
O9    O     O_3   0.989970 0.916383 0.506708 -0.738400
H15   H     H_    0.015852 0.835940 0.465016 0.322752
F1    F     F_    0.744479 0.115723 0.497747 -0.612280
F2    F     F_    0.003832 0.811884 0.790143 -0.654945
O10   O     O_3   0.915529 0.314413 0.959981 -0.743233
H16   H     H_    0.944062 0.330791 0.881224 0.324534
F3    F     F_    0.437787 0.612597 0.171780 -0.677125
F4    F     F_    0.593961 0.291459 0.727858 -0.646679

loop_
_geom_bond_atom_site_label_1
_geom_bond_atom_site_label_2
_ccdc_geom_bond_type
C31   O8    A    
C35   H13   S    
C23   O6    A    
C2    C4    A    
C1    O2    A    
C31   C33   S    
O6    Zn2   S    
C16   C21   A    
C6    H9    S    
C11   H2    S    
C3    C7    A    
C19   C20   A    
C13   O9    S    
C4    C8    A    
C5    C32   A    
C1    O1    A    
C7    F4    S    
C9    H1    S    
C17   C18   A    
C26   C27   A    
C26   H8    S    
C10   C34   A    
C3    C10   A    
C22   H6    S    
C13   C14   A    
C24   C25   A    
O5    Zn1   S    
C11   C13   A    
C19   H14   S    
C8    F3    S    
C29   C30   A    
N1    Zn2   S    
C10   C12   S    
C9    C33   A    
C32   O10   S    
C30   N2    A    
O3    Zn1   S    
O10   H16   S    
C12   O4    A    
C30   H10   S    
C36   H12   S    
C6    C7    A    
C2    C3    A    
N2    Zn1   S    
C21   C23   S    
C5    C6    A    
C14   H3    S    
C28   N1    A    
C22   C24   A    
C15   H4    S    
O7    Zn1   S    
C12   O3    A    
C16   C17   A    
C2    C36   A    
C15   C16   A    
C20   F1    S    
C18   C19   A    
C20   C21   A    
C27   N2    A    
O8    Zn2   S    
C34   C35   A    
C29   N1    A    
C31   O7    A    
C27   C28   A    
C23   O5    A    
C24   H7    S    
C1    C18   S    
C14   C15   A    
C4    C5    A    
C22   C28   A    
C34   H11   S    
O2    Zn2   S    
C9    C32   A    
C29   H5    S    
C25   C26   A    
O1    Zn1   S    
O4    Zn2   S    
C11   C17   A    
C25   F2    S    
O9    H15   S    
C8    C33   A    
C35   C36   A    
