data_mof_unit_50714.cif
_audit_creation_date              2012-12-11T16:57:19-0500
_audit_creation_method            fapswitch 2.2
_symmetry_space_group_name_H-M    P1
_symmetry_Int_Tables_number       1
_space_group_crystal_system       monoclinic
_cell_length_a                    14.521201
_cell_length_b                    16.189973
_cell_length_c                    6.929481
_cell_angle_alpha                 90.0
_cell_angle_beta                  98.582755
_cell_angle_gamma                 90.0
_cell_volume                      1610.86230013

loop_
_atom_site_label
_atom_site_type_symbol
_atom_type_description
_atom_site_fract_x
_atom_site_fract_y
_atom_site_fract_z
_atom_type_partial_charge
O1    O     O_R   0.584990 0.413650 0.534420 -0.537694
O2    O     O_R   0.584990 0.586350 0.534420 -0.537694
O3    O     O_R   0.596190 0.585230 0.208380 -0.543395
O4    O     O_R   0.596190 0.414770 0.208380 -0.543395
O5    O     O_R   0.415010 0.586420 0.976930 -0.537540
O6    O     O_R   0.415010 0.413580 0.976930 -0.537539
C1    C     C_R   0.618755 0.614375 0.383992 0.697807
C2    C     C_R   0.618755 0.385625 0.383992 0.697807
O7    O     O_3   0.440560 0.500000 0.319140 -0.369171
V1    V     V_3+5 0.511030 0.500000 0.068070 1.392045
O8    O     O_R   0.403810 0.414840 0.643540 -0.543660
O9    O     O_R   0.403810 0.585160 0.643540 -0.543660
C3    C     C_R   0.382550 0.385485 0.806280 0.756217
C4    C     C_R   0.382550 0.614514 0.806280 0.756218
V2    V     V_3+5 0.488970 0.500000 0.560620 1.393368
O10   O     O_3   0.559440 0.500000 0.859420 -0.374888
H1    H     H_    0.325840 0.698574 0.103646 0.136434
H2    H     H_    0.325840 0.301426 0.103646 0.136434
C5    C     C_2   0.318969 0.686021 0.797758 -0.349061
C6    C     C_2   0.318969 0.313979 0.797758 -0.349061
C7    C     C_2   0.300045 0.724428 0.961043 -0.140128
C8    C     C_2   0.300045 0.275572 0.961043 -0.140127
H3    H     H_    0.205910 0.780620 0.233979 0.097651
H4    H     H_    0.205910 0.219380 0.233979 0.097651
C9    C     C_2   0.197282 0.820176 0.105801 -0.348444
C10   C     C_2   0.197282 0.179824 0.105801 -0.348444
C11   C     C_2   0.244171 0.801725 0.954462 0.178282
C12   C     C_2   0.244171 0.198274 0.954462 0.178283
H5    H     H_    0.290035 0.709193 0.654439 0.135129
H6    H     H_    0.290035 0.290807 0.654439 0.135129
C13   C     C_R   0.681975 0.743272 0.561535 0.057053
C14   C     C_R   0.681975 0.256728 0.561535 0.057053
C15   C     C_R   0.685023 0.685235 0.412535 -0.108849
C16   C     C_R   0.685023 0.314765 0.412535 -0.108849
C17   C     C_R   0.750853 0.699493 0.285502 -0.177243
C18   C     C_R   0.750853 0.300506 0.285502 -0.177243
H7    H     H_    0.755353 0.657511 0.165946 0.124241
H8    H     H_    0.755353 0.342489 0.165946 0.124241
C19   C     C_R   0.815975 0.764921 0.319381 -0.179328
C20   C     C_R   0.815975 0.235078 0.319381 -0.179328
H9    H     H_    0.868313 0.771226 0.224423 0.125906
H10   H     H_    0.868313 0.228774 0.224423 0.125906
C21   C     C_R   0.817074 0.818555 0.480561 -0.138974
C22   C     C_R   0.817074 0.181445 0.480561 -0.138974
C23   C     C_R   0.745857 0.807997 0.594630 0.107241
C24   C     C_R   0.745857 0.192003 0.594630 0.107241
C25   C     C_3   0.749774 0.801288 0.810810 -0.029433
C26   C     C_3   0.749774 0.198711 0.810810 -0.029433
C27   C     C_3   0.679339 0.730947 0.773715 -0.389555
C28   C     C_3   0.679339 0.269052 0.773715 -0.389555
H11   H     H_    0.819299 0.781204 0.885025 0.137830
H12   H     H_    0.819299 0.218796 0.885025 0.137830
H13   H     H_    0.609520 0.745007 0.813192 0.173511
H14   H     H_    0.609520 0.254993 0.813191 0.173511
H15   H     H_    0.708357 0.669999 0.825353 0.150257
H16   H     H_    0.708357 0.330001 0.825353 0.150257
O11   O     O_R   0.921430 0.915960 0.371040 -0.532815
O12   O     O_R   0.921430 0.084040 0.371040 -0.532815
O13   O     O_R   0.910450 0.087500 0.697310 -0.544834
O14   O     O_R   0.910450 0.912500 0.697310 -0.544833
O15   O     O_R   0.091710 0.087460 0.928430 -0.534640
O16   O     O_R   0.091710 0.912540 0.928430 -0.534640
C29   C     C_R   0.888005 0.114468 0.519596 0.706439
C30   C     C_R   0.888005 0.885532 0.519596 0.706439
O17   O     O_3   0.065970 1.000000 0.586140 -0.372528
V3    V     V_3+5 0.995640 0.000000 0.837400 1.383004
O18   O     O_R   0.103020 0.915700 0.261710 -0.544418
O19   O     O_R   0.103020 0.084300 0.261710 -0.544418
C31   C     C_R   0.127915 0.888057 0.099638 0.754154
C32   C     C_R   0.127915 0.111943 0.099638 0.754153
V4    V     V_3+5 0.017940 0.000000 0.344880 1.375523
O20   O     O_3   0.947330 1.000000 0.046180 -0.374062
C33   C     C_3   0.246149 0.860151 0.783794 -0.662637
H17   H     H_    0.307710 0.848843 0.709908 0.176802
H18   H     H_    0.182338 0.852258 0.675268 0.211667
H19   H     H_    0.252584 0.925067 0.835294 0.184572
C34   C     C_3   0.246149 0.139849 0.783793 -0.662638
H20   H     H_    0.307710 0.151157 0.709908 0.176802
H21   H     H_    0.252584 0.074933 0.835294 0.184572
H22   H     H_    0.182338 0.147741 0.675268 0.211667
C35   C     C_3   0.711957 0.878215 0.900277 -0.740957
H23   H     H_    0.765303 0.927586 0.912303 0.219722
H24   H     H_    0.647218 0.900927 0.809809 0.204647
H25   H     H_    0.696498 0.863893 0.048694 0.221396
C36   C     C_3   0.711957 0.121785 0.900277 -0.740957
H26   H     H_    0.696498 0.136107 0.048693 0.221396
H27   H     H_    0.647218 0.099072 0.809808 0.204647
H28   H     H_    0.765303 0.072414 0.912302 0.219722

loop_
_geom_bond_atom_site_label_1
_geom_bond_atom_site_label_2
_ccdc_geom_bond_type
O15   C32   A    
O1    C2    A    
C33   H18   S    
C33   H17   S    
O2    C1    A    
O4    C2    A    
C35   H23   S    
C25   C27   S    
C6    H6    S    
C34   H20   S    
C28   H14   S    
C5    C7    D    
H4    C10   S    
O3    C1    A    
O13   V3    S    
C36   H26   S    
O12   V4    S    
C36   H28   S    
V2    O10   S    
C23   C25   S    
O8    V2    S    
O15   V3    S    
V3    O20   S    
C13   C15   A    
O1    V2    S    
O7    V1    S    
C16   C18   A    
C26   C28   S    
C7    C11   S    
O14   V3    S    
C8    C12   S    
C1    C15   S    
C13   C27   S    
C35   H24   S    
C22   C24   A    
C21   C30   S    
C34   H21   S    
C22   C29   S    
C24   C26   S    
O16   V3    S    
C36   H27   S    
C18   C20   A    
C19   H9    S    
C25   H11   S    
C27   H15   S    
C28   H16   S    
O16   C31   A    
O18   C31   A    
C14   C16   A    
C17   C19   A    
C12   C34   S    
O9    V2    S    
C20   C22   A    
C2    C16   S    
O11   V4    S    
O2    V2    S    
C21   C23   A    
C14   C28   S    
O5    C4    A    
C6    C8    D    
C10   C32   S    
C33   H19   S    
O13   C29   A    
C9    C31   S    
O4    V1    S    
C5    H5    S    
C35   H25   S    
O11   C30   A    
C34   H22   S    
O12   C29   A    
C3    C6    S    
C17   H7    S    
H2    C8    S    
C14   C24   A    
C4    C5    S    
O9    C4    A    
O6    V1    S    
C19   C21   A    
C9    C11   D    
C10   C12   D    
O14   C30   A    
C18   H8    S    
O7    V2    S    
O5    V1    S    
O3    V1    S    
O17   V4    S    
O6    C3    A    
O8    C3    A    
O19   V4    S    
C27   H13   S    
C20   H10   S    
C15   C17   A    
O18   V4    S    
C25   C35   S    
H1    C7    S    
C26   H12   S    
H3    C9    S    
V4    O20   S    
O19   C32   A    
O17   V3    S    
C13   C23   A    
C26   C36   S    
V1    O10   S    
C11   C33   S    
