data_mof_unit_22734.cif
_audit_creation_date              2012-10-26T20:02:29-0400
_audit_creation_method            fapswitch 2.2
_symmetry_space_group_name_H-M    P1
_symmetry_Int_Tables_number       1
_space_group_crystal_system       triclinic
_cell_length_a                    18.823534
_cell_length_b                    18.354082
_cell_length_c                    12.383316
_cell_angle_alpha                 90.155787
_cell_angle_beta                  129.074183
_cell_angle_gamma                 89.867303
_cell_volume                      3321.35809414

loop_
_atom_site_label
_atom_site_type_symbol
_atom_type_description
_atom_site_fract_x
_atom_site_fract_y
_atom_site_fract_z
_atom_type_partial_charge
C1    C     C_R   0.613001 0.898248 0.652893 0.578763
C2    C     C_R   0.663973 0.730878 0.019975 -0.018080
C3    C     C_3   0.307257 0.394640 0.353929 -0.412616
C4    C     C_R   0.155979 0.783849 0.997121 -0.009028
C5    C     C_R   0.160139 0.226482 0.011941 -0.013703
C6    C     C_R   0.577704 0.267988 0.856326 -0.100425
C7    C     C_R   0.584275 0.755704 0.894441 -0.101154
C8    C     C_R   0.078359 0.760172 0.868196 -0.098879
C9    C     C_R   0.081175 0.251657 0.886090 -0.099154
C10   C     C_R   0.587720 0.229812 0.770089 0.231340
C11   C     C_R   0.586732 0.781920 0.792091 0.238830
C12   C     C_R   0.086135 0.725708 0.776692 0.234347
C13   C     C_R   0.615105 0.100001 0.655802 0.588708
C14   C     C_R   0.085255 0.280263 0.786937 0.236621
C15   C     C_R   0.317784 0.810765 0.156091 -0.122976
C16   C     C_R   0.318317 0.188717 0.154885 -0.125316
C17   C     C_R   0.817390 0.310225 0.157434 -0.119926
C18   C     C_R   0.819281 0.687940 0.153930 -0.127290
C19   C     C_R   0.218926 0.853559 0.206646 0.014395
C20   C     C_R   0.226587 0.159901 0.225521 0.014487
C21   C     C_R   0.715209 0.362307 0.194624 0.010930
C22   C     C_R   0.734973 0.669545 0.240996 0.014889
C23   C     C_R   0.686723 0.153558 0.748769 0.022368
C24   C     C_R   0.113290 0.398477 0.653232 0.579407
C25   C     C_R   0.680305 0.840693 0.739646 0.016750
C26   C     C_R   0.184335 0.655625 0.745168 0.019035
C27   C     C_R   0.180648 0.340983 0.739967 0.017530
C28   C     C_R   0.687383 0.985886 0.289408 -0.002124
C29   C     C_R   0.187516 0.487198 0.289504 -0.001671
C30   C     C_R   0.343195 0.001322 0.630163 0.045054
C31   C     C_R   0.843185 0.503551 0.629527 0.049401
C32   C     C_R   0.308978 0.002804 0.702265 -0.159886
C33   C     C_R   0.808847 0.505459 0.701515 -0.154819
C34   C     C_R   0.382656 0.098893 0.341588 0.581569
C35   C     C_R   0.114409 0.600543 0.654831 0.584948
C36   C     C_R   0.381943 0.902091 0.340288 0.573157
C37   C     C_R   0.883889 0.599936 0.343188 0.576740
C38   C     C_R   0.881546 0.402681 0.339572 0.576835
C39   C     C_R   0.368347 0.002508 0.847002 -0.128269
C40   C     C_R   0.868127 0.503853 0.846415 -0.126975
C41   C     C_R   0.463693 0.000389 0.922591 -0.004336
C42   C     C_R   0.963515 0.500524 0.922342 -0.004320
C43   C     C_R   0.495559 0.999225 0.843128 0.191222
C44   C     C_R   0.995448 0.498919 0.843051 0.192446
C45   C     C_R   0.528170 0.998668 0.073434 -0.027455
C46   C     C_R   0.243527 0.777037 0.033078 0.009547
C47   C     C_R   0.028036 0.498687 0.073293 -0.027073
C48   C     C_R   0.623157 0.992037 0.141814 0.049018
C49   C     C_R   0.123115 0.492508 0.141768 0.049276
C50   C     C_R   0.652129 0.992379 0.061636 -0.171719
C51   C     C_R   0.152044 0.492588 0.061553 -0.171865
C52   C     C_R   0.590509 0.997184 0.917620 -0.097121
C53   C     C_R   0.090385 0.496846 0.917527 -0.096626
C54   C     C_R   0.502444 0.002715 0.159939 0.030801
C55   C     C_R   0.002349 0.502405 0.159867 0.031463
C56   C     C_R   0.656236 0.991365 0.366273 0.056278
C57   C     C_R   0.244431 0.225555 0.036520 0.003520
C58   C     C_R   0.156337 0.492275 0.366340 0.055865
C59   C     C_R   0.641496 0.329304 0.071285 -0.113891
C60   C     C_R   0.660050 0.705448 0.122221 -0.112364
C61   C     C_R   0.145316 0.818697 0.086154 -0.114105
C62   C     C_R   0.153404 0.197440 0.108908 -0.120056
C63   C     C_R   0.305921 0.852615 0.238385 0.032441
C64   C     C_R   0.309053 0.151561 0.244146 0.036412
C65   C     C_R   0.804218 0.355168 0.235039 0.033654
C66   C     C_R   0.812430 0.654578 0.248634 0.026000
C67   C     C_R   0.772889 0.143068 0.784161 -0.139246
C68   C     C_R   0.743290 0.278516 0.031386 0.009726
C69   C     C_R   0.761410 0.840255 0.756791 -0.143025
C70   C     C_R   0.269048 0.649048 0.774064 -0.139117
C71   C     C_R   0.262330 0.341052 0.758773 -0.145297
C72   C     C_R   0.344557 0.687141 0.883949 -0.137584
C73   C     C_R   0.336825 0.300463 0.864506 -0.139686
C74   C     C_R   0.848818 0.179531 0.896843 -0.137309
C75   C     C_R   0.836576 0.800642 0.863517 -0.137517
C76   C     C_R   0.337812 0.729291 0.970605 -0.117661
C77   C     C_R   0.332659 0.262425 0.957327 -0.115564
C78   C     C_R   0.840761 0.223927 0.979858 -0.116392
C79   C     C_R   0.746435 0.727213 0.039562 0.004571
C80   C     C_R   0.833427 0.763615 0.958174 -0.117320
C81   C     C_R   0.754368 0.236500 0.946005 0.003237
C82   C     C_R   0.751675 0.761009 0.941497 0.000746
C83   C     C_R   0.252837 0.737932 0.943199 0.003401
C84   C     C_R   0.250673 0.260164 0.940016 0.000439
C85   C     C_R   0.675380 0.206133 0.820445 0.039750
C86   C     C_R   0.671893 0.794747 0.822643 0.035100
C87   C     C_R   0.173502 0.706090 0.820188 0.036390
C88   C     C_R   0.171220 0.294112 0.820713 0.033984
C89   C     C_3   0.198489 0.894808 0.289719 -0.276638
C90   C     C_R   0.654229 0.290531 0.987589 -0.007522
C91   C     C_3   0.226301 0.851055 0.415798 -0.393556
C92   C     C_3   0.209149 0.125850 0.317743 -0.269434
C93   C     C_3   0.252783 0.169589 0.451060 -0.393736
C94   C     C_3   0.693947 0.407640 0.272986 -0.277640
C95   C     C_3   0.712621 0.364612 0.393974 -0.398264
C96   C     C_3   0.729838 0.643940 0.352752 -0.259360
C97   C     C_3   0.654371 0.678124 0.350002 -0.454834
C98   C     C_3   0.788414 0.970693 0.368494 -0.301832
C99   C     C_3   0.804405 0.891388 0.350367 -0.412919
C100  C     C_3   0.288945 0.473773 0.368960 -0.302092
Cl1   Cl    Cl    0.491173 0.227041 0.592509 -0.673307
Cl2   Cl    Cl    0.481849 0.783068 0.621361 -0.640630
Cl3   Cl    Cl    0.985621 0.722163 0.601904 -0.661693
Cl4   Cl    Cl    0.981067 0.282999 0.615332 -0.631637
Cu1   Cu    Cu3+1 0.526340 0.000000 0.421010 0.938579
Cu2   Cu    Cu3+1 0.026340 0.500000 0.421010 0.937836
Cu3   Cu    Cu3+1 0.473640 1.000000 0.578990 0.977197
Cu4   Cu    Cu3+1 0.973640 0.500000 0.578990 0.984121
H1    H     H_    0.723766 0.989754 0.109102 0.114453
H2    H     H_    0.735662 0.508192 0.644407 0.107571
H3    H     H_    0.621067 0.998948 0.868822 0.168789
H4    H     H_    0.120936 0.498668 0.868728 0.168648
H5    H     H_    0.509626 0.283523 0.817434 0.128516
H6    H     H_    0.518861 0.750494 0.872375 0.133864
H7    H     H_    0.010784 0.772106 0.835078 0.131115
H8    H     H_    0.015009 0.244860 0.861086 0.138203
H9    H     H_    0.572836 0.336393 0.037195 0.096063
H10   H     H_    0.596634 0.712055 0.105430 0.107462
H11   H     H_    0.077929 0.821374 0.058224 0.095923
H12   H     H_    0.223678 0.490178 0.108959 0.114461
H13   H     H_    0.088877 0.201430 0.090063 0.096121
H14   H     H_    0.385703 0.808366 0.187820 0.124564
H15   H     H_    0.383329 0.184945 0.176904 0.129651
H16   H     H_    0.886595 0.303813 0.195504 0.125025
H17   H     H_    0.881009 0.679057 0.167696 0.128317
H18   H     H_    0.782414 0.103730 0.728834 0.119672
H19   H     H_    0.768635 0.873901 0.692463 0.121102
H20   H     H_    0.278108 0.611455 0.715961 0.122749
H21   H     H_    0.270257 0.375384 0.695946 0.119017
H22   H     H_    0.400456 0.754243 0.057471 0.103094
H23   H     H_    0.431901 0.007935 0.116215 0.121011
H24   H     H_    0.394939 0.235689 0.041030 0.108540
H25   H     H_    0.903457 0.247773 0.068759 0.105943
H26   H     H_    0.896659 0.738783 0.043853 0.107036
H27   H     H_    0.409978 0.680993 0.906548 0.111805
H28   H     H_    0.399904 0.301559 0.879158 0.108828
H29   H     H_    0.915270 0.170498 0.924191 0.109141
H30   H     H_    0.899509 0.802082 0.877827 0.109342
H31   H     H_    0.703794 0.986895 0.478514 0.112618
H32   H     H_    0.203992 0.488345 0.478658 0.112211
H33   H     H_    0.301135 0.841646 0.489106 0.232885
H34   H     H_    0.931734 0.507012 0.116085 0.121148
H35   H     H_    0.206532 0.881256 0.471057 0.125640
H36   H     H_    0.190697 0.797592 0.381954 0.162101
H37   H     H_    0.231516 0.948490 0.318801 0.134417
H38   H     H_    0.124071 0.906778 0.225233 0.124551
H39   H     H_    0.233304 0.145385 0.511180 0.130416
H40   H     H_    0.228279 0.226888 0.425679 0.153114
H41   H     H_    0.328243 0.169021 0.517313 0.233011
H42   H     H_    0.134506 0.122744 0.263240 0.123723
H43   H     H_    0.232009 0.069007 0.338817 0.132326
H44   H     H_    0.786129 0.350272 0.471214 0.223448
H45   H     H_    0.296216 0.001002 0.519346 0.106051
H46   H     H_    0.692639 0.397631 0.446256 0.124152
H47   H     H_    0.671557 0.313690 0.354962 0.162089
H48   H     H_    0.732242 0.459432 0.307429 0.139110
H49   H     H_    0.620620 0.423939 0.203495 0.127107
H50   H     H_    0.664650 0.662132 0.445457 0.153375
H51   H     H_    0.585936 0.658073 0.259161 0.141220
H52   H     H_    0.656948 0.738536 0.347588 0.162574
H53   H     H_    0.719788 0.584251 0.342793 0.124368
H54   H     H_    0.795177 0.657575 0.456392 0.219029
H55   H     H_    0.778962 0.854076 0.389799 0.171608
H56   H     H_    0.796493 0.505127 0.518211 0.104008
H57   H     H_    0.768974 0.878351 0.239502 0.160950
H58   H     H_    0.878813 0.881663 0.410491 0.180130
H59   H     H_    0.817681 0.008588 0.336037 0.152105
H60   H     H_    0.827725 0.980597 0.481685 0.137148
H61   H     H_    0.283375 0.357245 0.395564 0.167018
H62   H     H_    0.271811 0.380431 0.243512 0.162160
H63   H     H_    0.381889 0.386354 0.413825 0.181407
H64   H     H_    0.317040 0.511905 0.334931 0.152292
H65   H     H_    0.328041 0.484810 0.481761 0.136406
H66   H     H_    0.337662 0.003051 0.896737 0.104761
H67   H     H_    0.837393 0.505037 0.896074 0.104750
H68   H     H_    0.235747 0.003922 0.645266 0.107316
N1    N     N_R   0.566260 0.000000 0.302220 -0.243777
N2    N     N_R   0.066260 0.500000 0.302220 -0.243871
N3    N     N_R   0.434410 0.000000 0.697680 -0.219802
N4    N     N_R   0.934410 0.500000 0.697680 -0.217679
O1    O     O_R   0.608610 0.924520 0.551740 -0.514579
O2    O     O_R   0.435880 0.924530 0.314850 -0.512481
O3    O     O_R   0.935880 0.575470 0.314850 -0.511875
O4    O     O_R   0.935880 0.424530 0.314850 -0.510969
O5    O     O_R   0.391380 0.075460 0.448260 -0.485640
O6    O     O_R   0.391380 0.924540 0.448260 -0.473788
O7    O     O_R   0.891380 0.575460 0.448260 -0.490860
O8    O     O_R   0.891380 0.424540 0.448260 -0.469906
O9    O     O_R   0.608610 0.075480 0.551740 -0.497169
O10   O     O_R   0.108610 0.424520 0.551740 -0.512512
O11   O     O_R   0.108610 0.575480 0.551740 -0.502540
O12   O     O_R   0.564110 0.924510 0.685150 -0.484052
O13   O     O_R   0.564110 0.075490 0.685150 -0.490972
O14   O     O_R   0.064110 0.424510 0.685150 -0.484802
O15   O     O_R   0.064110 0.575490 0.685150 -0.486215
O16   O     O_R   0.435880 0.075470 0.314850 -0.510374

loop_
_geom_bond_atom_site_label_1
_geom_bond_atom_site_label_2
_ccdc_geom_bond_type
Cu1   O16   S    
C83   C87   A    
C10   C85   A    
C15   H14   S    
C61   H11   S    
Cu4   O7    S    
C93   H41   S    
C2    C7    A    
C24   C27   S    
C72   C76   A    
C44   N4    A    
C28   C56   A    
C80   H26   S    
C39   C41   A    
C29   C49   A    
C7    C11   A    
C54   H23   S    
Cu1   Cu3   S    
Cu3   O6    S    
C43   N3    A    
C68   C81   A    
C97   H51   S    
C7    H6    S    
C16   H15   S    
C21   C59   A    
C18   H17   S    
C22   C60   A    
C2    C60   A    
C43   C52   A    
C100  H64   S    
C21   C94   S    
C11   C86   A    
C28   C98   S    
C37   O3    A    
C23   C85   A    
C13   O9    A    
C96   H53   S    
Cu4   N4    S    
C93   H40   S    
C32   C39   A    
C23   C67   A    
C4    C8    A    
C40   H67   S    
C22   C66   A    
C2    C79   A    
C8    H7    S    
C76   H22   S    
C3    C100  S    
C30   H45   S    
C58   H32   S    
C19   C63   A    
C18   C79   A    
C49   C51   A    
Cu3   O12   S    
C50   C52   A    
C30   N3    A    
C38   C65   S    
C60   H10   S    
Cu1   O2    S    
C89   C91   S    
C36   C63   S    
C75   C80   A    
C36   O6    A    
C98   H59   S    
C12   C87   A    
C35   O15   A    
C42   C47   A    
C99   H58   S    
Cu3   N3    S    
C40   C42   A    
C59   H9    S    
C55   H34   S    
C13   O13   A    
C96   C97   S    
C1    C25   S    
C41   C43   A    
C27   C88   A    
C42   C44   A    
Cu2   O11   S    
C39   H66   S    
C44   C53   A    
C76   C83   A    
C13   C23   S    
C91   H35   S    
C56   N1    A    
C89   H38   S    
C74   H29   S    
C33   C40   A    
C31   C33   A    
C30   C32   A    
C97   H52   S    
Cu1   O9    S    
Cu2   N2    S    
C12   Cl3   S    
C47   C49   A    
C67   H18   S    
C71   C73   A    
C56   H31   S    
C1    O1    A    
C26   C87   A    
C72   H27   S    
C4    C46   A    
C77   C84   A    
C6    C90   A    
C4    C61   A    
C50   H1    S    
C51   C53   A    
C77   H24   S    
C20   C64   A    
C38   O4    A    
C89   H37   S    
C9    C14   A    
C6    H5    S    
C5    C9    A    
C19   C89   S    
C71   H21   S    
C32   H68   S    
C17   H16   S    
C14   Cl4   S    
C73   H28   S    
C24   O14   A    
C8    C12   A    
C70   H20   S    
C37   C66   S    
C92   H43   S    
C34   C64   S    
C51   H12   S    
C57   C84   A    
C58   N2    A    
C67   C74   A    
C34   O5    A    
Cu2   O4    S    
C99   H57   S    
C99   H55   S    
C53   H4    S    
Cu4   O15   S    
C45   C54   A    
C94   H49   S    
C92   H42   S    
C26   C70   A    
C55   N2    A    
C25   C86   A    
C20   C92   S    
C25   C69   A    
Cu2   O10   S    
C69   C75   A    
Cu4   O14   S    
Cu3   O13   S    
C27   C71   A    
C47   C55   A    
C91   H36   S    
C45   C48   A    
C34   O16   A    
C68   C90   A    
C15   C63   A    
C31   H56   S    
C28   C48   A    
C17   C68   A    
C35   O11   A    
C29   C100  S    
C21   C65   A    
C9    H8    S    
C22   C96   S    
Cu4   O8    S    
C10   Cl1   S    
C3    H61   S    
C84   C88   A    
Cu1   N1    S    
C75   H30   S    
C6    C10   A    
C79   C82   A    
C24   O10   A    
C3    H62   S    
C95   H44   S    
C18   C66   A    
Cu3   O5    S    
C17   C65   A    
C52   H3    S    
C54   N1    A    
C5    C57   A    
C31   N4    A    
C95   H46   S    
C97   H50   S    
C14   C88   A    
C41   C45   A    
C82   C86   A    
C78   C81   A    
C3    H63   S    
C37   O7    A    
Cu2   Cu4   S    
C19   C61   A    
C38   O8    A    
C48   C50   A    
C92   C93   S    
C80   C82   A    
C96   H54   S    
C5    C62   A    
C93   H39   S    
C11   Cl2   S    
C95   H47   S    
C16   C57   A    
C20   C62   A    
C94   C95   S    
C78   H25   S    
C98   H60   S    
Cu2   O3    S    
C46   C83   A    
C1    O12   A    
C26   C35   S    
C36   O2    A    
C29   C58   A    
C69   H19   S    
C94   H48   S    
C98   C99   S    
C74   C78   A    
C100  H65   S    
C73   C77   A    
C70   C72   A    
C33   H2    S    
C16   C64   A    
C15   C46   A    
Cu1   O1    S    
C59   C90   A    
C62   H13   S    
C81   C85   A    
C91   H33   S    
