data_mof_unit_56927.cif
_audit_creation_date              2012-12-10T17:57:24-0500
_audit_creation_method            fapswitch 2.2
_symmetry_space_group_name_H-M    P1
_symmetry_Int_Tables_number       1
_space_group_crystal_system       triclinic
_cell_length_a                    9.496095
_cell_length_b                    10.879067
_cell_length_c                    13.364612
_cell_angle_alpha                 89.590358
_cell_angle_beta                  72.587586
_cell_angle_gamma                 89.091268
_cell_volume                      1317.24124443

loop_
_atom_site_label
_atom_site_type_symbol
_atom_type_description
_atom_site_fract_x
_atom_site_fract_y
_atom_site_fract_z
_atom_type_partial_charge
C1    C     C_R   0.499140 0.737986 0.498265 0.840715
C2    C     C_R   0.434674 0.471766 0.980618 0.038577
C3    C     C_R   0.470853 0.447154 0.872450 -0.031138
C4    C     C_R   0.546732 0.458852 0.030601 -0.051212
C5    C     C_R   0.677681 0.389338 0.981217 -0.050318
C6    C     C_R   0.697462 0.341358 0.879969 0.399470
C7    C     C_R   0.597613 0.375182 0.825361 -0.243390
C8    C     C_R   0.534747 0.517057 0.126891 0.220372
C9    C     C_R   0.749123 0.403791 0.140918 -0.221128
C10   C     C_R   0.373842 0.487850 0.816221 -0.163709
C11   C     C_R   0.614849 0.931461 0.517733 -0.204364
C12   C     C_R   0.421399 0.494384 0.700620 0.828077
C13   C     C_R   0.620404 0.058307 0.519341 0.174409
C14   C     C_R   0.504100 0.128170 0.500528 -0.117178
C15   C     C_R   0.386259 0.068494 0.479771 -0.209504
C16   C     C_R   0.381038 0.941567 0.477671 0.191125
C17   C     C_R   0.496749 0.871769 0.497455 -0.127194
C18   C     C_R   0.894040 0.567047 0.572113 0.005432
C19   C     C_R   0.042943 0.566778 0.572237 0.018690
C20   C     C_R   0.105968 0.432992 0.427832 0.048715
C21   C     C_R   0.957059 0.433238 0.427722 0.018692
C22   C     C_R   0.501157 0.261977 0.500994 0.818875
C23   C     C_R   0.578848 0.498522 0.299641 0.862232
C24   C     C_R   0.782547 0.367700 0.036666 0.491692
C25   C     C_R   0.625026 0.477340 0.186541 -0.205485
C26   C     C_R   0.232540 0.531644 0.871483 -0.232538
C27   C     C_R   0.185500 0.534061 0.980657 0.370017
C28   C     C_R   0.284557 0.496591 0.036499 0.361361
Cu1   Cu    Cu3+1 0.359340 0.499980 0.500000 0.999141
Cu2   Cu    Cu3+1 0.640660 0.500020 0.500000 0.971846
H1    H     H_    0.822714 0.376407 0.185638 0.178041
H2    H     H_    0.297234 0.120774 0.463868 0.191961
H3    H     H_    0.812744 0.621073 0.629668 0.134772
H4    H     H_    0.074065 0.620510 0.629853 0.131592
H5    H     H_    0.187254 0.378933 0.370293 0.150969
H6    H     H_    0.925965 0.379532 0.370075 0.130958
H7    H     H_    0.157388 0.564371 0.829735 0.186114
H8    H     H_    0.614862 0.336864 0.748181 0.176765
H9    H     H_    0.704022 0.879244 0.533493 0.194828
N1    N     N_R   0.147940 0.499970 0.499970 -0.167915
N2    N     N_R   0.852060 0.500060 0.499990 -0.167937
O1    O     O_R   0.381250 0.680340 0.500010 -0.551979
O2    O     O_R   0.618820 0.680370 0.500010 -0.585414
O3    O     O_R   0.323240 0.499950 0.650980 -0.588394
O4    O     O_R   0.560810 0.499980 0.650980 -0.589164
O5    O     O_R   0.381180 0.319630 0.499990 -0.591519
O6    O     O_R   0.618750 0.319660 0.499990 -0.565286
O7    O     O_R   0.439190 0.500020 0.349020 -0.548723
O8    O     O_R   0.676760 0.500050 0.349020 -0.590389
I1    I     I_    0.809635 0.128048 0.553341 -0.374531
I2    I     I_    0.194107 0.871343 0.440556 -0.275469
O9    O     O_3   0.812303 0.260021 0.836101 -0.696031
H10   H     H_    0.811702 0.237794 0.764528 0.348384
O10   O     O_3   0.916749 0.310003 0.993061 -0.660174
H11   H     H_    0.963188 0.351038 0.924968 0.362831
I3    I     I_    0.423371 0.691630 0.167266 -0.246850
O11   O     O_3   0.235632 0.471251 0.142790 -0.730471
H12   H     H_    0.128901 0.453024 0.163519 0.324081
O12   O     O_3   0.044282 0.577108 0.029472 -0.726616
H13   H     H_    0.039177 0.607139 0.100268 0.343285

loop_
_geom_bond_atom_site_label_1
_geom_bond_atom_site_label_2
_ccdc_geom_bond_type
C2    C4    A    
Cu2   N2    S    
C6    C7    A    
C12   O4    A    
C13   C14   A    
Cu1   O1    S    
Cu2   O6    S    
Cu2   O4    S    
C1    C17   S    
C16   I2    S    
Cu1   O5    S    
C4    C8    A    
C8    I3    S    
C22   O6    A    
O11   H12   S    
C9    C25   A    
O12   H13   S    
C26   H7    S    
C3    C10   A    
C27   O12   S    
C28   O11   S    
O9    H10   S    
C11   H9    S    
C8    C25   A    
C11   C13   A    
C14   C22   S    
C26   C27   A    
Cu1   Cu2   S    
C5    C24   A    
C10   C12   S    
C21   N2    A    
Cu1   N1    S    
C22   O5    A    
Cu2   O8    S    
C1    O2    A    
C2    C3    A    
C3    C7    A    
C23   C25   S    
Cu1   O3    S    
C5    C6    A    
C20   N1    A    
C18   H3    S    
Cu2   O2    S    
C23   O8    A    
C19   N1    A    
C9    H1    S    
Cu1   O7    S    
C24   O10   S    
C15   C16   A    
C1    O1    A    
C15   H2    S    
C20   C21   A    
C12   O3    A    
C18   C19   A    
C18   N2    A    
C27   C28   A    
C21   H6    S    
O10   H11   S    
C4    C5    A    
C2    C28   A    
C23   O7    A    
C6    O9    S    
C14   C15   A    
C20   H5    S    
C9    C24   A    
C7    H8    S    
C10   C26   A    
C11   C17   A    
C13   I1    S    
C16   C17   A    
C19   H4    S    
