data_mof_unit_55893.cif
_audit_creation_date              2012-12-10T19:45:00-0500
_audit_creation_method            fapswitch 2.2
_symmetry_space_group_name_H-M    P1
_symmetry_Int_Tables_number       1
_space_group_crystal_system       triclinic
_cell_length_a                    15.002009
_cell_length_b                    10.881832
_cell_length_c                    13.787986
_cell_angle_alpha                 89.966865
_cell_angle_beta                  91.349179
_cell_angle_gamma                 88.389102
_cell_volume                      2249.36455541

loop_
_atom_site_label
_atom_site_type_symbol
_atom_type_description
_atom_site_fract_x
_atom_site_fract_y
_atom_site_fract_z
_atom_type_partial_charge
C1    C     C_R   0.497097 0.262379 0.499372 0.818953
C2    C     C_R   0.541099 0.882904 0.684986 0.105062
C3    C     C_R   0.514064 0.095687 0.235475 -0.168037
C4    C     C_R   0.485940 0.904312 0.764526 -0.168038
C5    C     C_R   0.490320 0.144239 0.144105 0.023813
C6    C     C_R   0.509685 0.855759 0.855894 0.023812
C7    C     C_R   0.411829 0.215924 0.132026 -0.179943
C8    C     C_R   0.588176 0.784074 0.867971 -0.179942
C9    C     C_R   0.488822 0.933601 0.414496 -0.195407
C10   C     C_R   0.511177 0.066398 0.585504 -0.195407
C11   C     C_R   0.505006 0.871577 0.502239 -0.077880
C12   C     C_R   0.502903 0.737621 0.500628 0.818952
C13   C     C_R   0.494994 0.128423 0.497760 -0.077880
C14   C     C_R   0.517702 0.939118 0.589226 0.025398
C15   C     C_R   0.482297 0.060881 0.410774 0.025397
C16   C     C_R   0.328957 0.502652 0.499021 0.852968
C17   C     C_R   0.671043 0.497348 0.500979 0.852969
C18   C     C_R   0.566063 0.435594 0.796397 0.299891
C19   C     C_R   0.433937 0.564406 0.203603 0.299891
C20   C     C_R   0.432995 0.559780 0.791352 0.019239
C21   C     C_R   0.567005 0.440220 0.208648 0.019239
C22   C     C_R   0.429164 0.557149 0.893895 -0.059320
C23   C     C_R   0.052240 0.302324 0.420023 -0.173106
C24   C     C_R   0.570836 0.442852 0.106105 -0.059319
C25   C     C_R   0.499934 0.500031 0.948253 0.022677
C26   C     C_R   0.500066 0.499969 0.051747 0.022677
C27   C     C_R   0.570206 0.441752 0.899291 -0.071276
C28   C     C_R   0.429794 0.558249 0.100709 -0.071275
C29   C     C_R   0.356854 0.609775 0.943838 0.145514
C30   C     C_R   0.643146 0.390225 0.056162 0.145512
C31   C     C_R   0.357667 0.609904 0.045334 -0.157891
C32   C     C_R   0.642333 0.390097 0.954666 -0.157894
C33   C     C_R   0.811594 0.592751 0.542555 -0.246362
C34   C     C_R   0.947759 0.697677 0.579975 -0.173106
C35   C     C_R   0.188405 0.407249 0.457443 -0.246362
C36   C     C_R   0.767539 0.492725 0.503162 -0.082549
C37   C     C_R   0.232461 0.507275 0.496838 -0.082549
C38   C     C_R   0.815087 0.391386 0.464719 0.103659
C39   C     C_R   0.184913 0.608613 0.535281 0.103659
C40   C     C_R   0.908882 0.394298 0.462274 0.069472
C41   C     C_R   0.091118 0.605702 0.537725 0.069471
C42   C     C_R   0.953183 0.497609 0.500905 0.042632
C43   C     C_R   0.046817 0.502391 0.499094 0.042632
C44   C     C_R   0.904021 0.596198 0.541652 0.119724
C45   C     C_R   0.356460 0.237564 0.210960 0.018259
C46   C     C_R   0.095979 0.403803 0.458346 0.119723
C47   C     C_R   0.959738 0.297405 0.422003 -0.143631
C48   C     C_R   0.040262 0.702595 0.577995 -0.143631
C49   C     C_1   0.276488 0.312805 0.199050 0.240485
C50   C     C_1   0.723516 0.687194 0.800944 0.240486
C51   C     C_1   0.546384 0.119794 0.062640 0.264920
C52   C     C_1   0.453623 0.880202 0.937361 0.264918
C53   C     C_R   0.643544 0.762435 0.789036 0.018260
C54   C     C_R   0.379139 0.186255 0.301696 -0.115853
C55   C     C_R   0.620862 0.813745 0.698301 -0.115853
C56   C     C_R   0.458903 0.117095 0.315014 0.105062
Cu1   Cu    Cu3+1 0.500010 0.499980 0.597420 0.992097
Cu2   Cu    Cu3+1 0.499990 0.500020 0.402580 0.992097
H1    H     H_    0.773433 0.669243 0.572205 0.130764
H2    H     H_    0.070862 0.782690 0.608917 0.190991
H3    H     H_    0.089738 0.226317 0.388491 0.159027
H4    H     H_    0.910262 0.773684 0.611506 0.159027
H5    H     H_    0.393997 0.254823 0.061529 0.147866
H6    H     H_    0.606009 0.745174 0.938467 0.147867
H7    H     H_    0.335579 0.200705 0.362334 0.103170
H8    H     H_    0.664422 0.799296 0.637662 0.103169
H9    H     H_    0.575136 0.040845 0.244784 0.157010
H10   H     H_    0.424867 0.959153 0.755218 0.157010
H11   H     H_    0.226567 0.330758 0.427792 0.130765
H12   H     H_    0.478600 0.882725 0.347855 0.185352
H13   H     H_    0.521399 0.117275 0.652145 0.185351
H14   H     H_    0.381969 0.607904 0.748617 0.189225
H15   H     H_    0.618031 0.392097 0.251383 0.189224
H16   H     H_    0.299795 0.649846 0.079454 0.203553
H17   H     H_    0.700205 0.350154 0.920546 0.203553
H18   H     H_    0.929138 0.217310 0.391081 0.190991
I1    I     I_    0.656813 0.307072 0.729141 -0.308353
I2    I     I_    0.343187 0.692928 0.270859 -0.308353
I3    I     I_    0.242016 0.689663 0.872716 -0.311643
I4    I     I_    0.757984 0.310338 0.127284 -0.311645
I5    I     I_    0.743636 0.232924 0.417962 -0.359874
I6    I     I_    0.256364 0.767075 0.582040 -0.359873
N1    N     N_R   0.499960 0.499900 0.743810 -0.212051
N2    N     N_R   0.500040 0.500100 0.256190 -0.212052
N3    N     N_1   0.212289 0.373510 0.189601 -0.233261
N4    N     N_1   0.787714 0.626490 0.810390 -0.233261
N5    N     N_1   0.591447 0.099928 0.997169 -0.251621
N6    N     N_1   0.408561 0.900067 0.002834 -0.251623
O1    O     O_R   0.500000 0.319630 0.582270 -0.567913
O2    O     O_R   0.500000 0.680370 0.417730 -0.567913
O3    O     O_R   0.499990 0.319660 0.417730 -0.576683
O4    O     O_R   0.500010 0.680340 0.582270 -0.576682
O5    O     O_R   0.370260 0.499960 0.582280 -0.577138
O6    O     O_R   0.629740 0.500040 0.417720 -0.577138
O7    O     O_R   0.370250 0.499990 0.417740 -0.561921
O8    O     O_R   0.629750 0.500010 0.582260 -0.561921

loop_
_geom_bond_atom_site_label_1
_geom_bond_atom_site_label_2
_ccdc_geom_bond_type
C40   C47   A    
C38   C40   A    
C22   C29   A    
C32   H17   S    
C39   C41   A    
C54   H7    S    
C16   O5    A    
Cu1   O1    S    
C7    C45   A    
C12   O2    A    
Cu1   O4    S    
C24   C26   A    
C47   H18   S    
C2    C55   A    
C11   C14   A    
C21   H15   S    
C34   H4    S    
C33   C36   A    
C20   H14   S    
Cu1   O8    S    
Cu1   N1    S    
C17   C36   S    
Cu2   O3    S    
C16   C37   S    
C30   I4    S    
C10   H13   S    
C40   C42   A    
C33   H1    S    
C23   C46   A    
Cu1   O5    S    
C41   C43   A    
C42   C44   A    
C48   H2    S    
C53   C55   A    
C54   C56   A    
C50   C53   S    
C23   C47   A    
C49   N3    T    
C52   N6    T    
C34   C44   A    
C9    H12   S    
C4    C6    A    
C10   C14   A    
C51   N5    T    
C5    C7    A    
C31   H16   S    
C6    C8    A    
C25   C26   A    
C22   C25   A    
C19   I2    S    
C2    C4    A    
Cu2   O7    S    
Cu2   N2    S    
Cu2   O2    S    
C3    C56   A    
C29   I3    S    
C21   N2    A    
C45   C49   S    
C29   C31   A    
C18   N1    A    
C17   O8    A    
C19   C28   A    
C9    C11   A    
C7    H5    S    
C8    H6    S    
C20   C22   A    
C45   C54   A    
C13   C15   A    
C38   I5    S    
C21   C24   A    
C1    C13   S    
C42   C43   A    
C19   N2    A    
C55   H8    S    
C4    H10   S    
C16   O7    A    
C1    O1    A    
C35   C37   A    
C27   C32   A    
C33   C44   A    
C12   O4    A    
C28   C31   A    
C3    H9    S    
C18   C27   A    
C39   I6    S    
C3    C5    A    
C10   C13   A    
C8    C53   A    
C11   C12   S    
C25   C27   A    
C26   C28   A    
C15   C56   S    
C36   C38   A    
Cu2   O6    S    
C37   C39   A    
C30   C32   A    
Cu1   Cu2   S    
C18   I1    S    
C41   C48   A    
C9    C15   A    
C2    C14   S    
C43   C46   A    
C24   C30   A    
C50   N4    T    
C23   H3    S    
C34   C48   A    
C35   H11   S    
C1    O3    A    
C20   N1    A    
C5    C51   S    
C17   O6    A    
C6    C52   S    
C35   C46   A    
