data_mof_unit_67166.cif
_audit_creation_date              2012-12-11T17:48:45-0500
_audit_creation_method            fapswitch 2.2
_symmetry_space_group_name_H-M    P1
_symmetry_Int_Tables_number       1
_space_group_crystal_system       triclinic
_cell_length_a                    8.148042
_cell_length_b                    12.66819
_cell_length_c                    14.931073
_cell_angle_alpha                 96.582118
_cell_angle_beta                  97.416207
_cell_angle_gamma                 98.862652
_cell_volume                      1495.76128625

loop_
_atom_site_label
_atom_site_type_symbol
_atom_type_description
_atom_site_fract_x
_atom_site_fract_y
_atom_site_fract_z
_atom_type_partial_charge
Ba1   Ba    Ba6+2 0.843750 0.550210 0.455600 1.637668
Ba2   Ba    Ba6+2 0.346090 0.449880 0.544410 1.652729
C1    C     C_3   0.508433 0.898580 0.164678 -0.267305
C2    C     C_R   0.884599 0.444418 0.926411 -0.028743
C3    C     C_R   0.038947 0.454763 0.110988 -0.050089
C4    C     C_3   0.074249 0.771914 0.203417 0.350852
C5    C     C_R   0.877717 0.397216 0.080169 -0.061592
C6    C     C_R   0.796257 0.397630 0.992548 0.100294
C7    C     C_R   0.110421 0.465302 0.204067 0.036819
C8    C     C_R   0.273124 0.521538 0.231469 -0.292965
C9    C     C_R   0.077847 0.535220 0.797478 0.048513
C10   C     C_R   0.147765 0.547156 0.891293 -0.007704
C11   C     C_R   0.053877 0.498351 0.954813 0.002412
C12   C     C_3   0.587075 0.832357 0.232656 0.272412
C13   C     C_R   0.309768 0.605761 0.923683 -0.029466
C14   C     C_R   0.383497 0.610454 0.013880 -0.105228
C15   C     C_R   0.295935 0.560624 0.077030 -0.044796
C16   C     C_3   0.037600 0.799097 0.106920 -0.339843
C17   C     C_R   0.129309 0.505039 0.047681 0.011892
C18   C     C_R   0.368381 0.566072 0.169290 -0.009677
C19   C     C_R   0.913992 0.479162 0.770580 -0.320309
C20   C     C_R   0.768390 0.182401 0.544304 -0.260826
C21   C     C_R   0.422197 0.808047 0.460484 -0.281658
C22   C     C_R   0.389767 0.986883 0.430530 -0.107715
C23   C     C_3   0.414758 0.280668 0.266334 0.312754
C24   C     C_R   0.324320 0.878251 0.423893 -0.016785
C25   C     C_R   0.580366 0.847313 0.512022 0.074029
C26   C     C_R   0.645450 0.959632 0.524126 -0.050085
C27   C     C_R   0.549333 0.029499 0.480897 -0.062858
C28   C     C_3   0.262122 0.779641 0.648670 0.281568
C29   C     C_R   0.613776 0.140701 0.490529 0.042725
C30   C     C_R   0.867542 0.114487 0.583381 -0.041672
C31   C     C_R   0.804770 0.004186 0.575684 -0.100241
C32   C     C_3   0.270219 0.900755 0.665410 -0.346565
C33   C     C_3   0.929184 0.221949 0.352477 0.296747
C34   C     C_3   0.378763 0.248081 0.163521 -0.398818
C35   C     C_3   0.875215 0.100510 0.332082 -0.399231
C36   C     C_3   0.769630 0.698700 0.732184 0.283886
C37   C     C_3   0.780036 0.726813 0.835699 -0.110137
C38   C     C_2   0.633521 0.946177 0.108413 0.547198
C39   C     C_3   0.093826 0.144277 0.794430 0.511868
C40   C     C_3   0.161933 0.082431 0.868962 -0.295790
C41   C     C_3   0.621591 0.170210 0.761688 0.380171
C42   C     C_3   0.649329 0.081162 0.819483 -0.366333
C43   C     C_R   0.814660 0.437348 0.832979 -0.014081
H1    H     H_    0.687559 0.885591 0.282118 0.064238
H2    H     H_    0.892310 0.682649 0.715350 -0.000091
H3    H     H_    0.673387 0.625058 0.710057 0.048966
H4    H     H_    0.458809 0.964733 0.202179 0.038434
H5    H     H_    0.799538 0.655432 0.869649 0.044961
H6    H     H_    0.659225 0.749099 0.851562 0.140828
H7    H     H_    0.489146 0.800223 0.272523 -0.040782
H8    H     H_    0.401927 0.845441 0.119035 0.103556
H9    H     H_    0.297384 0.298189 0.290510 0.012827
H10   H     H_    0.512321 0.354515 0.281201 0.060992
H11   H     H_    0.278016 0.176049 0.146088 0.128340
H12   H     H_    0.370709 0.936312 0.722611 0.117309
H13   H     H_    0.337372 0.315145 0.129776 0.059444
H14   H     H_    0.494146 0.228865 0.137751 0.116115
H15   H     H_    0.070984 0.736336 0.057609 0.074742
H16   H     H_    0.963190 0.103909 0.767775 -0.093587
H17   H     H_    0.288985 0.123913 0.902206 0.144779
H18   H     H_    0.077251 0.077288 0.921537 0.064695
H19   H     H_    0.170647 0.999405 0.839574 0.089825
H20   H     H_    0.746159 0.209304 0.748280 -0.122605
H21   H     H_    0.543572 0.133960 0.695529 0.059089
H22   H     H_    0.747172 0.113433 0.879336 0.106930
H23   H     H_    0.297075 0.937441 0.604026 0.086183
H24   H     H_    0.689970 0.013848 0.778374 0.081662
H25   H     H_    0.992006 0.694789 0.207837 0.097233
H26   H     H_    0.531811 0.049636 0.844848 0.147466
H27   H     H_    0.807277 0.353286 0.124499 0.105908
H28   H     H_    0.509941 0.654499 0.033253 0.117588
H29   H     H_    0.383127 0.648556 0.879855 0.096442
H30   H     H_    0.328563 0.527378 0.302089 0.074437
H31   H     H_    0.860856 0.470780 0.699394 0.070148
H32   H     H_    0.310590 0.037163 0.398781 0.110969
H33   H     H_    0.884656 0.954626 0.607563 0.092979
H34   H     H_    0.148104 0.918896 0.682415 0.116814
H35   H     H_    0.818096 0.267509 0.549324 0.060710
H36   H     H_    0.207418 0.761357 0.216444 -0.084360
H37   H     H_    0.370259 0.723140 0.454030 0.070038
H38   H     H_    0.902244 0.802541 0.089261 0.172329
H39   H     H_    0.112010 0.878508 0.101111 0.118017
H40   H     H_    0.382316 0.761588 0.630455 0.002660
H41   H     H_    0.159400 0.747139 0.591445 0.079987
H42   H     H_    0.029821 0.795266 0.856998 0.185630
H43   H     H_    0.896184 0.883947 0.842883 0.210837
H44   H     H_    0.746239 0.001127 0.140974 -0.000878
H45   H     H_    0.833001 0.258135 0.384916 0.006392
H46   H     H_    0.019757 0.255431 0.884206 0.120902
H47   H     H_    0.045027 0.296174 0.783848 0.148480
H48   H     H_    0.606909 0.272590 0.988405 0.172536
H49   H     H_    0.558658 0.395657 0.019059 0.183413
H50   H     H_    0.048370 0.239504 0.400051 0.089019
H51   H     H_    0.744627 0.081542 0.295522 0.094479
H52   H     H_    0.880215 0.064403 0.396185 0.102133
H53   H     H_    0.960452 0.064787 0.289646 0.150650
N1    N     N_3   0.916729 0.815861 0.873285 -0.483380
N2    N     N_3   0.098334 0.255822 0.834096 -0.440605
N3    N     N_3   0.621441 0.352347 0.974590 -0.447918
O1    O     O_2   0.827880 0.435260 0.277750 -0.462365
O2    O     O_2   0.189630 0.119279 0.552214 -0.478928
O3    O     O_3   0.196536 0.141034 0.725761 -0.563688
O4    O     O_3   0.100280 0.438960 0.391170 -0.499589
O5    O     O_3   0.587780 0.631850 0.546230 -0.487945
O6    O     O_2   0.332590 0.233690 0.456160 -0.465885
O7    O     O_3   0.470690 0.195710 0.307300 -0.650365
O8    O     O_2   0.465496 0.435482 0.820683 -0.443668
O9    O     O_3   0.535004 0.241594 0.808005 -0.542913
O10   O     O_3   0.625580 0.634130 0.333250 -0.468666
O11   O     O_2   0.708045 0.555036 0.175985 -0.495643
O12   O     O_3   0.726411 0.785765 0.690085 -0.650885
O13   O     O_3   0.949423 0.262690 0.270761 -0.642415
O14   O     O_3   0.659379 0.752956 0.185440 -0.596167
O15   O     O_2   0.857130 0.766340 0.543890 -0.474424
O16   O     O_3   0.056550 0.691050 0.379010 -0.487126
O17   O     O_2   0.986337 0.882039 0.434636 -0.478760
O18   O     O_2   0.609446 0.923252 0.025562 -0.590664
O19   O     O_3   0.042212 0.855524 0.265688 -0.600325
O20   O     O_2   0.361830 0.564780 0.722310 -0.473106
O21   O     O_3   0.089430 0.561130 0.608830 -0.499493
O22   O     O_3   0.564130 0.365960 0.666760 -0.475003
O23   O     O_3   0.235250 0.737571 0.729136 -0.644467
O24   O     O_3   0.601940 0.368240 0.453770 -0.478964
O25   O     O_3   0.133170 0.309040 0.621000 -0.461427
P1    P     P_3+3 0.998730 0.403530 0.291970 0.965299
P2    P     P_3+3 0.687380 0.751030 0.571310 0.970873
P3    P     P_3+3 0.103075 0.828776 0.376542 0.957544
P4    P     P_3+3 0.190990 0.596560 0.708040 0.972264
P5    P     P_3+3 0.092153 0.169369 0.623163 0.967009
P6    P     P_3+3 0.588811 0.625845 0.214686 0.953249
P7    P     P_3+3 0.509086 0.232776 0.425724 0.933361
P8    P     P_3+3 0.596450 0.372598 0.784011 1.031344

loop_
_geom_bond_atom_site_label_1
_geom_bond_atom_site_label_2
_ccdc_geom_bond_type
C37   H6    S    
C21   H37   S    
C39   C40   S    
Ba1   P2    S    
C39   H16   S    
O20   P4    D    
C2    C6    A    
C34   H14   S    
C35   H52   S    
C1    H4    S    
C5    C6    A    
C12   H1    S    
O12   P2    S    
Ba2   O22   S    
C19   H31   S    
C43   P8    S    
C7    P1    S    
C20   C30   A    
C33   O13   S    
C26   C27   A    
C33   C35   S    
C22   C24   A    
C34   H13   S    
C36   C37   S    
C31   H33   S    
C13   C14   A    
O5    P2    S    
Ba2   O6    S    
C15   C18   A    
C42   H26   S    
Ba1   Ba2   S    
C25   P2    S    
C21   C24   A    
C2    C11   A    
C22   C27   A    
Ba2   P4    S    
Ba1   O21   S    
C12   H7    S    
H49   N3    S    
C8    C18   A    
C14   C15   A    
O3    P5    S    
C32   H12   S    
C16   H39   S    
Ba1   O15   S    
C21   C25   A    
C38   H44   S    
C28   H41   S    
O16   P3    S    
C7    C8    A    
C40   H17   S    
H42   N1    S    
C29   P7    S    
Ba1   O5    S    
C2    C43   A    
C4    H36   S    
C18   P6    S    
C4    O19   S    
C35   H53   S    
C19   C43   A    
O14   P6    S    
Ba2   O21   S    
C4    C16   S    
C20   C29   A    
C28   C32   S    
O22   P8    S    
O19   P3    S    
Ba1   P1    S    
C23   H9    S    
O1    P1    D    
H48   N3    S    
C5    H27   S    
C3    C5    A    
C36   O12   S    
O4    P1    S    
C11   C17   A    
C9    C19   A    
C14   H28   S    
C35   H51   S    
C13   H29   S    
C41   C42   S    
Ba2   O24   S    
C3    C7    A    
C34   H11   S    
C32   H34   S    
C8    H30   S    
C22   H32   S    
C37   N1    S    
C10   C13   A    
C41   H20   S    
C37   H5    S    
C16   H38   S    
C39   N2    S    
O23   P4    S    
C42   H24   S    
Ba1   O16   S    
O11   P6    D    
C28   H40   S    
C24   P3    S    
C36   H2    S    
C1    C12   S    
Ba2   O25   S    
C16   H15   S    
C41   O9    S    
C28   O23   S    
C1    C38   S    
H46   N2    S    
O9    P8    S    
C32   H23   S    
C9    P4    S    
C40   H19   S    
H47   N2    S    
C6    N3    S    
Ba2   O20   S    
O24   P7    S    
C4    H25   S    
O8    P8    D    
C36   H3    S    
C23   H10   S    
Ba1   O24   S    
C26   C31   A    
C9    C10   A    
C3    C17   A    
C33   H50   S    
Ba2   O4    S    
C39   O3    S    
C30   C31   A    
C20   H35   S    
O7    P7    S    
O6    P7    D    
O17   P3    D    
Ba1   O10   S    
O13   P1    S    
C1    H8    S    
O25   P5    S    
C41   H21   S    
C40   H18   S    
C15   C17   A    
Ba2   O5    S    
H43   N1    S    
C23   C34   S    
C33   H45   S    
O10   P6    S    
C38   O18   D    
C10   C11   A    
C27   C29   A    
O15   P2    D    
C25   C26   A    
C42   H22   S    
O2    P5    D    
Ba1   O1    S    
O21   P4    S    
C30   P5    S    
C12   O14   S    
C23   O7    S    
Ba1   O4    S    
