data_mof_unit_34516.cif
_audit_creation_date              2012-12-11T14:33:57-0500
_audit_creation_method            fapswitch 2.2
_symmetry_space_group_name_H-M    P1
_symmetry_Int_Tables_number       1
_space_group_crystal_system       triclinic
_cell_length_a                    13.911261
_cell_length_b                    14.00903
_cell_length_c                    27.322561
_cell_angle_alpha                 90.111794
_cell_angle_beta                  90.220567
_cell_angle_gamma                 119.64075
_cell_volume                      4627.85686956

loop_
_atom_site_label
_atom_site_type_symbol
_atom_type_description
_atom_site_fract_x
_atom_site_fract_y
_atom_site_fract_z
_atom_type_partial_charge
C1    C     C_R   0.235274 0.786421 0.569187 0.538043
C2    C     C_R   0.213880 0.449149 0.569241 0.540276
C3    C     C_R   0.550710 0.764244 0.569664 0.535781
C4    C     C_3   0.608520 0.719149 0.794641 -0.237995
C5    C     C_3   0.265719 0.906668 0.791028 -0.234591
C6    C     C_3   0.089279 0.360282 0.790684 -0.238786
C7    C     C_3   0.592224 0.710980 0.738397 -0.214690
C8    C     C_3   0.278593 0.891068 0.735997 -0.209670
C9    C     C_3   0.106324 0.390023 0.735692 -0.218542
C10   C     C_1   0.683917 0.852086 0.864468 -0.036369
C11   C     C_1   0.130250 0.850903 0.858523 -0.048510
C12   C     C_1   0.134999 0.265716 0.856565 -0.035312
C13   C     C_1   0.614045 0.809980 0.661720 -0.031720
C14   C     C_1   0.185020 0.804977 0.659624 -0.080372
C15   C     C_1   0.194001 0.381967 0.659660 -0.071801
C16   C     C_1   0.592222 0.792109 0.618740 -0.023093
C17   C     C_1   0.205505 0.800408 0.617336 -0.034732
C18   C     C_1   0.200415 0.407059 0.617422 -0.033147
C19   C     C_R   0.065077 0.150586 0.095819 0.578487
C20   C     C_R   0.778196 0.884392 0.088513 0.543640
C21   C     C_R   0.116350 0.893986 0.088218 0.557329
C22   C     C_R   0.074966 0.169566 0.942537 0.556373
C23   C     C_R   0.777699 0.886061 0.951593 0.552423
C24   C     C_R   0.096118 0.920518 0.942719 0.551926
C25   C     C_R   0.617019 0.894604 0.361466 -0.133093
C26   C     C_R   0.097740 0.731936 0.362611 -0.134618
C27   C     C_R   0.263905 0.357689 0.363916 -0.135498
C28   C     C_R   0.644065 0.910605 0.311965 0.013874
C29   C     C_R   0.081074 0.743664 0.312981 0.014291
C30   C     C_R   0.240992 0.306693 0.317813 0.013828
C31   C     C_R   0.682042 0.929283 0.210627 0.016906
C32   C     C_R   0.061207 0.760240 0.211362 0.016949
C33   C     C_R   0.200522 0.225924 0.221011 0.016990
C34   C     C_R   0.232536 0.788177 0.431838 0.549282
C35   C     C_R   0.211639 0.444550 0.431427 0.550959
C36   C     C_R   0.555132 0.766955 0.431874 0.551529
C37   C     C_R   0.653254 0.000003 0.234648 -0.138501
C38   C     C_R   0.978912 0.670612 0.237058 -0.128585
C39   C     C_R   0.302690 0.257384 0.243648 -0.124187
C40   C     C_R   0.634132 0.990603 0.285048 -0.131277
C41   C     C_R   0.989421 0.661685 0.287526 -0.129116
C42   C     C_R   0.322900 0.297743 0.291680 -0.128903
C43   C     C_R   0.705159 0.939725 0.160405 -0.150940
C44   C     C_R   0.051434 0.771510 0.160993 -0.135832
C45   C     C_R   0.182800 0.195365 0.171483 -0.128976
C46   C     C_R   0.730913 0.865782 0.137432 -0.002308
C47   C     C_R   0.135280 0.862154 0.136402 -0.004859
C48   C     C_R   0.082885 0.172314 0.148544 -0.008755
C49   C     C_R   0.658643 0.745199 0.364244 -0.131401
C50   C     C_R   0.264637 0.910882 0.362439 -0.128572
C51   C     C_R   0.076254 0.327178 0.368090 -0.130337
C52   C     C_R   0.683844 0.758643 0.314838 0.013314
C53   C     C_R   0.252829 0.920863 0.312760 0.013700
C54   C     C_R   0.052748 0.277888 0.322021 0.011752
C55   C     C_R   0.674065 0.839919 0.288252 0.063997
C56   C     C_R   0.161856 0.836132 0.287603 0.063360
C57   C     C_R   0.136036 0.269739 0.296215 0.062677
C58   C     C_R   0.710634 0.686578 0.290957 -0.126919
C59   C     C_R   0.335178 0.010620 0.287385 -0.127265
C60   C     C_R   0.949431 0.243278 0.300086 -0.129198
C61   C     C_R   0.723852 0.692304 0.240565 -0.127174
C62   C     C_R   0.329445 0.014769 0.236799 -0.129325
C63   C     C_R   0.930461 0.205917 0.251863 -0.122816
C64   C     C_R   0.713345 0.772019 0.213960 0.010585
C65   C     C_R   0.239355 0.931217 0.211493 0.014228
C66   C     C_R   0.013491 0.200368 0.225370 0.016316
C67   C     C_3   0.562705 0.875383 0.739311 -0.143000
C68   C     C_3   0.119654 0.695303 0.738638 -0.135120
C69   C     C_3   0.298984 0.413905 0.739901 -0.135885
C70   C     C_R   0.690339 0.847551 0.237635 0.065342
C71   C     C_R   0.153891 0.842522 0.236819 0.063906
C72   C     C_R   0.116081 0.230147 0.247789 0.062116
C73   C     C_R   0.728434 0.778769 0.164018 -0.122857
C74   C     C_R   0.231617 0.937488 0.161323 -0.132738
C75   C     C_R   0.997401 0.170769 0.176101 -0.129623
C76   C     C_R   0.617734 0.807466 0.386719 -0.002959
C77   C     C_R   0.193162 0.812790 0.386514 -0.003658
C78   C     C_R   0.183074 0.372293 0.388217 -0.004849
C79   C     C_3   0.756131 0.899872 0.727402 0.169336
C80   C     C_3   0.085589 0.855885 0.720066 0.176090
C81   C     C_3   0.132111 0.227953 0.716961 0.175043
C82   C     C_3   0.770140 0.913299 0.784132 0.195160
C83   C     C_3   0.064012 0.855611 0.775749 0.216719
C84   C     C_3   0.121261 0.199880 0.772263 0.227837
C85   C     C_1   0.720554 0.866711 0.905598 -0.000956
C86   C     C_1   0.115670 0.879303 0.898104 0.016274
C87   C     C_1   0.110597 0.224515 0.896504 0.015557
C88   C     C_3   0.631821 0.825888 0.715110 0.086701
C89   C     C_3   0.165465 0.810047 0.712021 0.068569
C90   C     C_3   0.184675 0.353826 0.711580 0.067759
C91   C     C_3   0.577069 0.879345 0.796553 -0.269321
C92   C     C_3   0.115312 0.711668 0.795497 -0.264914
C93   C     C_3   0.279073 0.384887 0.795807 -0.269406
C94   C     C_3   0.659335 0.840201 0.811456 0.027865
C95   C     C_3   0.144146 0.831287 0.806775 0.016490
C96   C     C_3   0.155416 0.302586 0.805316 0.019120
Cr1   Cr    Cr6+3 0.164410 0.584450 0.499910 1.010014
Cr2   Cr    Cr6+3 0.415550 0.579960 0.499910 1.011090
Cr3   Cr    Cr6+3 0.420040 0.835590 0.499910 1.007268
Cr4   Cr    Cr6+3 0.155170 0.075460 0.019960 1.016832
Cr5   Cr    Cr6+3 0.924540 0.079710 0.019960 1.010935
Cr6   Cr    Cr6+3 0.920290 0.844830 0.019960 1.012952
H1    H     H_    0.607233 0.963571 0.811413 0.106297
H2    H     H_    0.032452 0.654315 0.810878 0.109282
H3    H     H_    0.329831 0.348934 0.809397 0.105724
H4    H     H_    0.474145 0.817258 0.731112 0.125761
H5    H     H_    0.179922 0.666139 0.732334 0.126536
H6    H     H_    0.330918 0.503711 0.736595 0.128295
H7    H     H_    0.495331 0.826189 0.813873 0.114709
H8    H     H_    0.174971 0.692899 0.814451 0.116931
H9    H     H_    0.305459 0.461328 0.817489 0.118192
H10   H     H_    0.660964 0.683501 0.805795 0.111362
H11   H     H_    0.294069 0.994521 0.798800 0.106590
H12   H     H_    0.999751 0.308005 0.798548 0.109479
H13   H     H_    0.706298 0.006241 0.139732 0.103910
H14   H     H_    0.977105 0.713359 0.141556 0.113260
H15   H     H_    0.247982 0.193883 0.150453 0.121568
H16   H     H_    0.586610 0.943945 0.378996 0.127817
H17   H     H_    0.041127 0.656954 0.381441 0.123311
H18   H     H_    0.346203 0.391320 0.379466 0.124765
H19   H     H_    0.645464 0.062386 0.214486 0.098435
H20   H     H_    0.907487 0.606724 0.218025 0.098112
H21   H     H_    0.368232 0.254357 0.223659 0.099976
H22   H     H_    0.610278 0.044885 0.302847 0.100090
H23   H     H_    0.926573 0.590354 0.306535 0.100692
H24   H     H_    0.403666 0.325049 0.307839 0.101686
H25   H     H_    0.746816 0.720094 0.146500 0.129536
H26   H     H_    0.297002 0.007151 0.142291 0.122957
H27   H     H_    0.919385 0.150231 0.158583 0.118101
H28   H     H_    0.742220 0.634453 0.222369 0.098790
H29   H     H_    0.394879 0.083663 0.217509 0.094183
H30   H     H_    0.852480 0.185494 0.234656 0.110918
H31   H     H_    0.717909 0.623723 0.310997 0.101370
H32   H     H_    0.405737 0.075655 0.306466 0.097176
H33   H     H_    0.884919 0.249459 0.319500 0.103214
H34   H     H_    0.661155 0.679327 0.383966 0.127855
H35   H     H_    0.336839 0.975193 0.380982 0.130858
H36   H     H_    0.012758 0.336312 0.386901 0.129776
H37   H     H_    0.785778 0.982091 0.710526 0.119177
H38   H     H_    0.005071 0.802025 0.701294 0.102834
H39   H     H_    0.187109 0.200180 0.700083 0.112726
H40   H     H_    0.794501 0.999771 0.792990 0.118261
H41   H     H_    0.978570 0.787785 0.782632 0.110992
H42   H     H_    0.181298 0.171802 0.780287 0.112700
H43   H     H_    0.503289 0.656423 0.729853 0.087421
H44   H     H_    0.336288 0.858627 0.731449 0.094617
H45   H     H_    0.141998 0.480184 0.731718 0.095013
H46   H     H_    0.637596 0.671718 0.722387 0.165811
H47   H     H_    0.316756 0.972309 0.717576 0.159883
H48   H     H_    0.024596 0.350383 0.716848 0.161415
H49   H     H_    0.527123 0.668397 0.812664 0.111537
H50   H     H_    0.321277 0.886148 0.812463 0.112119
H51   H     H_    0.118008 0.436539 0.812803 0.115914
O1    O     O_R   0.137150 0.468200 0.553200 -0.513161
O2    O     O_R   0.531800 0.668950 0.553200 -0.511271
O3    O     O_R   0.331050 0.862850 0.553200 -0.513383
O4    O     O_R   0.179100 0.982980 0.967000 -0.516275
O5    O     O_R   0.017020 0.196120 0.967000 -0.493484
O6    O     O_R   0.803880 0.820900 0.967000 -0.509017
O7    O     O_R   0.173970 0.688730 0.549930 -0.506522
O8    O     O_R   0.311270 0.485240 0.549930 -0.507356
O9    O     O_R   0.514760 0.826030 0.549930 -0.506116
O10   O     O_R   0.140110 0.470540 0.446010 -0.520812
O11   O     O_R   0.529460 0.669570 0.446010 -0.520582
O12   O     O_R   0.330430 0.859890 0.446010 -0.523663
O13   O     O_R   0.176710 0.690910 0.450560 -0.501080
O14   O     O_R   0.309090 0.485800 0.450560 -0.500723
O15   O     O_R   0.514200 0.823290 0.450560 -0.502872
O16   O     O_3   0.333333 0.666667 0.499990 -0.264317
O17   O     O_R   0.176750 0.985260 0.074180 -0.530529
O18   O     O_R   0.014740 0.191490 0.074180 -0.497194
O19   O     O_R   0.808510 0.823250 0.074180 -0.520311
O20   O     O_R   0.146100 0.172630 0.068980 -0.481660
O21   O     O_R   0.827370 0.973470 0.068980 -0.520796
O22   O     O_R   0.026530 0.853900 0.068980 -0.491541
O23   O     O_3   0.000000 0.000000 0.020040 -0.274285
O24   O     O_R   0.148270 0.170520 0.969620 -0.495479
O25   O     O_R   0.829480 0.977750 0.969620 -0.512712
O26   O     O_R   0.022250 0.851730 0.969620 -0.486999
C97   C     C_3   0.587759 0.990901 0.721161 -0.288751
C98   C     C_3   0.557625 0.995552 0.667384 -0.285115
C99   C     C_3   0.553842 0.100654 0.656744 -0.447921
H52   H     H_    0.489606 0.104566 0.679230 0.141253
H53   H     H_    0.635453 0.173877 0.664751 0.146479
H54   H     H_    0.533509 0.102184 0.617519 0.158790
H55   H     H_    0.621482 0.995608 0.643226 0.177056
H56   H     H_    0.475735 0.923619 0.658321 0.173880
H57   H     H_    0.538027 0.016241 0.743992 0.145665
H58   H     H_    0.675745 0.052998 0.727772 0.131818
C100  C     C_3   0.004395 0.601916 0.721004 -0.287335
C101  C     C_3   0.999954 0.564588 0.667730 -0.284745
C102  C     C_3   0.894126 0.456312 0.657457 -0.448442
H59   H     H_    0.889409 0.390152 0.681333 0.142494
H60   H     H_    0.820418 0.465727 0.663885 0.146736
H61   H     H_    0.893232 0.431860 0.618702 0.159153
H62   H     H_    0.999922 0.626522 0.642558 0.176705
H63   H     H_    0.072511 0.554086 0.659793 0.174938
H64   H     H_    0.981846 0.529476 0.744770 0.144138
H65   H     H_    0.939865 0.625472 0.726646 0.132978
C103  C     C_3   0.391954 0.391559 0.721420 -0.286763
C104  C     C_3   0.433243 0.431786 0.669330 -0.285346
C105  C     C_3   0.544693 0.438628 0.660051 -0.449538
H66   H     H_    0.608697 0.498370 0.685498 0.143629
H67   H     H_    0.537741 0.356746 0.665034 0.145359
H68   H     H_    0.571269 0.466210 0.621947 0.159826
H69   H     H_    0.373705 0.372888 0.642292 0.174520
H70   H     H_    0.441927 0.514121 0.663305 0.171706
H71   H     H_    0.463675 0.435633 0.746763 0.146317
H72   H     H_    0.365815 0.302957 0.724213 0.132933
O27   O     O_3   0.817840 0.854115 0.707728 -0.717458
H73   H     H_    0.895889 0.914247 0.706183 0.386207
O28   O     O_3   0.130782 0.963103 0.701222 -0.699417
H74   H     H_    0.111759 0.956113 0.665854 0.317131
O29   O     O_3   0.027968 0.173115 0.693495 -0.710907
H75   H     H_    0.040640 0.160468 0.658934 0.322342
O30   O     O_3   0.855380 0.895879 0.801555 -0.598595
H76   H     H_    0.832775 0.817711 0.796089 0.340529
O31   O     O_3   0.066757 0.952886 0.790372 -0.574800
H77   H     H_    0.145032 0.009203 0.795022 0.332596
O32   O     O_3   0.015263 0.113866 0.783791 -0.586148
H78   H     H_    0.962151 0.140239 0.777771 0.335590

loop_
_geom_bond_atom_site_label_1
_geom_bond_atom_site_label_2
_ccdc_geom_bond_type
C79   O27   S    
C79   H37   S    
C10   C85   T    
C100  C101  S    
C82   C94   S    
C7    H43   S    
C2    C18   S    
C33   C45   A    
C104  C105  S    
C15   C18   T    
C48   C75   A    
C82   H40   S    
C27   C78   A    
C92   H8    S    
C25   H16   S    
Cr2   O8    S    
C6    C9    S    
C19   O20   A    
C53   C59   A    
C50   H35   S    
C39   H21   S    
C54   C60   A    
C98   C99   S    
C25   C28   A    
C67   C88   S    
C33   C39   A    
C5    H50   S    
C31   C43   A    
C60   C63   A    
C19   O18   A    
Cr3   O15   S    
C37   C40   A    
C69   C93   S    
C97   H58   S    
C4    C7    S    
C34   C77   S    
C91   C94   S    
C45   C48   A    
C84   H42   S    
C11   C86   T    
Cr6   O23   S    
Cr1   O13   S    
C30   C57   A    
C36   O15   A    
Cr1   O16   S    
C84   C96   S    
C80   C89   S    
C99   H52   S    
C6    H12   S    
C23   O25   A    
Cr5   O25   S    
C97   H57   S    
C33   C72   A    
C93   H3    S    
C101  H62   S    
Cr2   O16   S    
Cr4   O4    S    
C28   C55   A    
C31   C70   A    
C20   O21   A    
C7    C88   S    
C66   C72   A    
C103  C104  S    
C21   O22   A    
C105  H68   S    
C23   O6    A    
Cr4   O23   S    
C69   C103  S    
C35   O14   A    
C64   C73   A    
C68   H5    S    
C32   C38   A    
C39   C42   A    
C34   O12   A    
C36   C76   S    
Cr2   O14   S    
C3    O9    A    
C44   C47   A    
C80   O28   S    
C1    O3    A    
C43   H13   S    
C56   C71   A    
C58   C61   A    
C81   H39   S    
C4    H10   S    
C63   C66   A    
C103  H71   S    
C27   C30   A    
C80   H38   S    
Cr6   O26   S    
C14   C17   T    
Cr5   O21   S    
C22   O24   A    
Cr4   O24   S    
C2    O8    A    
C3    O2    A    
C79   C88   S    
C5    C95   S    
C69   H6    S    
C100  H65   S    
C32   C71   A    
C58   H31   S    
Cr6   O19   S    
C40   H22   S    
C74   H26   S    
C9    H48   S    
C50   C53   A    
C105  H66   S    
C28   C40   A    
Cr4   O17   S    
C101  C102  S    
C26   C77   A    
C102  H61   S    
C41   H23   S    
C26   H17   S    
C38   C41   A    
C83   O31   S    
C42   H24   S    
O29   H75   S    
C84   O32   S    
C22   O5    A    
Cr1   O10   S    
Cr6   O22   S    
C65   C71   A    
C52   C58   A    
C9    H45   S    
C92   C95   S    
C35   O10   A    
C65   C74   A    
C31   C37   A    
C99   H54   S    
C102  H60   S    
Cr6   O6    S    
C61   C64   A    
C64   C70   A    
Cr1   O7    S    
C14   C89   S    
C79   C82   S    
Cr3   O9    S    
C81   O29   S    
C27   H18   S    
C68   C100  S    
C104  H69   S    
C49   C52   A    
C83   C95   S    
Cr3   O3    S    
C24   O26   A    
C67   C91   S    
C68   C89   S    
C104  H70   S    
C49   C76   A    
C22   C87   S    
O30   H76   S    
C60   H33   S    
C44   H14   S    
C38   H20   S    
C105  H67   S    
C61   H28   S    
C93   H9    S    
C37   H19   S    
C81   C90   S    
C20   O19   A    
C49   H34   S    
Cr5   O5    S    
C93   C96   S    
C6    C96   S    
C82   O30   S    
C69   C90   S    
C50   C77   A    
C81   C84   S    
C97   C98   S    
C100  H64   S    
C80   C83   S    
C7    H46   S    
C53   C56   A    
C45   H15   S    
C98   H56   S    
C4    H49   S    
Cr2   O2    S    
C59   C62   A    
C59   H32   S    
C12   C87   T    
C5    H11   S    
C24   O4    A    
C62   H29   S    
C1    O7    A    
C8    H44   S    
C101  H63   S    
C47   C74   A    
C91   H1    S    
Cr1   O1    S    
C9    C90   S    
C5    C8    S    
Cr2   O11   S    
C98   H55   S    
C52   C55   A    
C67   H4    S    
C55   C70   A    
Cr3   O16   S    
C29   C56   A    
C35   C78   S    
C1    C17   S    
C103  H72   S    
C67   C97   S    
C51   C54   A    
C102  H59   S    
C25   C76   A    
C8    H47   S    
C51   C78   A    
C73   H25   S    
C15   C90   S    
C83   H41   S    
C91   H7    S    
O31   H77   S    
C4    C94   S    
C66   C75   A    
C13   C88   S    
C68   C92   S    
C63   H30   S    
O32   H78   S    
Cr5   O18   S    
C30   C42   A    
C57   C72   A    
C43   C46   A    
C99   H53   S    
C6    H51   S    
C92   H2    S    
C62   C65   A    
C51   H36   S    
C75   H27   S    
C11   C95   S    
O28   H74   S    
C32   C44   A    
C26   C29   A    
C2    O1    A    
O27   H73   S    
C23   C85   S    
C13   C16   T    
Cr4   O20   S    
C36   O11   A    
C10   C94   S    
C29   C41   A    
C12   C96   S    
Cr5   O23   S    
C8    C89   S    
Cr3   O12   S    
C34   O13   A    
C24   C86   S    
C46   C73   A    
C20   C46   S    
C3    C16   S    
C21   O17   A    
C19   C48   S    
C21   C47   S    
C54   C57   A    
