data_mof_unit_21572.cif
_audit_creation_date              2012-12-11T14:08:01-0500
_audit_creation_method            fapswitch 2.2
_symmetry_space_group_name_H-M    P1
_symmetry_Int_Tables_number       1
_space_group_crystal_system       triclinic
_cell_length_a                    10.959699
_cell_length_b                    11.010621
_cell_length_c                    18.74484
_cell_angle_alpha                 90.500691
_cell_angle_beta                  89.933996
_cell_angle_gamma                 60.105358
_cell_volume                      1960.90952899

loop_
_atom_site_label
_atom_site_type_symbol
_atom_type_description
_atom_site_fract_x
_atom_site_fract_y
_atom_site_fract_z
_atom_type_partial_charge
C1    C     C_R   0.238150 0.644606 0.608791 0.602401
C2    C     C_2   0.775239 0.157492 0.710812 0.340477
C3    C     C_2   0.183426 0.658961 0.680769 0.219876
C4    C     C_R   0.656772 0.624472 0.599950 0.587983
C5    C     C_2   0.196453 0.665711 0.840676 0.000584
C6    C     C_2   0.216724 0.555012 0.801877 0.415012
C7    C     C_2   0.248152 0.548447 0.725282 -0.051301
C8    C     C_2   0.652995 0.649047 0.319249 -0.013183
C9    C     C_2   0.631003 0.665478 0.158636 0.322047
C10   C     C_2   0.701682 0.550852 0.198941 0.295729
C11   C     C_2   0.658829 0.553105 0.272372 0.449406
C12   C     C_3   0.623364 0.627261 0.803639 0.398080
C13   C     C_2   0.633421 0.189216 0.320340 0.038493
C14   C     C_2   0.635399 0.197150 0.164814 0.353401
C15   C     C_2   0.527902 0.211170 0.203749 -0.071214
C16   C     C_R   0.626635 0.230371 0.602472 0.564330
C17   C     C_2   0.518151 0.245898 0.278092 0.406280
C18   C     C_2   0.141307 0.677239 0.337019 -0.019550
C19   C     C_2   0.006053 0.746950 0.195525 0.114211
C20   C     C_2   0.015338 0.838271 0.241369 0.208805
C21   C     C_2   0.045350 0.807062 0.317507 0.382423
C22   C     C_R   0.701100 0.107116 0.900241 0.599754
C23   C     C_3   0.726917 0.687244 0.808229 -0.087441
C24   C     C_R   0.754831 0.708843 0.883072 0.590618
C25   C     C_R   0.120070 0.705996 0.908142 0.581107
C26   C     C_R   0.673011 0.112940 0.101468 0.556390
C27   C     C_R   0.692659 0.688923 0.094952 0.598402
C28   C     C_R   0.219054 0.650263 0.402677 0.606542
C29   C     C_R   0.016612 0.753558 0.117587 0.592522
C30   C     C_R   0.643258 0.623393 0.394062 0.564422
C31   C     C_R   0.614458 0.232203 0.394021 0.605299
C32   C     C_3   0.660432 0.830521 0.767656 0.638608
C33   C     C_3   0.616621 0.812957 0.690837 0.084862
C34   C     C_3   0.682444 0.653618 0.674021 -0.095591
C35   C     C_3   0.870695 0.586443 0.769138 0.129517
C36   C     C_3   0.845580 0.582284 0.688577 0.689303
C37   C     C_3   0.614531 0.590782 0.724514 0.227960
C38   C     C_2   0.663225 0.170826 0.673604 0.262397
C39   C     C_2   0.686260 0.181424 0.834715 0.482942
C40   C     C_2   0.792128 0.123436 0.786978 0.052739
Cl1   Cl    Cl    0.967731 0.409825 0.803454 -0.233577
Cl2   Cl    Cl    0.450561 0.751199 0.835956 -0.439006
Cl3   Cl    Cl    0.918621 0.161739 0.670015 -0.281118
Cl4   Cl    Cl    0.530809 0.144562 0.712274 -0.340579
Cl5   Cl    Cl    0.039280 0.821448 0.705173 -0.513392
Cl6   Cl    Cl    0.858328 0.397400 0.172402 -0.293443
Cl7   Cl    Cl    0.016031 0.991254 0.214087 -0.330080
Cl8   Cl    Cl    0.427606 0.909731 0.680250 -0.347477
Cl9   Cl    Cl    0.965162 0.620742 0.227675 -0.613751
Cl10  Cl    Cl    0.671707 0.479172 0.860000 -0.354330
Cr1   Cr    Cr6+3 0.393010 0.398050 0.501480 1.174877
Cr2   Cr    Cr6+3 0.398820 0.707980 0.501630 1.171870
Cr3   Cr    Cr6+3 0.708140 0.393940 0.496850 1.231890
Cr4   Cr    Cr6+3 0.937950 0.938450 0.008940 1.165385
Cr5   Cr    Cr6+3 0.626180 0.937030 0.994750 1.203063
Cr6   Cr    Cr6+3 0.937790 0.625760 0.001410 1.197923
F1    F     F_    0.759413 0.873321 0.763221 -0.642187
F2    F     F_    0.724809 0.238453 0.190025 -0.536647
F3    F     F_    0.000915 0.915893 0.364742 -0.576157
F4    F     F_    0.899826 0.654171 0.652212 -0.598207
F5    F     F_    0.680932 0.447486 0.714336 -0.567025
F6    F     F_    0.920678 0.444402 0.664540 -0.436253
F7    F     F_    0.559905 0.295736 0.819610 -0.535939
F8    F     F_    0.214670 0.444838 0.832698 -0.495671
F9    F     F_    0.545714 0.935313 0.804316 -0.439413
F10   F     F_    0.647534 0.442299 0.294957 -0.572549
F11   F     F_    0.506235 0.773628 0.182784 -0.620970
F12   F     F_    0.385972 0.333314 0.303562 -0.584067
H1    H     H_    0.894468 0.039463 0.803343 0.156411
H2    H     H_    0.502585 0.631151 0.709792 0.167386
H3    H     H_    0.330600 0.448135 0.704986 0.200874
H4    H     H_    0.214330 0.744254 0.816229 0.167004
H5    H     H_    0.662973 0.738154 0.302926 0.092265
H6    H     H_    0.450651 0.185829 0.182924 0.166552
H7    H     H_    0.738708 0.119638 0.299949 0.165316
H8    H     H_    0.182738 0.590574 0.299249 0.178806
H9    H     H_    0.658347 0.859175 0.651940 0.212825
H10   H     H_    0.942588 0.629187 0.776841 0.180169
O1    O     O_R   0.507110 0.256280 0.580300 -0.478821
O2    O     O_R   0.837080 0.593860 0.915300 -0.429175
O3    O     O_R   0.064770 0.636080 0.932550 -0.458703
O4    O     O_R   0.280830 0.527190 0.577940 -0.509919
O5    O     O_R   0.068250 0.829200 0.092940 -0.437688
O6    O     O_R   0.799650 0.057040 0.080330 -0.450059
O7    O     O_R   0.586130 0.079760 0.077080 -0.545978
O8    O     O_R   0.627700 0.809630 0.066580 -0.458683
O9    O     O_R   0.816140 0.597180 0.075920 -0.465157
O10   O     O_R   0.045360 0.639170 0.081440 -0.439180
O11   O     O_3   0.833980 0.833750 0.001700 -0.392022
O12   O     O_R   0.524640 0.695370 0.425100 -0.494897
O13   O     O_R   0.261360 0.738990 0.584270 -0.437238
O14   O     O_R   0.532590 0.694780 0.574370 -0.501770
O15   O     O_R   0.744470 0.503750 0.577000 -0.376190
O16   O     O_R   0.698520 0.277230 0.571620 -0.456751
O17   O     O_R   0.498530 0.256920 0.419280 -0.456468
O18   O     O_R   0.272880 0.527780 0.428680 -0.455866
O19   O     O_R   0.252780 0.739630 0.423250 -0.435013
O20   O     O_R   0.735890 0.504390 0.415980 -0.443322
O21   O     O_R   0.690560 0.277820 0.422350 -0.434605
O22   O     O_3   0.499990 0.499990 0.499980 -0.335662
O23   O     O_R   0.089190 0.825870 0.932320 -0.480812
O24   O     O_R   0.819070 0.053960 0.931440 -0.545852
O25   O     O_R   0.607070 0.076440 0.916460 -0.392603
O26   O     O_R   0.647110 0.806550 0.917690 -0.392981

loop_
_geom_bond_atom_site_label_1
_geom_bond_atom_site_label_2
_ccdc_geom_bond_type
C28   O19   A    
C18   C21   D    
Cr4   O23   S    
Cr2   O12   S    
C35   C36   S    
C30   O12   A    
C33   H9    S    
Cr4   O6    S    
Cr6   O3    S    
Cr3   O21   S    
C12   C23   S    
C21   F3    S    
C5    H4    S    
C3    C7    D    
C26   O7    A    
C7    H3    S    
C5    C6    D    
Cr6   O10   S    
C34   C37   S    
Cr5   O25   S    
Cr2   O19   S    
C6    F8    S    
C12   C37   S    
C19   Cl9   S    
C29   O10   A    
C12   Cl2   S    
C24   O2    A    
C19   C20   D    
C10   Cl6   S    
C18   H8    S    
C23   C24   S    
C31   O21   A    
C9    C10   D    
C11   F10   S    
Cr1   O18   S    
C1    O13   A    
C37   H2    S    
C25   O3    A    
C32   F1    S    
C36   F6    S    
Cr4   O5    S    
C13   C31   S    
Cr3   O22   S    
C14   F2    S    
C4    C34   S    
C40   H1    S    
Cr3   O15   S    
C13   H7    S    
C18   C28   S    
Cr4   O11   S    
C39   C40   D    
Cr6   O9    S    
C1    O4    A    
Cr5   O26   S    
C3    Cl5   S    
C22   O25   A    
C24   O26   A    
Cr5   O7    S    
C27   O8    A    
C9    F11   S    
C38   Cl4   S    
C2    C38   D    
C12   Cl10  S    
C2    Cl3   S    
C33   C34   S    
C14   C26   S    
C27   O9    A    
Cr1   O4    S    
C5    C25   S    
Cr6   O11   S    
C23   C35   S    
Cr2   O14   S    
C19   C29   S    
C9    C27   S    
Cr1   O22   S    
C15   C17   S    
C17   F12   S    
C26   O6    A    
Cr3   O16   S    
Cr4   O24   S    
C36   F4    S    
Cr6   O2    S    
C37   F5    S    
C29   O5    A    
C6    C7    S    
Cr3   O20   S    
C39   F7    S    
C30   O20   A    
C35   H10   S    
C16   O16   A    
C22   O24   A    
C13   C17   D    
C28   O18   A    
C16   O1    A    
C8    C30   S    
C23   C32   S    
Cr5   O8    S    
Cr5   O11   S    
C32   C33   S    
C25   O23   A    
C8    C11   D    
C31   O17   A    
C22   C39   S    
C8    H5    S    
Cr2   O22   S    
C34   C36   S    
C35   Cl1   S    
Cr1   O1    S    
C20   Cl7   S    
C10   C11   S    
C4    O15   A    
C2    C40   S    
C15   H6    S    
C20   C21   S    
Cr1   O17   S    
C33   Cl8   S    
C14   C15   D    
Cr2   O13   S    
C1    C3    S    
C16   C38   S    
C32   F9    S    
C4    O14   A    
