data_mof_unit_24821.cif
_audit_creation_date              2013-03-05T15:44:48-0500
_audit_creation_method            fapswitch 2.2
_symmetry_space_group_name_H-M    P1
_symmetry_Int_Tables_number       1
_space_group_crystal_system       triclinic
_cell_length_a                    12.954201
_cell_length_b                    13.054905
_cell_length_c                    15.3022
_cell_angle_alpha                 117.116732
_cell_angle_beta                  63.229509
_cell_angle_gamma                 97.374147
_cell_volume                      2046.84114089

loop_
_atom_site_label
_atom_site_type_symbol
_atom_site_description
_atom_site_fract_x
_atom_site_fract_y
_atom_site_fract_z
_atom_type_partial_charge
C1    C     C_R   0.018962 0.835187 0.036271 -0.135655
N1    N     N_R   0.037310 0.720000 0.995790 -0.046554
C2    C     C_R   0.705318 0.397673 0.205559 -0.125300
H1    H     H_    0.655870 0.335358 0.168507 0.122699
N2    N     N_R   0.790790 0.446160 0.152010 -0.045982
C3    C     C_R   0.737626 0.579395 0.951162 -0.068518
H2    H     H_    0.744630 0.621756 0.903105 0.144876
N3    N     N_R   0.824890 0.517960 0.936420 -0.054637
C4    C     C_R   0.941263 0.720506 0.316461 -0.107067
H3    H     H_    0.890345 0.694360 0.379870 0.099002
N4    N     N_R   0.003210 0.648190 0.211380 -0.042508
C5    C     C_R   0.661661 0.488277 0.055576 -0.142627
N5    N     N_R   0.774330 0.457010 0.995840 -0.040232
C6    C     C_R   0.032118 0.821344 0.223045 -0.083749
N6    N     N_R   0.053760 0.709140 0.151960 -0.039763
C7    C     C_R   0.802795 0.485550 0.303160 -0.100322
N7    N     N_R   0.853860 0.498840 0.211410 -0.052970
C8    C     C_R   0.918009 0.751180 0.941391 -0.069382
N8    N     N_R   0.974240 0.667310 0.936390 -0.057404
C9    C     C_R   0.936534 0.856994 0.011294 0.131155
C10   C     C_R   0.710819 0.419075 0.300422 0.083733
C11   C     C_R   0.635201 0.567908 0.031262 -0.002943
C12   C     C_R   0.954375 0.831212 0.325735 0.037509
C13   C     C_R   0.324885 0.576340 0.009279 -0.091475
H4    H     H_    0.376562 0.634231 0.977695 0.138529
N9    N     N_R   0.225670 0.542990 0.004160 -0.058055
C14   C     C_R   0.900105 0.203455 0.792168 -0.068249
H5    H     H_    0.835677 0.155272 0.827044 0.164102
N10   N     N_R   0.946240 0.290860 0.848040 -0.055756
C15   C     C_R   0.218723 0.438378 0.683927 -0.113780
H6    H     H_    0.191575 0.387585 0.620752 0.098169
N11   N     N_R   0.146140 0.501160 0.788590 -0.044443
C16   C     C_R   0.086345 0.250073 0.055612 -0.176284
H7    H     H_    0.142581 0.265940 0.094470 0.137118
N12   N     N_R   0.025760 0.332690 0.063610 -0.061092
C17   C     C_R   0.983526 0.165394 0.963351 0.351124
N13   N     N_R   0.962690 0.280000 0.004210 -0.094276
C18   C     C_R   0.322322 0.523469 0.778377 -0.121816
N14   N     N_R   0.209210 0.553840 0.847990 -0.044416
C19   C     C_R   0.243451 0.478256 0.106471 -0.145930
H8    H     H_    0.219768 0.448090 0.167590 0.112749
N15   N     N_R   0.175110 0.482040 0.063580 -0.047481
C20   C     C_R   0.984348 0.301234 0.696567 -0.125903
H9    H     H_    0.002132 0.340881 0.643430 0.106826
N16   N     N_R   0.996790 0.351810 0.788620 -0.048823
Ni1   Ni    Ni4+2 0.130310 0.630310 0.999970 0.242603
Ni2   Ni    Ni4+2 0.869690 0.369690 0.000030 0.256511
Ni3   Ni    Ni4+2 0.985640 0.509470 0.863740 0.227806
Ni4   Ni    Ni4+2 0.014360 0.490530 0.136260 0.236750
C21   C     C_R   0.336421 0.539081 0.075553 0.180893
C22   C     C_R   0.922187 0.207896 0.697167 0.020265
C23   C     C_R   0.330763 0.449188 0.674500 0.072814
C24   C     C_R   0.062377 0.141802 0.992250 -0.011429
C25   C     C_R   0.929681 0.044960 0.424066 -0.140498
H10   H     H_    0.967942 0.052324 0.348355 0.118180
C26   C     C_R   0.919921 0.141323 0.518767 -0.105955
H11   H     H_    0.952491 0.219453 0.512661 0.139957
C27   C     C_R   0.883915 0.130349 0.615051 0.108326
C28   C     C_R   0.832840 0.031160 0.621708 -0.140527
H12   H     H_    0.797256 0.021946 0.696300 0.139931
C29   C     C_R   0.842922 0.934931 0.527104 -0.140432
H13   H     H_    0.813740 0.855899 0.532792 0.124460
C30   C     C_R   0.903828 0.938354 0.426316 0.118104
C31   C     C_R   0.645951 0.398646 0.473886 0.353840
C32   C     C_R   0.546708 0.414326 0.570496 -0.279949
C33   C     C_R   0.437120 0.401548 0.571477 0.085683
C34   C     C_R   0.429680 0.353953 0.472265 -0.140381
H14   H     H_    0.348107 0.335702 0.467698 0.121892
C35   C     C_R   0.525834 0.343662 0.378171 -0.174883
H15   H     H_    0.512230 0.320133 0.306988 0.134770
C36   C     C_R   0.631388 0.379247 0.381421 -0.007951
C37   C     C_2   0.430364 0.554836 0.105137 -0.321093
H16   H     H_    0.441745 0.486217 0.122069 0.119420
C38   C     C_2   0.517530 0.617590 0.074171 0.317317
C39   C     C_2   0.861465 0.965061 0.066954 -0.136466
C40   C     C_2   0.862855 0.058210 0.153732 -0.041659
H17   H     H_    0.923039 0.062190 0.186361 0.120105
H18   H     H_    0.062706 0.899660 0.078024 0.095862
N17   N     N_R   0.917324 0.082081 0.916920 0.207358
O1    O     O_R   0.965066 0.977903 0.843426 -0.414002
O2    O     O_R   0.804838 0.102809 0.964151 -0.463023
H19   H     H_    0.392661 0.552267 0.800694 0.105119
N18   N     N_R   0.758898 0.400120 0.470222 0.218693
O3    O     O_R   0.772246 0.458899 0.559063 -0.420216
O4    O     O_R   0.844757 0.328574 0.382150 -0.436531
H20   H     H_    0.554899 0.439054 0.644705 0.165430
N19   N     N_R   0.496466 0.727584 0.080769 0.236051
O5    O     O_R   0.396811 0.788837 0.151814 -0.389136
O6    O     O_R   0.580922 0.775350 0.029840 -0.418686
H21   H     H_    0.795389 0.965770 0.042209 0.219980
H22   H     H_    0.604944 0.457560 0.114042 0.105698
H23   H     H_    0.073922 0.890201 0.204489 0.095269
H24   H     H_    0.839391 0.510104 0.359987 0.148065
H25   H     H_    0.868067 0.739440 0.897947 0.131462

loop_
_geom_bond_atom_site_label_1
_geom_bond_atom_site_label_2
_geom_bond_distance
_ccdc_geom_bond_type
N19   O5    1.302343 A    
C7    C10   1.385964 A    
C14   N10   1.336439 A    
C5    H22   1.077177 S    
C39   C40   1.336520 D    
C32   H20   1.081913 S    
N1    Ni1   1.823809 S    
N2    Ni2   1.858493 S    
C7    H24   1.077921 S    
N3    N5    1.370456 A    
C10   C36   1.471957 S    
C17   N13   1.342074 A    
N12   N13   1.386227 A    
C13   N9    1.327982 A    
C8    N8    1.346642 A    
C15   H6    1.077002 S    
N11   N14   1.386211 A    
C18   C23   1.394434 A    
C25   C30   1.401396 A    
C3    C11   1.391683 A    
C5    C11   1.376806 A    
C26   H11   1.080737 S    
C29   C30   1.400262 A    
C1    N1    1.345898 A    
C31   C36   1.415370 A    
C35   C36   1.401822 A    
C21   C37   1.440635 S    
C17   C24   1.394859 A    
C39   H21   1.083209 S    
N4    N6    1.370444 A    
C7    N7    1.339704 A    
N12   Ni4   1.829112 S    
C38   N19   1.445765 S    
N13   Ni2   1.823811 S    
C4    H3    1.077322 S    
C19   N15   1.334604 A    
C33   C34   1.398819 A    
C28   H12   1.080165 S    
C18   H19   1.078683 S    
C16   C24   1.394126 A    
C1    H18   1.072969 S    
N11   Ni3   1.856708 S    
C35   H15   1.079771 S    
C14   C22   1.377128 A    
C13   C21   1.375580 A    
C25   C26   1.382917 A    
C28   C29   1.380169 A    
C34   H14   1.079357 S    
C13   H4    1.079149 S    
C37   C38   1.343553 D    
N7    Ni4   1.856710 S    
N17   O2    1.301211 A    
N8    Ni3   1.829113 S    
C4    C12   1.381846 A    
C3    N3    1.345394 A    
C27   C28   1.401611 A    
C9    C39   1.473806 S    
N10   N16   1.370442 A    
C34   C35   1.376124 A    
C6    C12   1.386820 A    
C20   H9    1.080016 S    
N3    Ni3   1.856371 S    
C31   N18   1.436714 S    
N4    Ni4   1.829884 S    
C20   N16   1.332467 A    
N18   O3    1.301380 A    
C16   H7    1.079976 S    
C22   C27   1.456813 S    
C40   H17   1.084633 S    
C4    N4    1.330045 A    
C6    H23   1.072908 S    
N14   Ni1   1.858493 S    
C19   H8    1.081757 S    
N18   O4    1.301759 A    
N10   Ni2   1.858517 S    
N19   O6    1.301145 A    
C8    H25   1.073822 S    
C2    C10   1.381542 A    
C11   C38   1.462650 S    
C2    H1    1.080052 S    
C23   C33   1.462829 S    
N9    N15   1.370457 A    
N5    Ni2   1.824571 S    
N16   Ni3   1.829884 S    
C15   C23   1.387315 A    
C25   H10   1.081280 S    
C1    C9    1.382822 A    
N1    N8    1.386227 A    
C37   H16   1.082229 S    
C2    N2    1.331795 A    
C17   N17   1.424155 S    
C3    H2    1.073601 S    
C31   C32   1.399924 A    
C15   N11   1.328723 A    
C20   C22   1.372937 A    
C18   N14   1.340517 A    
C19   C21   1.374244 A    
C12   C30   1.455597 S    
C16   N12   1.343382 A    
C26   C27   1.401811 A    
C8    C9    1.381724 A    
C29   H13   1.080329 S    
N9    Ni1   1.824572 S    
N15   Ni4   1.856370 S    
N17   O1    1.300767 A    
N2    N7    1.386211 A    
C5    N5    1.320370 A    
C32   C33   1.402027 A    
C14   H5    1.071015 S    
C6    N6    1.336292 A    
N6    Ni1   1.858515 S    
