data_mof_unit_44944.cif
_audit_creation_date              2012-10-26T18:32:42-0400
_audit_creation_method            fapswitch 2.2
_symmetry_space_group_name_H-M    P1
_symmetry_Int_Tables_number       1
_space_group_crystal_system       triclinic
_cell_length_a                    13.727972
_cell_length_b                    13.878366
_cell_length_c                    15.03415
_cell_angle_alpha                 90.013401
_cell_angle_beta                  90.521339
_cell_angle_gamma                 85.374679
_cell_volume                      2854.88690687

loop_
_atom_site_label
_atom_site_type_symbol
_atom_type_description
_atom_site_fract_x
_atom_site_fract_y
_atom_site_fract_z
_atom_type_partial_charge
C1    C     C_R   0.499570 0.500003 0.329074 0.627351
C2    C     C_R   0.529546 0.322436 0.955155 0.009693
C3    C     C_R   0.786927 0.566494 0.450701 0.045087
C4    C     C_R   0.213087 0.432489 0.548166 0.045028
C5    C     C_R   0.798751 0.433511 0.549287 0.039642
C6    C     C_R   0.201027 0.567907 0.452379 0.041029
C7    C     C_R   0.902374 0.430350 0.550306 -0.051489
C8    C     C_R   0.097457 0.569875 0.450091 -0.051418
C9    C     C_R   0.948179 0.500265 0.500380 0.028993
C10   C     C_R   0.051662 0.500292 0.500436 0.028848
C11   C     C_R   0.889966 0.570129 0.450351 -0.052911
C12   C     C_R   0.500500 0.499973 0.670923 0.625639
C13   C     C_R   0.109845 0.430813 0.550898 -0.053107
C14   C     C_R   0.960376 0.360779 0.601247 0.017928
C15   C     C_R   0.039252 0.640645 0.400643 0.016088
C16   C     C_R   0.515273 0.317041 0.501130 0.572117
C17   C     C_R   0.484727 0.682960 0.498845 0.571890
C18   C     C_R   0.064169 0.360577 0.601058 0.012185
C19   C     C_R   0.935561 0.640273 0.400123 0.010504
C20   C     C_1   0.477116 0.785539 0.491393 -0.012987
C21   C     C_1   0.522889 0.214463 0.508572 -0.012567
C22   C     C_2   0.471761 0.975769 0.472359 0.312919
C23   C     C_R   0.501103 0.499527 0.953016 -0.027947
C24   C     C_2   0.528278 0.024234 0.527605 0.311128
C25   C     C_1   0.526628 0.128276 0.516898 -0.000581
C26   C     C_1   0.473390 0.871727 0.483063 -0.002346
C27   C     C_R   0.526877 0.413452 0.812541 0.186380
C28   C     C_R   0.476406 0.587335 0.187528 0.192731
C29   C     C_R   0.502202 0.500185 0.767163 0.029365
C30   C     C_R   0.498266 0.500021 0.232815 0.030979
C31   C     C_R   0.482868 0.587441 0.812504 0.210864
C32   C     C_R   0.516652 0.412692 0.187420 0.210831
C33   C     C_R   0.483166 0.587447 0.905788 -0.005938
C34   C     C_R   0.500636 0.500935 0.046974 -0.028383
C35   C     C_R   0.517710 0.412889 0.094166 -0.005525
C36   C     C_3   0.633979 0.032934 0.650336 -0.103810
C37   C     C_3   0.366326 0.967089 0.349439 -0.098029
C38   C     C_3   0.661573 0.323101 0.764617 -0.097823
C39   C     C_3   0.345613 0.681521 0.238080 -0.118324
C40   C     C_3   0.546659 0.715588 0.746221 -0.107928
C41   C     C_3   0.450322 0.285265 0.252390 -0.109289
C42   C     C_2   0.476547 0.775015 0.086379 0.258462
C43   C     C_2   0.527965 0.225590 0.913068 0.255783
C44   C     C_2   0.912139 0.289574 0.656330 0.261635
C45   C     C_R   0.518758 0.410449 0.906333 -0.017988
C46   C     C_2   0.086819 0.716708 0.351270 0.279073
C47   C     C_2   0.125257 0.285435 0.651645 0.285336
C48   C     C_2   0.874682 0.712182 0.345667 0.281559
C49   C     C_R   0.483981 0.590152 0.093663 -0.015792
C50   C     C_R   0.468095 0.674754 0.952058 -0.075867
C51   C     C_R   0.533371 0.325643 0.047863 -0.074601
C52   C     C_R   0.473473 0.678119 0.044702 0.011019
Cu1   Cu    Cu3+1 0.597420 0.500010 0.499990 0.980100
Cu2   Cu    Cu3+1 0.402580 0.499990 0.500010 0.981079
H1    H     H_    0.456775 0.742116 0.915615 0.205178
H2    H     H_    0.312657 0.926022 0.385548 0.144287
H3    H     H_    0.419704 0.917355 0.313025 0.138960
H4    H     H_    0.325150 0.013079 0.299257 0.167869
H5    H     H_    0.690593 0.304854 0.832338 0.162652
H6    H     H_    0.692990 0.389608 0.740382 0.131425
H7    H     H_    0.686709 0.262976 0.719625 0.132699
H8    H     H_    0.312939 0.616228 0.263505 0.118870
H9    H     H_    0.315146 0.700157 0.170934 0.150662
H10   H     H_    0.323555 0.742447 0.283280 0.134670
H11   H     H_    0.588020 0.731319 0.807827 0.117116
H12   H     H_    0.544277 0.258226 0.084277 0.205606
H13   H     H_    0.527211 0.785403 0.711993 0.179537
H14   H     H_    0.594341 0.670165 0.700828 0.139399
H15   H     H_    0.468372 0.215598 0.287299 0.179627
H16   H     H_    0.410208 0.269447 0.190109 0.116181
H17   H     H_    0.402011 0.331455 0.296680 0.139702
H18   H     H_    0.519171 0.784252 0.146353 0.172621
H19   H     H_    0.486896 0.216296 0.852196 0.168567
H20   H     H_    0.853624 0.250641 0.628464 0.080830
H21   H     H_    0.148267 0.697231 0.308449 0.062794
H22   H     H_    0.185866 0.305383 0.692634 0.095231
H23   H     H_    0.739602 0.616216 0.411633 0.124304
H24   H     H_    0.809590 0.749821 0.373394 0.100208
H25   H     H_    0.260566 0.380138 0.584214 0.123691
H26   H     H_    0.760360 0.383295 0.587717 0.104403
H27   H     H_    0.239076 0.620445 0.416445 0.108830
H28   H     H_    0.580801 0.082844 0.686791 0.144074
H29   H     H_    0.687641 0.073822 0.614028 0.127715
H30   H     H_    0.675201 0.986958 0.700504 0.166567
N1    N     N_R   0.743820 0.499960 0.499930 -0.237524
N2    N     N_R   0.256180 0.500040 0.500070 -0.237878
O1    O     O_R   0.582280 0.500030 0.370250 -0.473279
O2    O     O_3   0.414403 0.027479 0.408046 -0.594560
O3    O     O_3   0.558389 0.332683 0.763365 -0.608892
O4    O     O_3   0.448631 0.668989 0.236931 -0.602498
O5    O     O_3   0.459638 0.672121 0.765200 -0.563688
O6    O     O_3   0.538220 0.327740 0.234748 -0.564522
O7    O     O_2   0.433425 0.846455 0.052566 -0.490829
O8    O     O_2   0.570615 0.154243 0.947468 -0.487919
O9    O     O_2   0.936196 0.275359 0.733911 -0.463153
O10   O     O_2   0.058448 0.801908 0.359314 -0.450749
O11   O     O_2   0.109394 0.200286 0.646479 -0.438070
O12   O     O_R   0.417720 0.499970 0.629750 -0.477401
O13   O     O_2   0.895872 0.728538 0.268727 -0.447696
O14   O     O_R   0.417740 0.500020 0.370270 -0.527433
O15   O     O_R   0.582260 0.499980 0.629730 -0.524528
O16   O     O_R   0.593900 0.362160 0.500010 -0.493120
O17   O     O_R   0.406100 0.637840 0.499990 -0.489436
O18   O     O_R   0.429360 0.362150 0.500030 -0.507330
O19   O     O_R   0.570640 0.637850 0.499970 -0.511553
O20   O     O_3   0.585608 0.972542 0.591947 -0.598823

loop_
_geom_bond_atom_site_label_1
_geom_bond_atom_site_label_2
_ccdc_geom_bond_type
C1    O1    A    
C43   H19   S    
C16   C21   S    
C23   C45   A    
C12   C29   S    
C27   C29   A    
C42   O7    D    
C14   C18   A    
C37   O2    S    
C18   C47   S    
C43   O8    D    
Cu1   Cu2   S    
C15   C19   A    
C39   H10   S    
C38   O3    S    
C11   C19   A    
C13   C18   A    
Cu2   O18   S    
C47   H22   S    
C3    N1    A    
C36   H29   S    
C17   C20   S    
C34   C35   A    
C48   H24   S    
C4    C13   A    
C48   O13   D    
C37   H2    S    
C16   O18   A    
C7    C14   A    
Cu1   O15   S    
C23   C33   A    
C40   H13   S    
C50   C52   A    
C31   C33   A    
C22   O2    S    
C9    C10   A    
C2    C43   S    
C39   O4    S    
C12   O12   A    
C37   H4    S    
C41   H17   S    
C38   H7    S    
C5    N1    A    
C49   C52   A    
C6    H27   S    
Cu2   O14   S    
Cu2   N2    S    
C1    O14   A    
C46   H21   S    
C2    C45   A    
C36   O20   S    
C32   C35   A    
Cu2   O17   S    
C24   C25   S    
C4    H25   S    
C36   H28   S    
C5    C7    A    
C19   C48   S    
C6    C8    A    
C33   C50   A    
C51   H12   S    
C17   O19   A    
C28   C49   A    
Cu1   O16   S    
C23   C34   A    
C42   H18   S    
C46   O10   D    
Cu1   O1    S    
C5    H26   S    
C44   H20   S    
C9    C11   A    
C38   H6    S    
C16   O16   A    
C8    C15   A    
C31   O5    S    
C40   H11   S    
C35   C51   A    
C22   C24   D    
C24   O20   S    
C3    H23   S    
C14   C44   S    
C7    C9    A    
C39   H8    S    
C21   C25   T    
C34   C49   A    
C10   C13   A    
C47   O11   D    
C28   O4    S    
C39   H9    S    
C50   H1    S    
C6    N2    A    
C28   C30   A    
C17   O17   A    
C12   O15   A    
C29   C31   A    
C44   O9    D    
C30   C32   A    
C27   C45   A    
C32   O6    S    
C20   C26   T    
C36   H30   S    
C1    C30   S    
C27   O3    S    
C40   O5    S    
C3    C11   A    
C2    C51   A    
C22   C26   S    
C38   H5    S    
Cu1   O19   S    
C41   O6    S    
C4    N2    A    
C8    C10   A    
C40   H14   S    
Cu2   O12   S    
Cu1   N1    S    
C15   C46   S    
C41   H15   S    
C37   H3    S    
C42   C52   S    
C41   H16   S    
