data_mof_unit_56150.cif
_audit_creation_date              2012-12-10T18:09:05-0500
_audit_creation_method            fapswitch 2.2
_symmetry_space_group_name_H-M    P1
_symmetry_Int_Tables_number       1
_space_group_crystal_system       triclinic
_cell_length_a                    12.572683
_cell_length_b                    13.187131
_cell_length_c                    13.665681
_cell_angle_alpha                 91.145161
_cell_angle_beta                  95.546324
_cell_angle_gamma                 97.44251
_cell_volume                      2234.9181916

loop_
_atom_site_label
_atom_site_type_symbol
_atom_type_description
_atom_site_fract_x
_atom_site_fract_y
_atom_site_fract_z
_atom_type_partial_charge
C1    C     C_R   0.558454 0.690681 0.522058 0.846192
C2    C     C_1   0.529435 0.489696 0.217688 -0.200938
C3    C     C_R   0.263389 0.054065 0.483342 0.157594
C4    C     C_R   0.404056 0.199097 0.484717 -0.093121
C5    C     C_R   0.703042 0.843415 0.555495 0.088559
C6    C     C_R   0.727598 0.941899 0.519816 0.424387
C7    C     C_R   0.645088 0.999930 0.493868 -0.259202
C8    C     C_R   0.537900 0.966773 0.514471 0.034755
C9    C     C_R   0.512802 0.866495 0.544288 -0.004165
C10   C     C_R   0.454905 0.029876 0.504396 0.025377
C11   C     C_R   0.344518 0.989762 0.510522 0.050806
C12   C     C_R   0.517640 0.496429 0.318435 0.891329
C13   C     C_R   0.323644 0.890841 0.548946 0.341057
C14   C     C_R   0.408426 0.834202 0.570465 -0.191773
C15   C     C_R   0.481849 0.134265 0.496067 -0.214257
C16   C     C_R   0.295448 0.158939 0.472667 -0.192515
C17   C     C_R   0.592886 0.800260 0.547606 -0.205792
C18   C     C_R   0.905850 0.397669 0.670678 0.014772
C19   C     C_R   0.212603 0.609543 0.369396 -0.001572
C20   C     C_R   0.115202 0.645680 0.344654 -0.271183
C21   C     C_R   0.028892 0.622116 0.401368 0.236644
C22   C     C_R   0.041522 0.555642 0.481953 -0.034635
C23   C     C_R   0.440347 0.308650 0.488383 0.931171
C24   C     C_R   0.146370 0.528199 0.509031 0.099780
C25   C     C_R   0.956572 0.509123 0.535268 -0.073920
C26   C     C_R   0.983105 0.466321 0.627908 -0.008946
C27   C     C_R   0.090577 0.483029 0.666667 0.111592
C28   C     C_R   0.165874 0.481579 0.600023 0.384737
C29   C     C_R   0.848284 0.494578 0.497331 -0.131727
C30   C     C_R   0.798431 0.392556 0.631194 0.499318
C31   C     C_R   0.482475 0.503513 0.681672 0.934545
C32   C     C_1   0.469263 0.503647 0.782428 -0.155624
C33   C     C_2   0.453960 0.499615 0.971116 0.155464
C34   C     C_2   0.540479 0.476604 0.028727 0.142873
C35   C     C_1   0.538254 0.482924 0.132208 -0.024778
C36   C     C_1   0.459131 0.502580 0.867911 -0.020611
H1    H     H_    0.391857 0.763510 0.608586 0.192186
H2    H     H_    0.820680 0.519950 0.426546 0.179874
H3    H     H_    0.279024 0.631082 0.326165 0.152375
H4    H     H_    0.108876 0.696138 0.283373 0.151101
H5    H     H_    0.235559 0.209776 0.455772 0.190756
H6    H     H_    0.565039 0.167588 0.505998 0.196233
H7    H     H_    0.667759 0.071237 0.459218 0.176608
N1    N     N_R   0.773270 0.445590 0.549770 -0.146803
N2    N     N_R   0.227520 0.553880 0.450750 -0.110276
O1    O     O_R   0.631100 0.627590 0.523760 -0.630803
O2    O     O_R   0.455900 0.662370 0.491970 -0.614181
O3    O     O_R   0.600200 0.480080 0.377830 -0.613000
O4    O     O_R   0.425000 0.514870 0.346040 -0.624730
O5    O     O_R   0.544100 0.337630 0.508030 -0.580057
O6    O     O_R   0.368900 0.372410 0.476240 -0.565297
O7    O     O_R   0.575000 0.485130 0.653960 -0.568804
O8    O     O_R   0.399800 0.519920 0.622170 -0.593075
Zn1   Zn    Zn3+2 0.616980 0.476780 0.521230 0.978979
Zn2   Zn    Zn3+2 0.383020 0.523220 0.478770 0.980078
C37   C     C_3   0.642581 0.449550 0.989619 -0.399140
C38   C     C_3   0.721000 0.545577 0.976360 -0.834422
H8    H     H_    0.683996 0.596111 0.922622 0.261099
H9    H     H_    0.743731 0.588215 0.047850 0.259400
H10   H     H_    0.795095 0.523619 0.948297 0.249993
H11   H     H_    0.682651 0.399473 0.041957 0.210085
H12   H     H_    0.624052 0.405294 0.918613 0.237733
Cl1   Cl    Cl    0.695226 0.316704 0.685437 -0.636343
C39   C     C_3   0.126025 0.511355 0.773591 -0.459736
C40   C     C_3   0.185452 0.620261 0.784453 -0.802937
H13   H     H_    0.263354 0.624917 0.751668 0.270782
H14   H     H_    0.135218 0.674556 0.747646 0.292468
H15   H     H_    0.201821 0.643445 0.863466 0.248518
H16   H     H_    0.055207 0.508730 0.816712 0.209232
H17   H     H_    0.179672 0.456918 0.804679 0.231898
C41   C     C_3   0.936834 0.318806 0.744845 -0.425662
C42   C     C_3   0.931506 0.213217 0.694724 -0.684859
H18   H     H_    0.848923 0.185198 0.660805 0.289693
H19   H     H_    0.987930 0.216558 0.636745 0.282779
H20   H     H_    0.955324 0.157474 0.749853 0.237642
H21   H     H_    0.019534 0.336843 0.780930 0.215941
H22   H     H_    0.883201 0.314926 0.805013 0.236049
C43   C     C_3   0.935760 0.684017 0.382372 -0.388651
C44   C     C_3   0.870912 0.655761 0.282712 -0.885074
H23   H     H_    0.918796 0.682818 0.221928 0.255103
H24   H     H_    0.848005 0.571782 0.272863 0.260231
H25   H     H_    0.796384 0.693078 0.277498 0.262327
H26   H     H_    0.882249 0.679088 0.441923 0.200367
H27   H     H_    0.968408 0.766238 0.383088 0.236047
Cl2   Cl    Cl    0.222199 0.367247 0.608982 -0.645281
C45   C     C_3   0.353344 0.529190 0.011161 -0.417514
C46   C     C_3   0.365748 0.643738 0.035929 -0.852391
H28   H     H_    0.432838 0.665104 0.094642 0.264935
H29   H     H_    0.382348 0.688179 0.969621 0.263760
H30   H     H_    0.290122 0.663783 0.062435 0.244470
H31   H     H_    0.282799 0.508896 0.955945 0.211401
H32   H     H_    0.334473 0.485639 0.077470 0.210583
Cl3   Cl    Cl    0.199158 0.835775 0.586115 -0.700228
C47   C     C_3   0.144873 0.016242 0.455439 -0.290885
C48   C     C_3   0.129342 0.945106 0.364217 -0.843551
H33   H     H_    0.170309 0.982878 0.303506 0.247776
H34   H     H_    0.162502 0.872602 0.380027 0.277722
H35   H     H_    0.042124 0.927638 0.339314 0.267758
H36   H     H_    0.105261 0.981018 0.517372 0.288981
H37   H     H_    0.099407 0.081390 0.436854 0.216353
C49   C     C_3   0.792426 0.792188 0.609386 -0.363002
C50   C     C_3   0.833867 0.848316 0.707391 -0.799518
H38   H     H_    0.869132 0.928312 0.696392 0.296706
H39   H     H_    0.766996 0.848924 0.754856 0.246040
H40   H     H_    0.897426 0.808296 0.745962 0.250466
H41   H     H_    0.765874 0.712631 0.628490 0.226317
H42   H     H_    0.860228 0.791040 0.563464 0.242592
Cl4   Cl    Cl    0.860583 0.994003 0.502526 -0.711410

loop_
_geom_bond_atom_site_label_1
_geom_bond_atom_site_label_2
_ccdc_geom_bond_type
C2    C35   T    
C49   H42   S    
C46   H28   S    
C34   C37   S    
C49   C50   S    
C19   C20   A    
C18   C26   A    
C31   O7    A    
C12   O3    A    
C2    C12   S    
C12   O4    A    
C48   H35   S    
C7    C8    A    
O3    Zn1   S    
C26   C27   A    
O5    Zn1   S    
C24   N2    A    
C32   C36   T    
C45   H31   S    
C5    C6    A    
C20   H4    S    
C1    O1    A    
C38   H9    S    
C5    C17   A    
C18   C41   S    
C33   C36   S    
C37   C38   S    
C50   H40   S    
C34   C35   S    
C43   H26   S    
C48   H33   S    
C8    C9    A    
C40   H14   S    
C22   C25   A    
C29   H2    S    
C18   C30   A    
C39   H17   S    
O6    Zn2   S    
C13   C14   A    
C30   N1    A    
C47   C48   S    
C42   H20   S    
C4    C16   A    
O7    Zn1   S    
O8    Zn2   S    
C25   C29   A    
C5    C49   S    
C42   H19   S    
C10   C11   A    
C44   H24   S    
C4    C23   S    
C43   C44   S    
C1    O2    A    
C23   O5    A    
C25   C26   A    
O4    Zn2   S    
C13   Cl3   S    
C21   C43   S    
C9    C14   A    
N1    Zn1   S    
C23   O6    A    
C31   C32   S    
C47   H37   S    
C40   H15   S    
O1    Zn1   S    
C48   H34   S    
C33   C34   D    
C39   H16   S    
C31   O8    A    
C50   H39   S    
C19   H3    S    
C9    C17   A    
C7    H7    S    
C46   H29   S    
C29   N1    A    
C22   C24   A    
C41   H22   S    
O2    Zn2   S    
C49   H41   S    
C45   C46   S    
C24   C28   A    
C15   H6    S    
C42   H18   S    
C38   H10   S    
C44   H25   S    
C19   N2    A    
C6    C7    A    
C1    C17   S    
C10   C15   A    
C39   C40   S    
C4    C15   A    
C41   C42   S    
C45   H32   S    
C14   H1    S    
C11   C13   A    
C38   H8    S    
C41   H21   S    
C47   H36   S    
C30   Cl1   S    
C3    C47   S    
C37   H12   S    
C50   H38   S    
C3    C11   A    
C27   C39   S    
C44   H23   S    
C43   H27   S    
C20   C21   A    
N2    Zn2   S    
C8    C10   A    
C40   H13   S    
C46   H30   S    
C28   Cl2   S    
C6    Cl4   S    
C37   H11   S    
C21   C22   A    
C16   H5    S    
C33   C45   S    
C3    C16   A    
C27   C28   A    
