data_mof_unit_63087.cif
_audit_creation_date              2012-12-10T20:16:10-0500
_audit_creation_method            fapswitch 2.2
_symmetry_space_group_name_H-M    P1
_symmetry_Int_Tables_number       1
_space_group_crystal_system       triclinic
_cell_length_a                    35.506692
_cell_length_b                    35.506692
_cell_length_c                    30.149427
_cell_angle_alpha                 90.000024
_cell_angle_beta                  90.000024
_cell_angle_gamma                 90.0
_cell_volume                      38010.1416845

loop_
_atom_site_label
_atom_site_type_symbol
_atom_type_description
_atom_site_fract_x
_atom_site_fract_y
_atom_site_fract_z
_atom_type_partial_charge
C1    C     C_R   0.000000 0.426496 0.500000 0.955963
C2    C     C_R   0.426496 0.000000 0.500000 0.955964
C3    C     C_R   0.000000 0.573504 0.500000 0.955963
C4    C     C_R   0.573504 0.000000 0.500000 0.955962
C5    C     C_R   0.500000 0.926496 0.000000 0.955963
C6    C     C_R   0.926496 0.500000 0.000000 0.955964
C7    C     C_R   0.500000 0.073504 1.000000 0.955963
C8    C     C_R   0.073504 0.500000 1.000000 0.955962
C9    C     C_R   0.000000 0.114342 0.500000 -0.281680
C10   C     C_R   0.114342 0.000000 0.500000 -0.281680
C11   C     C_R   0.000000 0.885658 0.500000 -0.281680
C12   C     C_R   0.885658 1.000000 0.500000 -0.281680
C13   C     C_R   0.500000 0.614342 0.000000 -0.281680
C14   C     C_R   0.614342 0.500000 0.000000 -0.281680
C15   C     C_R   0.500000 0.385658 1.000000 -0.281680
C16   C     C_R   0.385658 0.500000 1.000000 -0.281680
C17   C     C_R   1.000000 0.192855 0.500000 -0.257107
C18   C     C_R   0.192855 1.000000 0.500000 -0.257107
C19   C     C_R   0.000000 0.807145 0.500000 -0.257107
C20   C     C_R   0.807145 0.000000 0.500000 -0.257107
C21   C     C_R   0.500000 0.692855 0.000000 -0.257107
C22   C     C_R   0.692855 0.500000 1.000000 -0.257107
C23   C     C_R   0.500000 0.307145 0.000000 -0.257107
C24   C     C_R   0.307145 0.500000 1.000000 -0.257107
C25   C     C_1   1.000000 0.232923 0.500000 0.250803
C26   C     C_1   0.232923 1.000000 0.500000 0.250803
C27   C     C_1   0.000000 0.767077 0.500000 0.250803
C28   C     C_1   0.767076 0.000000 0.500000 0.250803
C29   C     C_1   0.500000 0.732923 0.000000 0.250803
C30   C     C_1   0.732923 0.500000 1.000000 0.250803
C31   C     C_1   0.500000 0.267076 0.000000 0.250803
C32   C     C_1   0.267076 0.500000 1.000000 0.250803
C33   C     C_1   1.000000 0.266557 0.500000 0.106458
C34   C     C_1   0.266557 1.000000 0.500000 0.106458
C35   C     C_1   0.000000 0.733443 0.500000 0.106458
C36   C     C_1   0.733443 0.000000 0.500000 0.106458
C37   C     C_1   0.500000 0.766557 0.000000 0.106458
C38   C     C_1   0.766557 0.500000 1.000000 0.106458
C39   C     C_1   0.500000 0.233443 0.000000 0.106458
C40   C     C_1   0.233443 0.500000 1.000000 0.106458
C41   C     C_R   0.032557 0.325960 0.512061 -0.183885
C42   C     C_R   0.325960 0.967443 0.512062 -0.183884
C43   C     C_R   0.967443 0.674040 0.512062 -0.183883
C44   C     C_R   0.674040 0.032557 0.512061 -0.183884
C45   C     C_R   0.032557 0.674040 0.487938 -0.183884
C46   C     C_R   0.325960 0.032557 0.487938 -0.183883
C47   C     C_R   0.967442 0.325960 0.487939 -0.183885
C48   C     C_R   0.674040 0.967443 0.487938 -0.183885
C49   C     C_R   0.532557 0.825960 0.012061 -0.183885
C50   C     C_R   0.825960 0.467443 0.012062 -0.183884
C51   C     C_R   0.467443 0.174040 0.012062 -0.183884
C52   C     C_R   0.174040 0.532557 0.012061 -0.183885
C53   C     C_R   0.532557 0.174040 0.987938 -0.183884
C54   C     C_R   0.825960 0.532557 0.987938 -0.183883
C55   C     C_R   0.467442 0.825960 0.987939 -0.183885
C56   C     C_R   0.174040 0.467443 0.987938 -0.183885
C57   C     C_R   0.032721 0.365134 0.512107 0.617328
C58   C     C_R   0.365134 0.967279 0.512108 0.617327
C59   C     C_R   0.967279 0.634866 0.512108 0.617327
C60   C     C_R   0.634866 0.032721 0.512107 0.617328
C61   C     C_R   0.032720 0.634866 0.487892 0.617327
C62   C     C_R   0.365134 0.032720 0.487892 0.617327
C63   C     C_R   0.967279 0.365134 0.487893 0.617329
C64   C     C_R   0.634866 0.967279 0.487893 0.617328
C65   C     C_R   0.532721 0.865134 0.012107 0.617328
C66   C     C_R   0.865134 0.467279 0.012108 0.617327
C67   C     C_R   0.467279 0.134866 0.012108 0.617328
C68   C     C_R   0.134866 0.532721 0.012107 0.617328
C69   C     C_R   0.532720 0.134866 0.987892 0.617327
C70   C     C_R   0.865134 0.532721 0.987892 0.617327
C71   C     C_R   0.467279 0.865134 0.987893 0.617329
C72   C     C_R   0.134866 0.467279 0.987893 0.617328
C73   C     C_R   0.000000 0.385157 0.500000 -0.334406
C74   C     C_R   0.385157 0.000000 0.500000 -0.334405
C75   C     C_R   0.000000 0.614843 0.500000 -0.334405
C76   C     C_R   0.614843 1.000000 0.500000 -0.334406
C77   C     C_R   0.500000 0.885157 0.000000 -0.334406
C78   C     C_R   0.885157 0.500000 1.000000 -0.334405
C79   C     C_R   0.500000 0.114843 0.000000 -0.334405
C80   C     C_R   0.114843 0.500000 1.000000 -0.334406
C81   C     C_R   1.000000 0.306553 0.500000 -0.094469
C82   C     C_R   0.306553 1.000000 0.500000 -0.094470
C83   C     C_R   0.000000 0.693447 0.500000 -0.094470
C84   C     C_R   0.693447 0.000000 0.500000 -0.094469
C85   C     C_R   0.500000 0.806553 0.000000 -0.094469
C86   C     C_R   0.806553 0.500000 1.000000 -0.094470
C87   C     C_R   0.500000 0.193447 0.000000 -0.094470
C88   C     C_R   0.193447 0.500000 1.000000 -0.094469
C89   C     C_R   0.073098 0.000000 0.500000 1.031698
C90   C     C_R   0.000000 0.926902 0.500000 1.031698
C91   C     C_R   0.926902 1.000000 0.500000 1.031698
C92   C     C_R   0.000000 0.073098 0.500000 1.031698
C93   C     C_R   0.573098 0.500000 0.000000 1.031698
C94   C     C_R   0.500000 0.426902 1.000000 1.031698
C95   C     C_R   0.426902 0.500000 1.000000 1.031698
C96   C     C_R   0.500000 0.573098 0.000000 1.031698
C97   C     C_R   1.000000 0.500000 0.413226 0.975261
C98   C     C_R   0.500000 1.000000 0.413226 0.975260
C99   C     C_R   0.000000 0.500000 0.586773 0.975259
C100  C     C_R   0.500000 0.000000 0.586773 0.975260
C101  C     C_R   0.500000 0.000000 0.913226 0.975261
C102  C     C_R   0.000000 0.500000 0.913226 0.975260
C103  C     C_R   0.500000 1.000000 0.086774 0.975259
C104  C     C_R   1.000000 0.500000 0.086774 0.975260
C105  C     C_R   0.023827 0.475324 0.157218 0.635446
C106  C     C_R   0.475324 0.976173 0.157218 0.635446
C107  C     C_R   0.976173 0.524676 0.157218 0.635447
C108  C     C_R   0.524676 0.023827 0.157218 0.635448
C109  C     C_R   0.023827 0.524676 0.842782 0.635446
C110  C     C_R   0.475324 0.023827 0.842782 0.635447
C111  C     C_R   0.976173 0.475324 0.842782 0.635448
C112  C     C_R   0.524676 0.976173 0.842782 0.635446
C113  C     C_R   0.523827 0.975324 0.657218 0.635446
C114  C     C_R   0.975324 0.476173 0.657218 0.635446
C115  C     C_R   0.476173 0.024676 0.657218 0.635447
C116  C     C_R   0.024676 0.523827 0.657218 0.635448
C117  C     C_R   0.523827 0.024676 0.342782 0.635446
C118  C     C_R   0.975324 0.523827 0.342782 0.635447
C119  C     C_R   0.476173 0.975324 0.342782 0.635448
C120  C     C_R   0.024676 0.476173 0.342782 0.635446
C121  C     C_R   0.000000 0.500000 0.134568 -0.376375
C122  C     C_R   0.500000 1.000000 0.134568 -0.376375
C123  C     C_R   0.000000 0.500000 0.865432 -0.376375
C124  C     C_R   0.500000 1.000000 0.865432 -0.376375
C125  C     C_R   0.500000 1.000000 0.634568 -0.376375
C126  C     C_R   1.000000 0.500000 0.634568 -0.376375
C127  C     C_R   0.500000 1.000000 0.365432 -0.376375
C128  C     C_R   1.000000 0.500000 0.365432 -0.376375
C129  C     C_R   0.975709 0.524726 0.203484 -0.210179
C130  C     C_R   0.524726 0.024291 0.203484 -0.210179
C131  C     C_R   0.024291 0.475273 0.203484 -0.210178
C132  C     C_R   0.475273 0.975709 0.203484 -0.210178
C133  C     C_R   0.975709 0.475273 0.796516 -0.210179
C134  C     C_R   0.524726 0.975709 0.796516 -0.210178
C135  C     C_R   0.024291 0.524726 0.796516 -0.210177
C136  C     C_R   0.475273 0.024291 0.796516 -0.210179
C137  C     C_R   0.475709 0.024726 0.703483 -0.210179
C138  C     C_R   0.024726 0.524291 0.703483 -0.210179
C139  C     C_R   0.524291 0.975273 0.703483 -0.210178
C140  C     C_R   0.975273 0.475709 0.703483 -0.210178
C141  C     C_R   0.475709 0.975273 0.296516 -0.210179
C142  C     C_R   0.024726 0.475709 0.296516 -0.210178
C143  C     C_R   0.524291 0.024726 0.296516 -0.210177
C144  C     C_R   0.975273 0.524291 0.296516 -0.210179
C145  C     C_R   0.000000 0.500000 0.226737 -0.169314
C146  C     C_R   0.500000 0.000000 0.226737 -0.169315
C147  C     C_R   0.000000 0.500000 0.773263 -0.169315
C148  C     C_R   0.500000 1.000000 0.773263 -0.169314
C149  C     C_R   0.500000 0.000000 0.726737 -0.169314
C150  C     C_R   0.000000 0.500000 0.726737 -0.169315
C151  C     C_R   0.500000 0.000000 0.273263 -0.169315
C152  C     C_R   0.000000 0.500000 0.273263 -0.169314
C153  C     C_R   0.951479 0.548830 0.226968 0.620743
C154  C     C_R   0.548830 0.048521 0.226968 0.620744
C155  C     C_R   0.048521 0.451169 0.226968 0.620742
C156  C     C_R   0.451170 0.951479 0.226968 0.620741
C157  C     C_R   0.951479 0.451169 0.773032 0.620744
C158  C     C_R   0.548830 0.951479 0.773032 0.620742
C159  C     C_R   0.048521 0.548830 0.773032 0.620741
C160  C     C_R   0.451169 0.048521 0.773032 0.620743
C161  C     C_R   0.451479 0.048830 0.726968 0.620743
C162  C     C_R   0.048830 0.548521 0.726968 0.620744
C163  C     C_R   0.548521 0.951169 0.726968 0.620742
C164  C     C_R   0.951169 0.451479 0.726968 0.620741
C165  C     C_R   0.451479 0.951169 0.273032 0.620744
C166  C     C_R   0.048830 0.451479 0.273032 0.620742
C167  C     C_R   0.548521 0.048830 0.273032 0.620741
C168  C     C_R   0.951169 0.548521 0.273032 0.620743
C169  C     C_R   0.021001 0.173532 0.531816 0.506250
C170  C     C_R   0.173532 0.978999 0.531816 0.506251
C171  C     C_R   0.978999 0.826468 0.531816 0.506251
C172  C     C_R   0.826468 0.021001 0.531815 0.506252
C173  C     C_R   0.021001 0.826468 0.468184 0.506251
C174  C     C_R   0.173532 0.021001 0.468184 0.506252
C175  C     C_R   0.978999 0.173532 0.468184 0.506252
C176  C     C_R   0.826468 0.978999 0.468184 0.506250
C177  C     C_R   0.521001 0.673532 0.031816 0.506250
C178  C     C_R   0.673532 0.478999 0.031816 0.506251
C179  C     C_R   0.478999 0.326468 0.031816 0.506251
C180  C     C_R   0.326468 0.521001 0.031815 0.506252
C181  C     C_R   0.521001 0.326468 0.968184 0.506252
C182  C     C_R   0.673532 0.521001 0.968184 0.506252
C183  C     C_R   0.478999 0.673532 0.968184 0.506252
C184  C     C_R   0.326468 0.478999 0.968184 0.506251
C185  C     C_R   0.021244 0.133991 0.532081 0.287888
C186  C     C_R   0.133991 0.978756 0.532081 0.287889
C187  C     C_R   0.978756 0.866009 0.532081 0.287889
C188  C     C_R   0.866008 0.021244 0.532081 0.287888
C189  C     C_R   0.021244 0.866008 0.467919 0.287888
C190  C     C_R   0.133991 0.021244 0.467919 0.287888
C191  C     C_R   0.978756 0.133991 0.467919 0.287888
C192  C     C_R   0.866009 0.978756 0.467919 0.287888
C193  C     C_R   0.521244 0.633991 0.032081 0.287888
C194  C     C_R   0.633991 0.478756 0.032081 0.287888
C195  C     C_R   0.478756 0.366009 0.032081 0.287889
C196  C     C_R   0.366008 0.521244 0.032081 0.287888
C197  C     C_R   0.521244 0.366009 0.967919 0.287888
C198  C     C_R   0.633991 0.521244 0.967919 0.287888
C199  C     C_R   0.478756 0.633991 0.967919 0.287888
C200  C     C_R   0.366009 0.478756 0.967919 0.287888
H1    H     H_    0.057784 0.310769 0.521538 0.210646
H2    H     H_    0.310769 0.942216 0.521539 0.210646
H3    H     H_    0.942216 0.689231 0.521539 0.210646
H4    H     H_    0.689231 0.057784 0.521537 0.210646
H5    H     H_    0.057783 0.689231 0.478461 0.210646
H6    H     H_    0.310769 0.057784 0.478461 0.210646
H7    H     H_    0.942216 0.310769 0.478463 0.210646
H8    H     H_    0.689231 0.942216 0.478462 0.210646
H9    H     H_    0.557784 0.810769 0.021538 0.210646
H10   H     H_    0.810769 0.442216 0.021539 0.210646
H11   H     H_    0.442216 0.189231 0.021539 0.210646
H12   H     H_    0.189231 0.557784 0.021537 0.210646
H13   H     H_    0.557783 0.189231 0.978461 0.210646
H14   H     H_    0.810769 0.557783 0.978461 0.210646
H15   H     H_    0.442216 0.810769 0.978463 0.210646
H16   H     H_    0.189231 0.442216 0.978462 0.210646
O1    O     O_R   0.968680 0.444530 0.500050 -0.558645
O2    O     O_R   0.444530 0.031320 0.500050 -0.558646
O3    O     O_R   0.031320 0.555470 0.500050 -0.558646
O4    O     O_R   0.555470 0.968680 0.500050 -0.558645
O5    O     O_R   0.968680 0.555470 0.499950 -0.558646
O6    O     O_R   0.444530 0.968680 0.499950 -0.558645
O7    O     O_R   0.031320 0.444530 0.499950 -0.558646
O8    O     O_R   0.555470 0.031320 0.499950 -0.558646
O9    O     O_R   0.468680 0.944530 0.000050 -0.558645
O10   O     O_R   0.944530 0.531320 0.000050 -0.558646
O11   O     O_R   0.531320 0.055470 0.000050 -0.558646
O12   O     O_R   0.055470 0.468680 0.000050 -0.558645
O13   O     O_R   0.468680 0.055470 0.999950 -0.558646
O14   O     O_R   0.944530 0.468680 0.999950 -0.558645
O15   O     O_R   0.531320 0.944530 0.999950 -0.558646
O16   O     O_R   0.055470 0.531320 0.999950 -0.558646
O17   O     O_R   0.968670 0.499990 0.433970 -0.576860
O18   O     O_R   0.499990 0.031330 0.433970 -0.576860
O19   O     O_R   0.031330 0.500010 0.433970 -0.576860
O20   O     O_R   0.500010 0.968670 0.433970 -0.576860
O21   O     O_R   0.968670 0.500010 0.566030 -0.576860
O22   O     O_R   0.499990 0.968670 0.566030 -0.576860
O23   O     O_R   0.031330 0.499990 0.566030 -0.576861
O24   O     O_R   0.500010 0.031330 0.566030 -0.576861
O25   O     O_R   0.468670 0.999990 0.933970 -0.576860
O26   O     O_R   0.999990 0.531330 0.933970 -0.576860
O27   O     O_R   0.531330 0.000010 0.933970 -0.576860
O28   O     O_R   0.000010 0.468670 0.933970 -0.576860
O29   O     O_R   0.468670 0.000010 0.066030 -0.576860
O30   O     O_R   0.999990 0.468670 0.066030 -0.576860
O31   O     O_R   0.531330 0.999990 0.066030 -0.576861
O32   O     O_R   0.000010 0.531330 0.066030 -0.576861
O33   O     O_R   0.055290 0.999950 0.462720 -0.578438
O34   O     O_R   0.999950 0.944710 0.462720 -0.578438
O35   O     O_R   0.944710 0.000050 0.462720 -0.578438
O36   O     O_R   0.000050 0.055290 0.462720 -0.578438
O37   O     O_R   0.055290 0.000050 0.537280 -0.578439
O38   O     O_R   0.999950 0.055290 0.537280 -0.578439
O39   O     O_R   0.944710 0.999950 0.537280 -0.578439
O40   O     O_R   0.000050 0.944710 0.537280 -0.578439
O41   O     O_R   0.555290 0.499950 0.962720 -0.578438
O42   O     O_R   0.499950 0.444710 0.962720 -0.578438
O43   O     O_R   0.444710 0.500050 0.962720 -0.578438
O44   O     O_R   0.500050 0.555290 0.962720 -0.578438
O45   O     O_R   0.555290 0.500050 0.037280 -0.578439
O46   O     O_R   0.499950 0.555290 0.037280 -0.578439
O47   O     O_R   0.444710 0.499950 0.037280 -0.578439
O48   O     O_R   0.500050 0.444710 0.037280 -0.578439
Zn1   Zn    Zn3+2 0.958180 0.500000 0.500000 1.216159
Zn2   Zn    Zn3+2 0.500000 0.041820 0.500000 1.216159
Zn3   Zn    Zn3+2 0.041820 0.500000 0.500000 1.216159
Zn4   Zn    Zn3+2 0.500000 0.958180 0.500000 1.216159
Zn5   Zn    Zn3+2 0.458180 0.000000 0.000000 1.216159
Zn6   Zn    Zn3+2 0.000000 0.541820 0.000000 1.216159
Zn7   Zn    Zn3+2 0.541820 0.000000 0.000000 1.216159
Zn8   Zn    Zn3+2 0.000000 0.458180 0.000000 1.216159
Zn9   Zn    Zn3+2 0.000000 0.000000 0.450220 1.156754
Zn10  Zn    Zn3+2 0.000000 0.000000 0.549780 1.156753
Zn11  Zn    Zn3+2 0.500000 0.500000 0.950220 1.156754
Zn12  Zn    Zn3+2 0.500000 0.500000 0.049780 1.156753
F1    F     F_    0.047116 0.452259 0.133841 -0.559961
F2    F     F_    0.452259 0.952884 0.133841 -0.559961
F3    F     F_    0.952884 0.547741 0.133841 -0.559962
F4    F     F_    0.547741 0.047116 0.133841 -0.559962
F5    F     F_    0.047116 0.547741 0.866159 -0.559961
F6    F     F_    0.452258 0.047116 0.866159 -0.559962
F7    F     F_    0.952884 0.452258 0.866159 -0.559962
F8    F     F_    0.547741 0.952884 0.866159 -0.559961
F9    F     F_    0.547116 0.952258 0.633841 -0.559961
F10   F     F_    0.952258 0.452884 0.633841 -0.559961
F11   F     F_    0.452884 0.047741 0.633841 -0.559962
F12   F     F_    0.047741 0.547116 0.633841 -0.559962
F13   F     F_    0.547116 0.047741 0.366159 -0.559961
F14   F     F_    0.952258 0.547116 0.366159 -0.559962
F15   F     F_    0.452884 0.952258 0.366159 -0.559962
F16   F     F_    0.047741 0.452884 0.366159 -0.559961
F17   F     F_    0.927833 0.572811 0.205592 -0.514957
F18   F     F_    0.572811 0.072167 0.205592 -0.514957
F19   F     F_    0.072167 0.427189 0.205592 -0.514956
F20   F     F_    0.427189 0.927833 0.205592 -0.514957
F21   F     F_    0.927833 0.427189 0.794408 -0.514957
F22   F     F_    0.572811 0.927833 0.794408 -0.514956
F23   F     F_    0.072167 0.572811 0.794408 -0.514957
F24   F     F_    0.427189 0.072167 0.794408 -0.514957
F25   F     F_    0.427833 0.072811 0.705592 -0.514957
F26   F     F_    0.072811 0.572167 0.705592 -0.514957
F27   F     F_    0.572167 0.927189 0.705592 -0.514956
F28   F     F_    0.927189 0.427833 0.705592 -0.514957
F29   F     F_    0.427833 0.927189 0.294408 -0.514957
F30   F     F_    0.072811 0.427833 0.294408 -0.514956
F31   F     F_    0.572167 0.072811 0.294408 -0.514957
F32   F     F_    0.927189 0.572167 0.294408 -0.514957
F33   F     F_    0.041270 0.193260 0.562230 -0.617660
F34   F     F_    0.193260 0.958730 0.562229 -0.617661
F35   F     F_    0.958730 0.806740 0.562229 -0.617661
F36   F     F_    0.806740 0.041270 0.562229 -0.617661
F37   F     F_    0.041269 0.806740 0.437770 -0.617661
F38   F     F_    0.193260 0.041269 0.437770 -0.617662
F39   F     F_    0.958730 0.193260 0.437771 -0.617661
F40   F     F_    0.806740 0.958730 0.437770 -0.617660
F41   F     F_    0.541270 0.693260 0.062230 -0.617660
F42   F     F_    0.693260 0.458730 0.062229 -0.617661
F43   F     F_    0.458730 0.306740 0.062229 -0.617661
F44   F     F_    0.306740 0.541270 0.062229 -0.617661
F45   F     F_    0.541269 0.306740 0.937770 -0.617661
F46   F     F_    0.693260 0.541269 0.937770 -0.617662
F47   F     F_    0.458730 0.693260 0.937771 -0.617661
F48   F     F_    0.306740 0.458730 0.937770 -0.617661
O49   O     O_3   0.042512 0.113902 0.562383 -0.694027
H17   H     H_    0.055834 0.131538 0.582421 0.405436
O50   O     O_3   0.113902 0.957488 0.562383 -0.694027
H18   H     H_    0.131538 0.944166 0.582421 0.405436
O51   O     O_3   0.957488 0.886098 0.562383 -0.694027
H19   H     H_    0.944166 0.868462 0.582421 0.405435
O52   O     O_3   0.886098 0.042512 0.562382 -0.694027
H20   H     H_    0.868462 0.055834 0.582421 0.405436
O53   O     O_3   0.042512 0.886098 0.437617 -0.694027
H21   H     H_    0.055834 0.868462 0.417578 0.405436
O54   O     O_3   0.113902 0.042512 0.437617 -0.694027
H22   H     H_    0.131538 0.055834 0.417578 0.405435
O55   O     O_3   0.957488 0.113902 0.437617 -0.694027
H23   H     H_    0.944166 0.131538 0.417579 0.405436
O56   O     O_3   0.886098 0.957488 0.437617 -0.694027
H24   H     H_    0.868462 0.944166 0.417579 0.405436
O57   O     O_3   0.542512 0.613902 0.062382 -0.694027
H25   H     H_    0.555834 0.631538 0.082421 0.405436
O58   O     O_3   0.613902 0.457488 0.062383 -0.694027
H26   H     H_    0.631538 0.444166 0.082421 0.405436
O59   O     O_3   0.457488 0.386098 0.062383 -0.694027
H27   H     H_    0.444166 0.368462 0.082421 0.405435
O60   O     O_3   0.386098 0.542512 0.062382 -0.694027
H28   H     H_    0.368462 0.555834 0.082421 0.405436
O61   O     O_3   0.542512 0.386098 0.937617 -0.694027
H29   H     H_    0.555834 0.368462 0.917578 0.405436
O62   O     O_3   0.613902 0.542512 0.937617 -0.694027
H30   H     H_    0.631538 0.555834 0.917578 0.405435
O63   O     O_3   0.457488 0.613902 0.937617 -0.694027
H31   H     H_    0.444166 0.631538 0.917579 0.405436
O64   O     O_3   0.386098 0.457488 0.937617 -0.694027
H32   H     H_    0.368462 0.444166 0.917579 0.405435
F49   F     F_    0.064668 0.383234 0.524675 -0.589807
F50   F     F_    0.383234 0.935332 0.524676 -0.589808
F51   F     F_    0.935333 0.616766 0.524676 -0.589808
F52   F     F_    0.616766 0.064668 0.524674 -0.589807
F53   F     F_    0.064667 0.616766 0.475324 -0.589808
F54   F     F_    0.383234 0.064667 0.475324 -0.589808
F55   F     F_    0.935332 0.383234 0.475325 -0.589807
F56   F     F_    0.616766 0.935332 0.475325 -0.589807
F57   F     F_    0.564668 0.883234 0.024674 -0.589807
F58   F     F_    0.883234 0.435333 0.024676 -0.589808
F59   F     F_    0.435333 0.116766 0.024676 -0.589808
F60   F     F_    0.116766 0.564668 0.024674 -0.589807
F61   F     F_    0.564667 0.116766 0.975324 -0.589808
F62   F     F_    0.883234 0.564667 0.975324 -0.589808
F63   F     F_    0.435332 0.883234 0.975325 -0.589807
F64   F     F_    0.116766 0.435332 0.975325 -0.589807

loop_
_geom_bond_atom_site_label_1
_geom_bond_atom_site_label_2
_ccdc_geom_bond_type
C94   O48   A    
C193  O57   S    
C24   C184  A    
C12   C91   S    
C39   C87   S    
C107  C129  A    
C53   C69   A    
C42   C58   A    
O55   H23   S    
O38   Zn10  S    
C105  C131  A    
C179  C195  A    
O53   H21   S    
C106  C132  A    
C90   O34   A    
C177  C193  A    
C46   C62   A    
C67   F59   S    
C112  C124  A    
O30   Zn8   S    
C7    O13   A    
C15   C197  A    
C130  C146  A    
C97   O19   A    
C30   C38   T    
O21   Zn1   S    
C119  F15   S    
C113  F9    S    
O44   Zn11  S    
O13   Zn5   S    
C115  F11   S    
C56   C72   A    
C5    O15   A    
C106  F2    S    
C161  F25   S    
C23   C179  A    
C180  C196  A    
C21   C177  A    
C14   C194  A    
C199  O63   S    
O40   Zn10  S    
C18   C170  A    
C12   C192  A    
O41   Zn11  S    
C65   C77   A    
O24   Zn2   S    
C147  C150  A    
C67   C79   A    
C13   C96   S    
C27   C35   T    
C21   C29   S    
C60   C76   A    
C103  O31   A    
C189  O53   S    
C23   C31   S    
C24   C32   S    
C181  F45   S    
C187  O51   S    
O64   H32   S    
C54   C70   A    
C48   H8    S    
C138  C162  A    
C174  F38   S    
C93   O41   A    
C98   C127  S    
C20   C172  A    
C153  C168  A    
C119  C141  A    
C154  C167  A    
C102  O28   A    
C5    C77   S    
C102  C123  S    
C7    C79   S    
C54   H14   S    
C90   O40   A    
C154  F18   S    
C96   O46   A    
O28   Zn8   S    
C114  F10   S    
C112  C134  A    
C1    O7    A    
C17   C25   S    
C40   C88   S    
O22   Zn4   S    
C132  C146  A    
C4    O8    A    
O10   Zn6   S    
C137  C161  A    
C7    O11   A    
O2    Zn2   S    
C5    O9    A    
C47   C81   A    
O5    Zn1   S    
O54   H22   S    
C98   O20   A    
C2    O2    A    
C157  F21   S    
C9    C191  A    
C55   C71   A    
C17   C175  A    
O61   H29   S    
C182  F46   S    
C109  C135  A    
C43   C83   A    
C110  C136  A    
O62   H30   S    
C181  C197  A    
C15   C94   S    
C8    O12   A    
C65   F57   S    
O48   Zn12  S    
C91   O39   A    
C38   C86   S    
C164  F28   S    
O37   Zn10  S    
C55   H15   S    
C114  C126  A    
C6    C78   S    
C175  F39   S    
C112  F8    S    
C57   C73   A    
C46   C82   A    
C115  C137  A    
C10   C89   S    
C184  C200  A    
C200  O64   S    
C24   C180  A    
C167  F31   S    
C113  C139  A    
C100  O22   A    
C133  C147  A    
C114  C140  A    
C3    C75   S    
C72   F64   S    
C14   C93   S    
C108  C130  A    
C16   C200  A    
C43   C59   A    
C185  O49   S    
C97   O17   A    
C45   C83   A    
C159  F23   S    
C97   C128  S    
C9    C92   S    
C99   C126  S    
C92   O36   A    
O19   Zn3   S    
C101  C124  S    
O39   Zn10  S    
C52   C88   A    
C130  C154  A    
O12   Zn8   S    
C64   F56   S    
C54   C86   A    
C109  C123  A    
C104  O32   A    
C162  F26   S    
C142  C166  A    
C98   O18   A    
C106  C122  A    
C53   C87   A    
C51   C67   A    
C157  C164  A    
C143  C167  A    
C136  C148  A    
C158  C163  A    
C18   C174  A    
C3    O3    A    
C134  C158  A    
C135  C147  A    
C6    O14   A    
C69   C79   A    
C49   H9    S    
C71   C77   A    
C57   F49   S    
C58   C74   A    
C52   H12   S    
C180  F44   S    
C46   H6    S    
C53   H13   S    
C143  C151  A    
C22   C30   S    
C117  F13   S    
C184  F48   S    
C111  F7    S    
C118  F14   S    
C110  F6    S    
C140  C164  A    
C165  F29   S    
C172  F36   S    
C104  O30   A    
C139  C163  A    
C99   O23   A    
C144  C152  A    
C129  C153  A    
C169  F33   S    
C94   O42   A    
C95   O47   A    
C10   C186  A    
O25   Zn5   S    
C100  O24   A    
C133  C157  A    
C56   H16   S    
C145  C152  A    
C42   H2    S    
O17   Zn1   S    
C146  C151  A    
C136  C160  A    
O32   Zn6   S    
C50   H10   S    
C44   H4    S    
C34   C82   S    
C25   C33   T    
C92   O38   A    
C59   C75   A    
C188  O52   S    
C18   C26   S    
C93   O45   A    
O63   H31   S    
C71   F63   S    
O45   Zn12  S    
C91   O35   A    
C178  C194  A    
C89   O33   A    
O3    Zn3   S    
C23   C181  A    
C47   C63   A    
C48   C64   A    
C63   F55   S    
C2    O6    A    
C142  C152  A    
C158  F22   S    
C110  C124  A    
C4    O4    A    
C182  C198  A    
C134  C148  A    
O43   Zn11  S    
C13   C199  A    
C15   C195  A    
C3    O5    A    
C13   C193  A    
C191  O55   S    
C66   C78   A    
C186  O50   S    
C111  C123  A    
C135  C159  A    
O60   H28   S    
C35   C83   S    
C63   C73   A    
C139  C149  A    
C61   C75   A    
C155  F19   S    
C11   C189  A    
C55   C85   A    
O52   H20   S    
C19   C173  A    
C16   C196  A    
O31   Zn7   S    
O56   H24   S    
C96   O44   A    
C41   C81   A    
C170  C186  A    
C159  C162  A    
O23   Zn3   S    
C103  O29   A    
C117  C127  A    
C69   F61   S    
C174  C190  A    
O1    Zn1   S    
O16   Zn6   S    
C177  F41   S    
C120  F16   S    
C41   H1    S    
C190  O54   S    
C179  F43   S    
C68   F60   S    
C45   H5    S    
O42   Zn11  S    
C141  C165  A    
C44   C84   A    
C120  C128  A    
C192  O56   S    
C47   H7    S    
C20   C28   S    
C118  C144  A    
C1    C73   S    
C131  C155  A    
C41   C57   A    
O50   H18   S    
O8    Zn2   S    
C156  C165  A    
C44   C60   A    
C6    O10   A    
C45   C61   A    
O49   H17   S    
O27   Zn7   S    
C176  C192  A    
C169  C185  A    
C99   O21   A    
C28   C36   T    
C72   C80   A    
C29   C37   T    
C61   F53   S    
O20   Zn4   S    
C62   C74   A    
C1    O1    A    
C103  C122  S    
C172  C188  A    
C68   C80   A    
C183  F47   S    
O58   H26   S    
C166  F30   S    
C70   C78   A    
C105  F1    S    
O51   H19   S    
C42   C82   A    
C22   C178  A    
C107  F3    S    
C198  O62   S    
C20   C176  A    
O57   H25   S    
C138  C150  A    
C95   O43   A    
C14   C198  A    
C10   C190  A    
C49   C65   A    
C144  C168  A    
C11   C187  A    
O26   Zn6   S    
C37   C85   S    
C117  C143  A    
C19   C171  A    
C9    C185  A    
C175  C191  A    
C17   C169  A    
O18   Zn2   S    
C113  C125  A    
C155  C166  A    
C12   C188  A    
O6    Zn4   S    
O34   Zn9   S    
C171  F35   S    
C132  C156  A    
C26   C34   T    
C56   C88   A    
C131  C145  A    
C62   F54   S    
C19   C27   S    
C109  F5    S    
O7    Zn3   S    
C2    C74   S    
C163  F27   S    
C116  C126  A    
C173  F37   S    
C118  C128  A    
C101  O27   A    
C197  O61   S    
C156  F20   S    
C100  C125  S    
C49   C85   A    
C195  O59   S    
C196  O60   S    
C120  C142  A    
C148  C149  A    
C51   C87   A    
C111  C133  A    
C104  C121  S    
C153  F17   S    
C60   F52   S    
C183  C199  A    
C48   C84   A    
O15   Zn7   S    
O29   Zn5   S    
O9    Zn5   S    
C64   C76   A    
C105  C121  A    
C50   C66   A    
C102  O26   A    
C22   C182  A    
O11   Zn7   S    
C137  C149  A    
C176  F40   S    
C43   H3    S    
O33   Zn9   S    
O4    Zn4   S    
C116  C138  A    
C140  C150  A    
C101  O25   A    
C141  C151  A    
C8    C80   S    
O36   Zn9   S    
C194  O58   S    
C21   C183  A    
C16   C95   S    
C168  F32   S    
O35   Zn9   S    
C108  C122  A    
C52   C68   A    
C58   F50   S    
O46   Zn12  S    
C115  C125  A    
C171  C187  A    
C160  C161  A    
C160  F24   S    
C59   F51   S    
C8    O16   A    
C11   C90   S    
O14   Zn8   S    
C36   C84   S    
C173  C189  A    
C31   C39   T    
C116  F12   S    
C129  C145  A    
C32   C40   T    
C178  F42   S    
C4    C76   S    
C50   C86   A    
C51   H11   S    
C66   F58   S    
O47   Zn12  S    
C70   F62   S    
C170  F34   S    
C107  C121  A    
C89   O37   A    
O59   H27   S    
C108  F4    S    
C33   C81   S    
C119  C127  A    
