data_mof_unit_62070.cif
_audit_creation_date              2012-12-10T21:26:40-0500
_audit_creation_method            fapswitch 2.2
_symmetry_space_group_name_H-M    P1
_symmetry_Int_Tables_number       1
_space_group_crystal_system       triclinic
_cell_length_a                    10.714197
_cell_length_b                    16.157596
_cell_length_c                    16.708876
_cell_angle_alpha                 88.816268
_cell_angle_beta                  91.590333
_cell_angle_gamma                 94.03331
_cell_volume                      2883.78523881

loop_
_atom_site_label
_atom_site_type_symbol
_atom_type_description
_atom_site_fract_x
_atom_site_fract_y
_atom_site_fract_z
_atom_type_partial_charge
C1    C     C_R   0.503673 0.489782 0.653432 0.886163
C2    C     C_R   0.576928 0.557512 0.778455 -0.221294
C3    C     C_R   0.609791 0.555056 0.859041 0.181355
C4    C     C_R   0.587136 0.480487 0.903006 0.262810
C5    C     C_R   0.545684 0.407630 0.863740 -0.168568
C6    C     C_R   0.517434 0.409887 0.781976 -0.169809
C7    C     C_R   0.424233 0.471795 0.127923 0.163815
C8    C     C_R   0.418349 0.464155 0.211456 0.054351
C9    C     C_R   0.510610 0.530686 0.094123 0.143446
C10   C     C_R   0.498719 0.516852 0.259650 -0.282354
C11   C     C_R   0.581052 0.577481 0.224170 0.610104
C12   C     C_R   0.737636 0.501099 0.502877 0.953086
C13   C     C_R   0.586535 0.584211 0.141636 -0.242123
C14   C     C_R   0.430518 0.757995 0.463878 0.594746
C15   C     C_R   0.430639 0.845392 0.463714 0.424275
C16   C     C_R   0.520006 0.892172 0.511277 -0.042843
C17   C     C_R   0.605983 0.848697 0.556932 0.485035
C18   C     C_R   0.603150 0.761636 0.555595 0.068504
C19   C     C_R   0.563623 0.151026 0.527018 -0.329670
C20   C     C_R   0.571107 0.238223 0.530224 0.757425
C21   C     C_R   0.465637 0.108656 0.482510 0.233866
C22   C     C_R   0.388937 0.243531 0.447730 -0.091902
C23   C     C_R   0.498207 0.510330 0.346633 0.979508
C24   C     C_R   0.378121 0.156623 0.442827 -0.229534
C25   C     C_R   0.261859 0.499109 0.494724 0.886003
C26   C     C_2   0.071374 0.566702 0.479755 -0.164911
C27   C     C_2   0.130290 0.496501 0.475853 0.009901
C28   C     C_2   0.937180 0.565726 0.474158 -0.110115
C29   C     C_2   0.869620 0.504994 0.511159 -0.269052
C30   C     C_R   0.529401 0.485571 0.739487 -0.084977
H1    H     H_    0.121438 0.626040 0.492293 0.212677
H2    H     H_    0.652011 0.629825 0.114417 0.217005
H3    H     H_    0.589323 0.616087 0.746528 0.205626
H4    H     H_    0.633706 0.117490 0.559332 0.218299
H5    H     H_    0.319520 0.279436 0.418034 0.205885
H6    H     H_    0.301070 0.126745 0.408503 0.209094
H7    H     H_    0.894153 0.616296 0.442461 0.213825
H8    H     H_    0.911690 0.457236 0.547354 0.185024
H9    H     H_    0.528773 0.350121 0.897414 0.183656
H10   H     H_    0.483349 0.353255 0.752604 0.189106
N1    N     N_2   0.585444 0.479744 0.986997 -0.139387
N2    N     N_2   0.522254 0.535493 0.011200 -0.113567
N3    N     N_R   0.515110 0.716920 0.509720 -0.227927
N4    N     N_2   0.530585 0.981325 0.515505 -0.060637
N5    N     N_2   0.451048 0.019687 0.476303 -0.034148
N6    N     N_R   0.484890 0.283060 0.490290 -0.149352
O1    O     O_R   0.494590 0.422540 0.612660 -0.593151
O2    O     O_R   0.504290 0.561850 0.618900 -0.616142
O3    O     O_R   0.676080 0.430360 0.496880 -0.553809
O4    O     O_R   0.685780 0.569670 0.503120 -0.602601
O5    O     O_R   0.495710 0.438150 0.381100 -0.616071
O6    O     O_R   0.505410 0.577460 0.387340 -0.522449
O7    O     O_R   0.314220 0.430330 0.496880 -0.611884
O8    O     O_R   0.323920 0.569640 0.503120 -0.583608
Zn1   Zn    Zn3+2 0.493520 0.406980 0.495830 1.044471
Zn2   Zn    Zn3+2 0.506480 0.593020 0.504170 1.063936
I1    I     I_    0.692613 0.665789 0.910282 -0.210385
F1    F     F_    0.664237 0.277761 0.574329 -0.635309
F2    F     F_    0.693930 0.891678 0.602712 -0.576794
I2    I     I_    0.743138 0.705505 0.625398 -0.167457
F3    F     F_    0.344835 0.882815 0.416884 -0.565734
I3    I     I_    0.047092 0.380876 0.430099 -0.234764
F4    F     F_    0.345826 0.714333 0.416686 -0.584514
I4    I     I_    0.283771 0.376366 0.262262 -0.213846
I5    I     I_    0.303605 0.396996 0.049875 -0.199923
F5    F     F_    0.659352 0.628355 0.269460 -0.622390

loop_
_geom_bond_atom_site_label_1
_geom_bond_atom_site_label_2
_ccdc_geom_bond_type
N6    Zn1   S    
C29   H8    S    
C12   O4    A    
C19   H4    S    
C1    O2    A    
C27   I3    S    
O8    Zn2   S    
C10   C23   S    
C7    I5    S    
N1    N2    D    
C16   N4    S    
C13   H2    S    
C23   O5    A    
C19   C20   A    
C11   F5    S    
C9    N2    S    
C2    C30   A    
O7    Zn1   S    
C12   O3    A    
C15   F3    S    
C7    C8    A    
C18   N3    A    
N4    N5    D    
C22   H5    S    
C11   C13   A    
C28   C29   D    
C23   O6    A    
C24   H6    S    
C28   H7    S    
C17   F2    S    
C14   F4    S    
C3    I1    S    
C2    H3    S    
O1    Zn1   S    
C1    C30   S    
C19   C21   A    
C8    I4    S    
C17   C18   A    
C21   N5    S    
C5    H9    S    
C26   C27   D    
C5    C6    A    
C12   C29   S    
C22   C24   A    
C25   C27   S    
C4    N1    S    
C20   F1    S    
C3    C4    A    
C7    C9    A    
N3    Zn2   S    
C26   H1    S    
C6    H10   S    
C25   O8    A    
C8    C10   A    
C10   C11   A    
C21   C24   A    
C18   I2    S    
O2    Zn2   S    
C9    C13   A    
C14   C15   A    
C1    O1    A    
C2    C3    A    
O5    Zn1   S    
C22   N6    A    
O3    Zn1   S    
C4    C5    A    
C26   C28   S    
C6    C30   A    
C15   C16   A    
O4    Zn2   S    
O6    Zn2   S    
C16   C17   A    
C25   O7    A    
C14   N3    A    
C20   N6    A    
