data_mof_unit_45619.cif
_audit_creation_date              2012-12-11T14:04:09-0500
_audit_creation_method            fapswitch 2.2
_symmetry_space_group_name_H-M    P1
_symmetry_Int_Tables_number       1
_space_group_crystal_system       triclinic
_cell_length_a                    19.093814
_cell_length_b                    10.960442
_cell_length_c                    18.829399
_cell_angle_alpha                 90.192438
_cell_angle_beta                  90.116784
_cell_angle_gamma                 89.969857
_cell_volume                      3940.52243015

loop_
_atom_site_label
_atom_site_type_symbol
_atom_type_description
_atom_site_fract_x
_atom_site_fract_y
_atom_site_fract_z
_atom_type_partial_charge
C1    C     C_R   0.238857 0.468230 0.646010 0.559520
C2    C     C_R   0.761071 0.468960 0.353034 0.555540
C3    C     C_R   0.738920 0.968044 0.646103 0.560504
C4    C     C_R   0.260884 0.968277 0.352751 0.552679
C5    C     C_2   0.195221 0.859530 0.526559 -0.118807
C6    C     C_2   0.707134 0.857081 0.460232 -0.137151
C7    C     C_2   0.696020 0.358756 0.526632 -0.132109
C8    C     C_2   0.205903 0.360072 0.459678 -0.137197
C9    C     C_R   0.997549 0.656842 0.430701 0.022857
C10   C     C_R   0.986404 0.671922 0.579736 0.027273
C11   C     C_R   0.498971 0.156934 0.430107 0.024793
C12   C     C_R   0.487268 0.171553 0.579157 0.029825
C13   C     C_R   0.035090 0.874759 0.428901 0.239089
C14   C     C_R   0.996657 0.895489 0.573025 0.272350
C15   C     C_R   0.535867 0.374952 0.428470 0.240076
C16   C     C_R   0.497239 0.395220 0.572551 0.272951
C17   C     C_R   0.043843 0.986965 0.466147 0.079653
C18   C     C_R   0.026889 0.995159 0.538339 0.110739
C19   C     C_R   0.544590 0.487024 0.465848 0.077555
C20   C     C_R   0.527649 0.494913 0.538059 0.110699
C21   C     C_R   0.996295 0.779809 0.539613 -0.056288
C22   C     C_R   0.008668 0.771057 0.465434 -0.045925
C23   C     C_R   0.497141 0.279585 0.539119 -0.056364
C24   C     C_R   0.509672 0.271086 0.464944 -0.043942
C25   C     C_R   0.966917 0.564465 0.545014 0.014107
C26   C     C_R   0.985652 0.549785 0.473216 0.004457
C27   C     C_R   0.468772 0.063785 0.544186 0.004286
C28   C     C_R   0.488133 0.049583 0.472537 -0.007851
C29   C     C_R   0.934385 0.467687 0.582372 0.128284
C30   C     C_R   0.989789 0.427533 0.447180 0.143041
C31   C     C_R   0.435932 0.966674 0.580977 0.122123
C32   C     C_R   0.492676 0.927639 0.446189 0.138335
C33   C     C_R   0.926403 0.354179 0.549514 -0.142027
C34   C     C_R   0.955269 0.333623 0.483018 -0.132699
C35   C     C_R   0.428296 0.853425 0.547724 -0.151528
C36   C     C_R   0.457999 0.833333 0.481531 -0.141924
C37   C     C_2   0.220949 0.844568 0.935542 -0.030411
C38   C     C_2   0.778885 0.844498 0.064366 -0.030786
C39   C     C_2   0.720948 0.344566 0.935542 -0.030345
C40   C     C_2   0.278884 0.344502 0.064366 -0.030768
C41   C     C_2   0.244056 0.890567 0.087703 -0.131414
C42   C     C_2   0.755887 0.891315 0.912268 -0.130919
C43   C     C_2   0.744056 0.390568 0.087703 -0.131298
C44   C     C_2   0.255887 0.391315 0.912269 -0.130876
C45   C     C_R   0.226152 0.871893 0.648008 0.527154
C46   C     C_R   0.772566 0.875954 0.351596 0.556941
C47   C     C_R   0.726210 0.372147 0.648140 0.527618
C48   C     C_R   0.272486 0.376220 0.351485 0.556829
C49   C     C_2   0.182366 0.907045 0.054664 -0.154696
C50   C     C_2   0.817409 0.908180 0.945583 -0.154423
C51   C     C_2   0.682366 0.407047 0.054664 -0.154675
C52   C     C_2   0.317408 0.408183 0.945584 -0.154441
C53   C     C_2   0.168452 0.874383 0.979850 0.195269
C54   C     C_2   0.831320 0.875055 0.020230 0.195596
C55   C     C_2   0.668452 0.374391 0.979849 0.195273
C56   C     C_2   0.331320 0.375051 0.020230 0.195614
C57   C     C_2   0.997147 0.660891 0.920554 -0.049287
C58   C     C_2   0.999450 0.658682 0.077574 -0.050264
C59   C     C_2   0.497176 0.160878 0.920571 -0.049243
C60   C     C_2   0.499482 0.158695 0.077592 -0.050173
C61   C     C_2   0.003077 0.556914 0.037213 0.196967
C62   C     C_2   0.988453 0.559052 0.959294 0.196647
C63   C     C_2   0.503146 0.056926 0.037239 0.196955
C64   C     C_2   0.488517 0.059037 0.959321 0.196658
C65   C     C_R   0.026290 0.656554 0.647104 0.597967
C66   C     C_R   0.970756 0.653854 0.355855 0.621153
C67   C     C_R   0.526424 0.156512 0.646975 0.600500
C68   C     C_R   0.471098 0.153902 0.355639 0.621158
C69   C     C_R   0.239734 0.463091 0.849411 0.552773
C70   C     C_R   0.760259 0.462829 0.150592 0.551845
C71   C     C_R   0.739734 0.963091 0.849410 0.552489
C72   C     C_R   0.260259 0.962830 0.150591 0.551771
C73   C     C_R   0.208548 0.825637 0.860130 0.600491
C74   C     C_R   0.791336 0.825662 0.139764 0.601644
C75   C     C_R   0.708548 0.325637 0.860130 0.600402
C76   C     C_R   0.291336 0.325663 0.139763 0.601353
C77   C     C_R   0.027876 0.652434 0.850056 0.591900
C78   C     C_R   0.971371 0.651880 0.149318 0.591717
C79   C     C_R   0.527882 0.152432 0.850062 0.591734
C80   C     C_R   0.471378 0.151882 0.149324 0.591813
C81   C     C_2   0.241835 0.891578 0.575773 -0.067857
C82   C     C_2   0.748817 0.924925 0.419053 -0.073175
C83   C     C_2   0.741944 0.392706 0.576070 -0.086373
C84   C     C_2   0.248524 0.426302 0.418620 -0.077119
C85   C     C_2   0.257128 0.948973 0.426777 0.110194
C86   C     C_2   0.751329 0.908134 0.578101 0.087038
C87   C     C_2   0.757601 0.450837 0.427229 0.119188
C88   C     C_2   0.250889 0.409288 0.577654 0.089722
C89   C     C_2   0.212980 0.865063 0.451682 -0.128560
C90   C     C_2   0.696660 0.888515 0.534496 -0.116953
C91   C     C_2   0.713976 0.365623 0.451863 -0.136539
C92   C     C_2   0.195978 0.391397 0.534044 -0.110080
Cr1   Cr    Cr6+3 0.113970 0.508630 0.747920 1.053842
Cr2   Cr    Cr6+3 0.886030 0.508630 0.252080 1.050230
Cr3   Cr    Cr6+3 0.613970 0.008630 0.747920 1.054601
Cr4   Cr    Cr6+3 0.386030 0.008630 0.252080 1.048285
Cr5   Cr    Cr6+3 0.269200 0.666740 0.749850 1.023470
Cr6   Cr    Cr6+3 0.730800 0.666740 0.250150 1.017040
Cr7   Cr    Cr6+3 0.769200 0.166740 0.749850 1.023548
Cr8   Cr    Cr6+3 0.230800 0.166740 0.250150 1.017917
Cr9   Cr    Cr6+3 0.112300 0.820070 0.749800 1.092702
Cr10  Cr    Cr6+3 0.887700 0.820070 0.250200 1.074403
Cr11  Cr    Cr6+3 0.612300 0.320070 0.749800 1.092404
Cr12  Cr    Cr6+3 0.387700 0.320070 0.250200 1.075595
H1    H     H_    0.184771 0.805643 0.415256 0.138902
H2    H     H_    0.643011 0.901662 0.552142 0.139069
H3    H     H_    0.686707 0.305085 0.415290 0.140291
H4    H     H_    0.142463 0.405275 0.551923 0.136882
H5    H     H_    0.285327 0.834099 0.065827 0.108487
H6    H     H_    0.714696 0.834670 0.933857 0.108847
H7    H     H_    0.785328 0.334103 0.065827 0.108479
H8    H     H_    0.214697 0.334667 0.933857 0.108864
H9    H     H_    0.274453 0.834318 0.953713 0.062423
H10   H     H_    0.725434 0.833834 0.046095 0.063509
H11   H     H_    0.774451 0.334304 0.953715 0.062381
H12   H     H_    0.225432 0.333850 0.046096 0.063519
H13   H     H_    0.999589 0.748528 0.054789 0.078756
H14   H     H_    0.999395 0.749991 0.944511 0.079280
H15   H     H_    0.499604 0.248537 0.054802 0.078741
H16   H     H_    0.499413 0.249983 0.944523 0.079290
H17   H     H_    0.144600 0.822848 0.541483 0.130506
H18   H     H_    0.683305 0.773688 0.440829 0.143341
H19   H     H_    0.645918 0.319608 0.541276 0.135033
H20   H     H_    0.181205 0.277440 0.440296 0.144849
H21   H     H_    0.296016 0.901634 0.562152 0.140739
H22   H     H_    0.773083 0.007559 0.439650 0.121591
H23   H     H_    0.795819 0.406761 0.562750 0.150264
H24   H     H_    0.273488 0.508274 0.439258 0.121780
H25   H     H_    0.901310 0.279712 0.577293 0.122286
H26   H     H_    0.953716 0.242634 0.460577 0.130096
H27   H     H_    0.402841 0.778771 0.574988 0.123723
H28   H     H_    0.456508 0.742606 0.458769 0.133763
H29   H     H_    0.141394 0.958791 0.081098 0.156495
H30   H     H_    0.858287 0.960291 0.919498 0.157636
H31   H     H_    0.641393 0.458789 0.081100 0.156504
H32   H     H_    0.358286 0.460298 0.919501 0.157630
O1    O     O_R   0.043230 0.549300 0.667990 -0.510680
O2    O     O_R   0.956770 0.549300 0.332010 -0.505394
O3    O     O_R   0.543230 0.049300 0.667990 -0.507970
O4    O     O_R   0.456770 0.049300 0.332010 -0.508455
O5    O     O_R   0.262920 0.788600 0.824420 -0.507652
O6    O     O_R   0.737080 0.788600 0.175580 -0.504383
O7    O     O_R   0.762920 0.288600 0.824420 -0.508115
O8    O     O_R   0.237080 0.288600 0.175580 -0.504497
O9    O     O_R   0.167530 0.905110 0.830340 -0.443213
O10   O     O_R   0.832470 0.905110 0.169660 -0.446898
O11   O     O_R   0.667530 0.405110 0.830340 -0.443520
O12   O     O_R   0.332470 0.405110 0.169660 -0.447220
O13   O     O_R   0.054010 0.748440 0.822860 -0.490120
O14   O     O_R   0.945990 0.748440 0.177140 -0.492192
O15   O     O_R   0.554010 0.248440 0.822860 -0.490306
O16   O     O_R   0.445990 0.248440 0.177140 -0.492382
O17   O     O_3   0.165160 0.665150 0.749190 -0.300924
O18   O     O_3   0.834840 0.665150 0.250810 -0.300619
O19   O     O_3   0.665160 0.165150 0.749190 -0.300872
O20   O     O_3   0.334840 0.165150 0.250810 -0.298271
O21   O     O_R   0.178620 0.457600 0.674100 -0.513147
O22   O     O_R   0.821380 0.457600 0.325900 -0.501430
O23   O     O_R   0.678620 0.957600 0.674100 -0.513422
O24   O     O_R   0.321380 0.957600 0.325900 -0.504597
O25   O     O_R   0.284680 0.542100 0.669460 -0.509450
O26   O     O_R   0.715320 0.542100 0.330540 -0.542891
O27   O     O_R   0.784680 0.042100 0.669460 -0.508929
O28   O     O_R   0.215320 0.042100 0.330540 -0.541929
O29   O     O_R   0.262860 0.790390 0.676650 -0.513835
O30   O     O_R   0.737140 0.790390 0.323350 -0.497203
O31   O     O_R   0.762860 0.290390 0.676650 -0.511736
O32   O     O_R   0.237140 0.290390 0.323350 -0.498666
O33   O     O_R   0.167460 0.907030 0.670940 -0.491411
O34   O     O_R   0.832540 0.907030 0.329060 -0.510704
O35   O     O_R   0.667460 0.407030 0.670940 -0.491668
O36   O     O_R   0.332540 0.407030 0.329060 -0.509828
O37   O     O_R   0.053950 0.750220 0.675100 -0.455581
O38   O     O_R   0.946050 0.750220 0.324900 -0.454867
O39   O     O_R   0.553950 0.250220 0.675100 -0.455883
O40   O     O_R   0.446050 0.250220 0.324900 -0.453657
O41   O     O_R   0.043300 0.547370 0.827390 -0.443782
O42   O     O_R   0.956700 0.547370 0.172610 -0.440805
O43   O     O_R   0.543300 0.047370 0.827390 -0.443625
O44   O     O_R   0.456700 0.047370 0.172610 -0.440733
O45   O     O_R   0.178690 0.455820 0.821860 -0.490472
O46   O     O_R   0.821310 0.455820 0.178140 -0.491122
O47   O     O_R   0.678690 0.955820 0.821860 -0.490729
O48   O     O_R   0.321310 0.955820 0.178140 -0.490901
O49   O     O_R   0.284750 0.540170 0.828860 -0.517253
O50   O     O_R   0.715250 0.540170 0.171140 -0.519715
O51   O     O_R   0.784750 0.040170 0.828860 -0.517381
O52   O     O_R   0.215250 0.040170 0.171140 -0.519762
O53   O     O_3   0.101543 0.888105 0.952774 -0.692471
H33   H     H_    0.069873 0.915283 0.991351 0.308182
O54   O     O_3   0.898195 0.889010 0.047409 -0.692696
H34   H     H_    0.929839 0.916485 0.009002 0.308305
O55   O     O_3   0.601545 0.388128 0.952771 -0.692438
H35   H     H_    0.569875 0.415310 0.991348 0.308175
O56   O     O_3   0.398196 0.388992 0.047407 -0.692723
H36   H     H_    0.429840 0.416463 0.009000 0.308301
O57   O     O_3   0.017955 0.446865 0.069981 -0.668468
H37   H     H_    0.036719 0.389493 0.033965 0.334413
O58   O     O_3   0.969641 0.452330 0.924549 -0.669998
H38   H     H_    0.948213 0.396258 0.959478 0.332886
O59   O     O_3   0.518054 0.946899 0.070016 -0.668477
H39   H     H_    0.536833 0.889534 0.034005 0.334393
O60   O     O_3   0.469725 0.952292 0.924588 -0.669802
H40   H     H_    0.448318 0.896211 0.959524 0.332898
N1    N     N_3   0.288168 0.042201 0.470744 -0.636271
H41   H     H_    0.266911 0.126506 0.456815 0.246042
H42   H     H_    0.341622 0.045542 0.459442 0.238139
N2    N     N_3   0.821552 0.882176 0.555512 -0.626475
H43   H     H_    0.843876 0.823574 0.592910 0.271103
H44   H     H_    0.849844 0.963789 0.555597 0.248616
N3    N     N_3   0.786400 0.546770 0.471252 -0.635680
H45   H     H_    0.745226 0.603505 0.486964 0.235971
H46   H     H_    0.821475 0.600573 0.442380 0.242840
N4    N     N_3   0.320953 0.382549 0.554833 -0.625727
H47   H     H_    0.343097 0.323178 0.591933 0.270951
H48   H     H_    0.349651 0.463732 0.555239 0.247762
N5    N     N_3   0.070919 0.093752 0.432358 -0.683697
H49   H     H_    0.122378 0.077019 0.417102 0.264261
H50   H     H_    0.040295 0.113593 0.387790 0.220275
N6    N     N_3   0.047697 0.099571 0.579359 -0.626361
H51   H     H_    0.026229 0.177472 0.556907 0.244277
H52   H     H_    0.102203 0.107364 0.576370 0.265904
N7    N     N_3   0.571538 0.593991 0.432164 -0.687055
H53   H     H_    0.622964 0.577345 0.416844 0.260008
H54   H     H_    0.540902 0.613845 0.387605 0.221375
N8    N     N_3   0.548593 0.598997 0.579284 -0.626180
H55   H     H_    0.527140 0.677080 0.557052 0.245943
H56   H     H_    0.603099 0.606703 0.576218 0.260028
O61   O     O_3   0.059557 0.859325 0.360246 -0.702765
H57   H     H_    0.077142 0.936901 0.340748 0.334049
O62   O     O_3   0.965974 0.908580 0.639243 -0.683172
H58   H     H_    0.962178 0.996174 0.651747 0.346891
O63   O     O_3   0.560119 0.359778 0.359717 -0.702280
H59   H     H_    0.577678 0.437437 0.340294 0.334413
O64   O     O_3   0.466122 0.408277 0.638559 -0.683201
H60   H     H_    0.462282 0.495874 0.651048 0.346810
N9    N     N_3   0.035092 0.395843 0.389296 -0.584308
H61   H     H_    0.073772 0.338508 0.409207 0.228320
H62   H     H_    0.006460 0.343913 0.352656 0.242076
N10   N     N_3   0.909093 0.485883 0.653465 -0.594328
H63   H     H_    0.854626 0.487664 0.653149 0.225729
H64   H     H_    0.925454 0.412772 0.684982 0.251497
N11   N     N_3   0.537692 0.897069 0.387862 -0.581596
H65   H     H_    0.576566 0.839505 0.407186 0.229772
H66   H     H_    0.508931 0.845622 0.351099 0.241907
N12   N     N_3   0.409628 0.984509 0.651713 -0.592302
H67   H     H_    0.355206 0.988201 0.650394 0.226462
H68   H     H_    0.424669 0.910449 0.683143 0.251677

loop_
_geom_bond_atom_site_label_1
_geom_bond_atom_site_label_2
_ccdc_geom_bond_type
C84   H24   S    
C7    C83   D    
O60   H40   S    
Cr6   O18   S    
Cr10  O34   S    
C59   H16   S    
C6    C82   D    
C87   C91   D    
O59   H39   S    
C14   C18   A    
Cr9   O37   S    
C35   C36   A    
C18   N6    S    
C2    O26   A    
Cr7   O51   S    
C68   O40   A    
Cr11  O11   S    
C57   C62   D    
Cr12  O40   S    
C73   O5    A    
N1    H41   S    
Cr5   O49   S    
C12   C23   A    
Cr9   O9    S    
C59   C64   D    
C50   C54   S    
C88   N4    S    
C60   C63   D    
Cr3   O23   S    
N7    H54   S    
C80   O44   A    
C14   C21   A    
Cr7   O7    S    
Cr8   O52   S    
C62   O58   S    
C36   H28   S    
C38   H10   S    
N4    H48   S    
C9    C22   A    
C37   H9    S    
C33   H25   S    
N11   H65   S    
C5    H17   S    
C11   C24   A    
C20   N8    S    
C60   H15   S    
Cr2   O42   S    
Cr12  O12   S    
C9    C66   S    
C72   O52   A    
C86   C90   D    
N9    H61   S    
C5    C81   D    
C48   O36   A    
C51   H31   S    
C92   H4    S    
C39   C55   D    
C88   C92   D    
C29   C33   A    
C67   O39   A    
N2    H43   S    
N11   H66   S    
Cr7   O19   S    
O64   H60   S    
C4    O28   A    
C31   N12   S    
Cr9   O33   S    
C8    C92   S    
C39   C75   S    
C67   O3    A    
O63   H59   S    
Cr10  O18   S    
C29   N10   S    
Cr3   O19   S    
C61   C62   S    
O55   H35   S    
Cr11  O15   S    
Cr12  O36   S    
C65   O1    A    
C44   C52   D    
C58   C61   D    
C74   O6    A    
C1    O25   A    
C37   C73   S    
Cr2   O22   S    
C41   H5    S    
C21   C22   A    
Cr6   O6    S    
C3    C86   S    
C3    O23   A    
N10   H64   S    
O57   H37   S    
C58   C78   S    
Cr1   O45   S    
C42   C71   S    
Cr4   O48   S    
C41   C49   D    
N6    H51   S    
Cr6   O26   S    
C70   O46   A    
C9    C26   A    
C17   C18   A    
Cr7   O31   S    
N1    H42   S    
C10   C21   A    
C25   C29   A    
C12   C67   S    
N12   H68   S    
C54   O54   S    
C30   C34   A    
C12   C27   A    
C27   C31   A    
O54   H34   S    
C91   H3    S    
C28   C32   A    
C19   N7    S    
C63   O59   S    
C90   H2    S    
N7    H53   S    
Cr8   O8    S    
C61   O57   S    
C55   O55   S    
C85   C89   D    
N4    H47   S    
C8    H20   S    
C34   H26   S    
C4    C85   S    
C16   O64   S    
C40   C56   D    
N5    H49   S    
C6    C90   S    
C13   O61   S    
Cr5   O17   S    
C58   H13   S    
Cr12  O20   S    
C48   C84   S    
C82   H22   S    
C73   O9    A    
C77   O41   A    
Cr2   O2    S    
C15   C19   A    
C86   N2    S    
O61   H57   S    
C65   O37   A    
C57   C77   S    
C56   O56   S    
C47   O31   A    
N3    H45   S    
C38   C54   D    
Cr9   O17   S    
C16   C20   A    
C7    C91   S    
C15   O63   S    
Cr11  O39   S    
C33   C34   A    
C2    C87   S    
Cr8   O28   S    
C1    O21   A    
Cr4   O44   S    
Cr1   O21   S    
Cr5   O5    S    
C14   O62   S    
Cr6   O30   S    
C75   O7    A    
C42   C50   D    
C41   C72   S    
Cr7   O27   S    
C44   H8    S    
C10   C25   A    
Cr11  O19   S    
C15   C24   A    
N3    H46   S    
C64   O60   S    
Cr10  O14   S    
C26   C30   A    
C16   C23   A    
N8    H56   S    
N9    H62   S    
C32   N11   S    
C50   H30   S    
C52   H32   S    
C79   O43   A    
Cr3   O3    S    
C68   O4    A    
Cr10  O38   S    
Cr8   O20   S    
C6    H18   S    
C30   N9    S    
C59   C79   S    
C69   O49   A    
O62   H58   S    
C17   N5    S    
C11   C68   S    
C78   O14   A    
C79   O15   A    
C38   C74   S    
C10   C65   S    
Cr3   O43   S    
C80   O16   A    
C49   H29   S    
N12   H67   S    
C60   C80   S    
Cr1   O41   S    
C46   O30   A    
C81   H21   S    
C78   O42   A    
C72   O48   A    
C87   N3    S    
C74   O10   A    
C45   C81   S    
C71   O51   A    
C47   C83   S    
C76   O8    A    
C45   O33   A    
C46   C82   S    
Cr4   O4    S    
C47   O35   A    
C40   H12   S    
C32   C36   A    
C77   O13   A    
C3    O27   A    
C43   C70   S    
C39   H11   S    
N5    H50   S    
C13   C17   A    
N6    H52   S    
Cr8   O32   S    
C75   O11   A    
C89   H1    S    
Cr12  O16   S    
C19   C20   A    
Cr1   O17   S    
Cr4   O24   S    
C25   C26   A    
C35   H27   S    
C37   C53   D    
Cr6   O50   S    
O56   H36   S    
Cr10  O10   S    
C4    O24   A    
Cr2   O18   S    
Cr11  O35   S    
Cr3   O47   S    
Cr4   O20   S    
C53   O53   S    
C11   C28   A    
C1    C88   S    
Cr5   O29   S    
C43   C51   D    
C31   C35   A    
Cr9   O13   S    
N10   H63   S    
C13   C22   A    
C51   C55   S    
C42   H6    S    
O53   H33   S    
C83   H23   S    
C49   C53   S    
Cr1   O1    S    
C70   O50   A    
C23   C24   A    
C66   O2    A    
C63   C64   S    
C43   H7    S    
C46   O34   A    
O58   H38   S    
C2    O22   A    
C76   O12   A    
N2    H44   S    
N8    H55   S    
C8    C84   D    
C40   C76   S    
C69   O45   A    
C27   C28   A    
C44   C69   S    
C66   O38   A    
Cr2   O46   S    
C85   N1    S    
C45   O29   A    
C48   O32   A    
C5    C89   S    
C52   C56   S    
Cr5   O25   S    
C7    H19   S    
C57   H14   S    
C71   O47   A    
