data_mof_unit_25736.cif
_audit_creation_date              2012-12-11T15:41:19-0500
_audit_creation_method            fapswitch 2.2
_symmetry_space_group_name_H-M    P1
_symmetry_Int_Tables_number       1
_space_group_crystal_system       triclinic
_cell_length_a                    14.910799
_cell_length_b                    14.942404
_cell_length_c                    15.172614
_cell_angle_alpha                 109.201523
_cell_angle_beta                  110.365616
_cell_angle_gamma                 109.18559
_cell_volume                      2591.09694218

loop_
_atom_site_label
_atom_site_type_symbol
_atom_type_description
_atom_site_fract_x
_atom_site_fract_y
_atom_site_fract_z
_atom_type_partial_charge
C1    C     C_R   0.239797 0.055648 0.965574 -0.109329
C2    C     C_R   0.803705 0.002478 0.094571 -0.110227
C3    C     C_R   0.866990 0.302374 0.304271 0.046728
C4    C     C_R   0.220600 0.673046 0.676569 0.055004
C5    C     C_R   0.502785 0.958907 0.309146 0.246298
C6    C     C_R   0.502012 0.988550 0.679579 0.252565
C7    C     C_R   0.497651 0.326594 0.009915 0.067751
C8    C     C_R   0.502990 0.708303 0.080112 0.061504
C9    C     C_R   0.189713 0.240546 0.708987 -0.177352
C10   C     C_R   0.810224 0.908588 0.417027 -0.194526
C11   C     C_R   0.289677 0.315274 0.807238 -0.127663
C12   C     C_R   0.710132 0.811588 0.338198 -0.108576
C13   C     C_R   0.291336 0.347508 0.906190 0.029319
C14   C     C_R   0.705985 0.727382 0.257081 0.048259
C15   C     C_R   0.191263 0.306589 0.904992 -0.305462
C16   C     C_R   0.804239 0.741927 0.257143 -0.277471
C17   C     C_R   0.091443 0.231647 0.806573 0.552891
C18   C     C_R   0.904201 0.839171 0.336103 0.541586
C19   C     C_R   0.090785 0.198864 0.708694 -0.194816
C20   C     C_R   0.907070 0.922420 0.415851 -0.203204
C21   C     C_R   0.400260 0.531959 0.058170 -0.124479
C22   C     C_R   0.593019 0.524799 0.137794 -0.207628
C23   C     C_R   0.802560 0.209331 0.301323 -0.070329
C24   C     C_R   0.243852 0.774883 0.686025 -0.087525
C25   C     C_R   0.501590 0.628213 0.116276 0.090571
C26   C     C_R   0.494824 0.428908 0.049596 0.053188
C27   C     C_R   0.598776 0.626341 0.170264 0.067353
C28   C     C_R   0.395793 0.433299 0.009528 0.025246
C29   C     C_R   0.037355 0.475851 0.382286 -0.150816
C30   C     C_R   0.122257 0.470765 0.574948 -0.138240
C31   C     C_R   0.127962 0.569055 0.476198 -0.078293
C32   C     C_R   0.032195 0.377431 0.481035 -0.140090
C33   C     C_R   0.161932 0.569824 0.575142 0.124845
C34   C     C_R   0.982209 0.383286 0.387420 0.111346
C35   C     C_R   0.538859 0.075568 0.579147 0.396129
C36   C     C_R   0.465369 0.868949 0.408648 0.371311
C37   C     C_R   0.539567 0.067932 0.486776 0.397467
C38   C     C_R   0.465758 0.876901 0.501940 0.415170
C39   C     C_R   0.504205 0.964943 0.403541 -0.369140
C40   C     C_R   0.503479 0.980187 0.585783 -0.367705
C41   C     C_R   0.121920 0.046914 0.148697 -0.111378
C42   C     C_R   0.036313 0.158492 0.063158 -0.109618
C43   C     C_R   0.034142 0.053552 0.155510 -0.138040
C44   C     C_R   0.123745 0.151266 0.055922 -0.112086
C45   C     C_R   0.409243 0.916523 0.213160 -0.075177
C46   C     C_R   0.594503 0.047333 0.780589 -0.032822
C47   C     C_R   0.983273 0.098471 0.101489 0.088633
C48   C     C_R   0.157807 0.084538 0.087222 0.107577
C49   C     C_R   0.591509 0.315531 0.042069 -0.073437
C50   C     C_R   0.410448 0.706450 0.012745 -0.115541
C51   C     C_R   0.594405 0.011200 0.305499 -0.056678
C52   C     C_R   0.408747 0.962855 0.686924 -0.069555
C53   C     C_R   0.407063 0.221808 0.944775 -0.117118
C54   C     C_R   0.593291 0.795219 0.099673 -0.124265
C55   C     C_R   0.803983 0.300824 0.210990 -0.130967
C56   C     C_R   0.250440 0.685444 0.779069 -0.106890
C57   C     C_R   0.246573 0.968384 0.060338 -0.090670
C58   C     C_R   0.804130 0.094452 0.004735 -0.108689
C59   C     C_R   0.215628 0.040955 0.042195 0.053339
C60   C     C_R   0.868006 0.065272 0.067191 0.055485
H1    H     H_    0.214106 0.096608 0.924486 0.099631
H2    H     H_    0.830577 0.977206 0.153206 0.093364
H3    H     H_    0.188776 0.215737 0.632985 0.160862
H4    H     H_    0.812528 0.973260 0.478706 0.161656
H5    H     H_    0.365613 0.348475 0.806405 0.153619
H6    H     H_    0.635890 0.802638 0.339839 0.181726
H7    H     H_    0.190998 0.334309 0.980372 0.167485
H8    H     H_    0.802879 0.679134 0.194432 0.164308
H9    H     H_    0.323956 0.533569 0.028182 0.139973
H10   H     H_    0.666780 0.522148 0.178911 0.132763
H11   H     H_    0.005388 0.480820 0.309351 0.130391
H12   H     H_    0.151943 0.466636 0.648610 0.120244
H13   H     H_    0.163156 0.642405 0.472188 0.153617
H14   H     H_    0.996308 0.305087 0.486247 0.115324
H15   H     H_    0.152626 0.002435 0.181987 0.142238
H16   H     H_    0.004292 0.201362 0.028292 0.156693
H17   H     H_    0.828723 0.176651 0.352846 0.081450
H18   H     H_    0.222084 0.792453 0.620997 0.104283
H19   H     H_    0.000000 0.013017 0.192742 0.142599
H20   H     H_    0.156458 0.188794 0.016253 0.124138
H21   H     H_    0.325195 0.862012 0.187737 0.130937
H22   H     H_    0.680180 0.088257 0.802973 0.143627
H23   H     H_    0.677314 0.378899 0.089479 0.096034
H24   H     H_    0.326113 0.659059 0.991052 0.107052
H25   H     H_    0.680218 0.046454 0.365058 0.103159
H26   H     H_    0.326221 0.932429 0.623670 0.124458
H27   H     H_    0.322221 0.196288 0.897246 0.117348
H28   H     H_    0.679449 0.828308 0.154919 0.113135
H29   H     H_    0.832268 0.353118 0.180246 0.099151
H30   H     H_    0.242849 0.623630 0.802334 0.100557
H31   H     H_    0.235572 0.934612 0.110809 0.099754
H32   H     H_    0.831521 0.154148 0.981032 0.116370
H33   H     H_    0.013492 0.142236 0.632511 0.140435
H34   H     H_    0.984288 0.997805 0.476490 0.146785
N1    N     N_R   0.293810 0.002730 0.945950 -0.045982
N2    N     N_R   0.706190 0.997270 0.054050 -0.043954
N3    N     N_R   0.706160 0.152130 0.208910 -0.041968
N4    N     N_R   0.293840 0.847870 0.791090 -0.048673
N5    N     N_R   0.443140 0.945920 0.152090 -0.059145
N6    N     N_R   0.556860 0.054080 0.847910 -0.061515
N7    N     N_R   0.556830 0.208940 0.002760 -0.043105
N8    N     N_R   0.443170 0.791060 0.997240 -0.045504
N9    N     N_R   0.556790 0.002750 0.208910 -0.053743
N10   N     N_R   0.443210 0.997250 0.791090 -0.061324
N11   N     N_R   0.443180 0.152110 0.945950 -0.045864
N12   N     N_R   0.556820 0.847890 0.054050 -0.043444
N13   N     N_R   0.706170 0.208950 0.152090 -0.043395
N14   N     N_R   0.293830 0.791050 0.847910 -0.046242
N15   N     N_R   0.293800 0.945910 0.002760 -0.046869
N16   N     N_R   0.706200 0.054090 0.997240 -0.047669
Ni1   Ni    Ni4+2 0.369690 0.999990 0.869700 0.243499
Ni2   Ni    Ni4+2 0.630310 0.000010 0.130300 0.218338
Ni3   Ni    Ni4+2 0.369670 0.869670 0.000000 0.234971
Ni4   Ni    Ni4+2 0.630330 0.130330 0.000000 0.243437
Cl1   Cl    Cl    0.966811 0.180448 0.805616 -0.689998
Cl2   Cl    Cl    0.025746 0.857417 0.334097 -0.681729
Cl3   Cl    Cl    0.577131 0.203362 0.683755 -0.555280
Cl4   Cl    Cl    0.415840 0.739821 0.298937 -0.628935
Cl5   Cl    Cl    0.578662 0.186354 0.473417 -0.542277
Cl6   Cl    Cl    0.419566 0.758558 0.514106 -0.572566

loop_
_geom_bond_atom_site_label_1
_geom_bond_atom_site_label_2
_ccdc_geom_bond_type
C54   H28   S    
N7    Ni4   S    
C58   N16   A    
C3    C23   A    
C51   H25   S    
C58   H32   S    
C50   H24   S    
N12   Ni2   S    
N2    Ni2   S    
C7    C26   S    
C24   N4    A    
C35   C37   A    
C1    C59   A    
C49   N7    A    
C4    C24   A    
C2    C60   A    
C31   H13   S    
C58   C60   A    
N6    N10   A    
N4    N14   A    
C56   N14   A    
C20   H34   S    
C47   C60   S    
C46   H22   S    
C3    C55   A    
C9    C19   A    
C57   N15   A    
C10   C20   A    
C31   C33   A    
C13   C28   S    
C16   H8    S    
C14   C27   S    
C36   Cl4   S    
N16   Ni4   S    
C18   C20   A    
C19   H33   S    
N15   Ni3   S    
C38   Cl6   S    
C56   H30   S    
N11   Ni1   S    
C38   C40   A    
N2    N16   A    
C4    C56   A    
C29   C31   A    
C8    C25   S    
C41   C43   A    
C6    C46   A    
C42   C44   A    
C52   H26   S    
N7    N11   A    
C45   H21   S    
C54   N12   A    
C44   H20   S    
N6    Ni4   S    
C7    C49   A    
N5    N9    A    
N1    N15   A    
C51   N9    A    
C18   Cl2   S    
N3    Ni2   S    
C3    C34   S    
C5    C45   A    
C29   C34   A    
C21   H9    S    
N9    Ni2   S    
C32   C34   A    
N14   Ni3   S    
N13   Ni4   S    
C41   H15   S    
C46   N6    A    
C37   Cl5   S    
C1    N1    A    
C15   H7    S    
C53   H27   S    
C23   H17   S    
C44   C48   A    
C9    C11   A    
C10   C12   A    
C24   H18   S    
C23   N3    A    
C21   C28   A    
C12   C14   A    
C50   N8    A    
C22   C27   A    
C13   C15   A    
C45   N5    A    
C14   C16   A    
C35   Cl3   S    
C7    C53   A    
C8    C54   A    
C8    C50   A    
C17   Cl1   S    
C48   C59   S    
C15   C17   A    
C5    C39   S    
C21   C25   A    
C4    C33   S    
C52   N10   A    
C32   H14   S    
N4    Ni1   S    
C57   H31   S    
C30   C33   A    
C9    H3    S    
C26   C28   A    
C36   C39   A    
C10   H4    S    
C43   C47   A    
C1    H1    S    
N5    Ni3   S    
N10   Ni1   S    
C30   H12   S    
C25   C27   A    
C42   H16   S    
C49   H23   S    
C36   C38   A    
C35   C40   A    
C37   C39   A    
N8    Ni3   S    
N1    Ni1   S    
C30   C32   A    
C11   C13   A    
C12   H6    S    
C2    N2    A    
C17   C19   A    
C41   C48   A    
N8    N12   A    
C6    C40   S    
C42   C47   A    
C55   H29   S    
C57   C59   A    
N3    N13   A    
C53   N11   A    
C16   C18   A    
C22   C26   A    
C55   N13   A    
C2    H2    S    
C5    C51   A    
C6    C52   A    
C43   H19   S    
C22   H10   S    
C11   H5    S    
C29   H11   S    
