data_mof_unit_25387.cif
_audit_creation_date              2012-12-11T17:44:05-0500
_audit_creation_method            fapswitch 2.2
_symmetry_space_group_name_H-M    P1
_symmetry_Int_Tables_number       1
_space_group_crystal_system       triclinic
_cell_length_a                    20.258519
_cell_length_b                    22.707449
_cell_length_c                    6.942332
_cell_angle_alpha                 90.000411
_cell_angle_beta                  86.841047
_cell_angle_gamma                 90.000073
_cell_volume                      3188.75392759

loop_
_atom_site_label
_atom_site_type_symbol
_atom_type_description
_atom_site_fract_x
_atom_site_fract_y
_atom_site_fract_z
_atom_type_partial_charge
O1    O     O_R   0.751270 0.447300 0.600030 -0.544733
O2    O     O_R   0.248730 0.947300 0.399970 -0.544733
O3    O     O_R   0.613530 0.440160 0.952150 -0.531896
O4    O     O_R   0.386470 0.940160 0.047850 -0.531894
O5    O     O_R   0.613050 0.552700 0.122560 -0.530548
O6    O     O_R   0.386950 0.052700 0.877440 -0.530545
C1    C     C_R   0.591540 0.425448 0.786989 0.726409
C2    C     C_R   0.408460 0.925448 0.213009 0.726404
O7    O     O_R   0.750780 0.440350 0.929820 -0.546923
O8    O     O_R   0.249220 0.940350 0.070180 -0.546924
O9    O     O_R   0.751280 0.552900 0.100070 -0.545667
O10   O     O_R   0.248720 0.052900 0.899930 -0.545666
C3    C     C_R   0.773921 0.426118 0.757397 0.682983
C4    C     C_R   0.226079 0.926118 0.242603 0.682984
O11   O     O_R   0.613040 0.447100 0.622520 -0.521628
O12   O     O_R   0.386960 0.947100 0.377480 -0.521633
O13   O     O_3   0.682160 0.536920 0.777780 -0.371836
O14   O     O_3   0.317840 0.036920 0.222220 -0.371835
V1    V     V_3+5 0.682160 0.493150 0.052630 1.450641
V2    V     V_3+5 0.317840 0.993150 0.947370 1.450646
O15   O     O_R   0.750790 0.559840 0.429870 -0.547619
O16   O     O_R   0.249210 0.059840 0.570130 -0.547619
C5    C     C_R   0.773774 0.574229 0.257437 0.676463
C6    C     C_R   0.226226 0.074228 0.742564 0.676462
O17   O     O_R   0.613540 0.559650 0.452200 -0.528406
O18   O     O_R   0.386460 0.059650 0.547800 -0.528411
C7    C     C_R   0.591567 0.574346 0.287039 0.768426
C8    C     C_R   0.408433 0.074345 0.712963 0.768430
V3    V     V_3+5 0.682160 0.506850 0.552630 1.455392
V4    V     V_3+5 0.317840 0.006850 0.447370 1.455385
O19   O     O_3   0.682150 0.463080 0.277610 -0.366366
O20   O     O_3   0.317850 0.963080 0.722390 -0.366367
C9    C     C_R   0.579206 0.860224 0.165497 -0.131229
C10   C     C_R   0.420790 0.360229 0.834368 -0.131227
H1    H     H_    0.538141 0.946852 0.144573 0.150641
H2    H     H_    0.461855 0.446857 0.855290 0.150641
H3    H     H_    0.670002 0.776230 0.159701 0.130045
H4    H     H_    0.329993 0.276237 0.840102 0.130046
C11   C     C_R   0.462590 0.882046 0.212030 -0.050722
C12   C     C_R   0.537411 0.382046 0.787958 -0.050724
C13   C     C_R   0.471461 0.594886 0.326708 0.247652
C14   C     C_R   0.528541 0.094882 0.673376 0.247645
C15   C     C_R   0.417840 0.633263 0.334251 -0.122477
C16   C     C_R   0.582163 0.133258 0.665868 -0.122476
C17   C     C_R   0.426838 0.693489 0.305470 -0.212429
C18   C     C_R   0.573165 0.193485 0.694618 -0.212430
C19   C     C_R   0.490553 0.717577 0.267220 0.087551
C20   C     C_R   0.509448 0.217576 0.732797 0.087551
C21   C     C_R   0.545754 0.678049 0.258066 0.024753
C22   C     C_R   0.454246 0.178049 0.741908 0.024754
C23   C     C_R   0.501255 0.779505 0.237630 0.090869
C24   C     C_R   0.498745 0.279505 0.762358 0.090872
C25   C     C_R   0.566866 0.800073 0.197790 0.120239
C26   C     C_R   0.433132 0.300076 0.802117 0.120237
C27   C     C_R   0.619918 0.760614 0.189681 -0.182439
C28   C     C_R   0.380079 0.260619 0.810183 -0.182440
C29   C     C_R   0.609695 0.700731 0.219646 -0.175024
C30   C     C_R   0.390302 0.200735 0.780254 -0.175022
C31   C     C_R   0.449422 0.821983 0.245353 -0.217831
C32   C     C_R   0.550580 0.321981 0.754681 -0.217838
C33   C     C_R   0.527500 0.900722 0.171524 -0.087733
C34   C     C_R   0.472498 0.400726 0.828379 -0.087727
C35   C     C_R   0.535835 0.616549 0.288614 -0.152878
C36   C     C_R   0.464165 0.116549 0.711397 -0.152876
H5    H     H_    0.382688 0.719965 0.313940 0.126281
H6    H     H_    0.617316 0.219960 0.686180 0.126283
H7    H     H_    0.368354 0.616252 0.363279 0.157752
H8    H     H_    0.631650 0.116245 0.636893 0.157754
H9    H     H_    0.652615 0.672239 0.211875 0.103752
H10   H     H_    0.347381 0.172244 0.787990 0.103744
C37   C     C_R   0.170920 0.882594 0.260876 -0.044426
C38   C     C_R   0.829081 0.382595 0.739122 -0.044426
C39   C     C_R   0.143469 0.858632 0.096082 -0.216247
C40   C     C_R   0.856525 0.358627 0.903916 -0.216249
C41   C     C_R   0.091029 0.818328 0.113640 -0.140546
C42   C     C_R   0.908966 0.318323 0.886358 -0.140547
C43   C     C_R   0.064621 0.800898 0.297553 0.429078
C44   C     C_R   0.935382 0.300901 0.702445 0.429078
C45   C     C_R   0.092224 0.824658 0.461168 -0.181333
C46   C     C_R   0.907786 0.324667 0.538829 -0.181334
C47   C     C_R   0.144563 0.864944 0.443678 -0.198392
C48   C     C_R   0.855446 0.364952 0.556320 -0.198389
C49   C     C_R   0.908203 0.682625 0.386367 -0.140848
C50   C     C_R   0.091803 0.182630 0.613634 -0.140849
C51   C     C_R   0.856001 0.642079 0.403940 -0.215198
C52   C     C_R   0.144005 0.142085 0.596062 -0.215202
C53   C     C_R   0.934380 0.700286 0.202447 0.428895
C54   C     C_R   0.065617 0.200283 0.797555 0.428895
N1    N     N_2   0.011031 0.760120 0.325668 -0.307733
N2    N     N_2   0.988974 0.260125 0.674331 -0.307734
N3    N     N_2   0.987905 0.741130 0.174320 -0.307739
N4    N     N_2   0.012089 0.241125 0.825680 -0.307739
C55   C     C_R   0.828585 0.618084 0.239154 -0.043147
C56   C     C_R   0.171414 0.118083 0.760848 -0.043148
H11   H     H_    0.837330 0.629381 0.547075 0.132248
H12   H     H_    0.162683 0.129393 0.452926 0.132251
H13   H     H_    0.927900 0.699853 0.516747 0.135050
H14   H     H_    0.072111 0.199863 0.483254 0.135051
H15   H     H_    0.072869 0.811937 0.603652 0.120898
H16   H     H_    0.927147 0.311952 0.396346 0.120899
C57   C     C_R   0.854616 0.636054 0.056349 -0.198891
C58   C     C_R   0.145375 0.136045 0.943654 -0.198885
C59   C     C_R   0.906717 0.676580 0.038841 -0.181969
C60   C     C_R   0.093272 0.176570 0.961162 -0.181969
H17   H     H_    0.834904 0.618683 0.926118 0.132878
H18   H     H_    0.165081 0.118669 0.073885 0.132878
H19   H     H_    0.071371 0.801061 0.983256 0.134990
H20   H     H_    0.928618 0.301052 0.016743 0.134991
H21   H     H_    0.925881 0.689491 0.896352 0.121051
H22   H     H_    0.074102 0.189475 0.103650 0.121052
H23   H     H_    0.164233 0.882350 0.573920 0.132330
H24   H     H_    0.835781 0.382363 0.426077 0.132330
H25   H     H_    0.162341 0.871130 0.952948 0.131948
H26   H     H_    0.837647 0.371119 0.047050 0.131950
H27   H     H_    0.629159 0.875994 0.134430 0.130942
H28   H     H_    0.370836 0.376002 0.865372 0.130940
H29   H     H_    0.398414 0.810006 0.275070 0.095270
H30   H     H_    0.601590 0.310001 0.725025 0.095268
Br1   Br    Br    0.454375 0.512489 0.369035 -0.580570
Br2   Br    Br    0.545628 0.012483 0.631099 -0.580564

loop_
_geom_bond_atom_site_label_1
_geom_bond_atom_site_label_2
_ccdc_geom_bond_type
C49   C53   A    
C41   H19   S    
C12   C32   A    
C53   N3    S    
C9    C25   A    
C22   C36   A    
C4    C37   S    
C25   C27   A    
O4    C2    A    
V1    O19   S    
C12   C34   A    
C19   C21   A    
C44   N2    S    
O9    V1    S    
C40   C42   A    
C21   C35   A    
C45   H15   S    
C42   C44   A    
O5    V1    S    
C18   H6    S    
O3    C1    A    
C44   C46   A    
C10   H28   S    
C40   H26   S    
C10   C34   A    
C39   H25   S    
C2    O12   A    
O7    C3    A    
C24   C32   A    
O5    C7    A    
C51   C55   A    
O7    V1    S    
O6    C8    A    
C54   N4    S    
O8    V2    S    
C1    C12   S    
O3    V1    S    
O14   V4    S    
C2    C11   S    
N1    N3    D    
C52   C56   A    
C43   C45   A    
C42   H20   S    
C46   H16   S    
C57   H17   S    
C13   C15   A    
C14   C16   A    
H2    C34   S    
C32   H30   S    
C54   C60   A    
C24   C26   A    
O11   V3    S    
C18   C20   A    
C17   C19   A    
O17   V3    S    
C11   C33   A    
C26   C28   A    
C9    H27   S    
C22   C30   A    
C47   H23   S    
C46   C48   A    
O8    C4    A    
C55   C57   A    
C37   C39   A    
C30   H10   S    
C19   C23   A    
C1    O11   A    
C16   C18   A    
O15   V3    S    
C5    C55   S    
C23   C25   A    
O4    V2    S    
O1    C3    A    
C15   H7    S    
V4    O20   S    
C6    C56   S    
C41   C43   A    
N2    N4    D    
C11   C31   A    
O10   V2    S    
O1    V3    S    
H1    C33   S    
C13   Br1   S    
C58   C60   A    
C20   C22   A    
C15   C17   A    
C52   H12   S    
C53   C59   A    
C8    C36   S    
C38   C40   A    
C49   C51   A    
C10   C26   A    
O15   C5    A    
C17   H5    S    
O16   C6    A    
C16   H8    S    
C23   C31   A    
C39   C41   A    
C14   C36   A    
C45   C47   A    
V2    O20   S    
O16   V4    S    
C50   C54   A    
C50   C52   A    
C21   C29   A    
O18   V4    S    
C43   N1    S    
C3    C38   S    
O17   C7    A    
O6    V2    S    
O10   C6    A    
O18   C8    A    
C57   C59   A    
O2    V4    S    
C59   H21   S    
C50   H14   S    
C27   C29   A    
V3    O19   S    
O13   V3    S    
C60   H22   S    
C51   H11   S    
C14   Br2   S    
C9    C33   A    
O9    C5    A    
O13   V1    S    
C28   C30   A    
C58   H18   S    
O14   V2    S    
O2    C4    A    
H3    C27   S    
C20   C24   A    
H4    C28   S    
C56   C58   A    
C31   H29   S    
C49   H13   S    
C13   C35   A    
C7    C35   S    
C29   H9    S    
O12   V4    S    
C38   C48   A    
C48   H24   S    
C37   C47   A    
