data_mof_unit_5674.cif
_audit_creation_date              2012-12-10T17:00:38-0500
_audit_creation_method            fapswitch 2.2
_symmetry_space_group_name_H-M    P1
_symmetry_Int_Tables_number       1
_space_group_crystal_system       triclinic
_cell_length_a                    21.963805
_cell_length_b                    21.963807
_cell_length_c                    21.951552
_cell_angle_alpha                 90.010783
_cell_angle_beta                  90.010777
_cell_angle_gamma                 89.978205
_cell_volume                      10589.620147

loop_
_atom_site_label
_atom_site_type_symbol
_atom_type_description
_atom_site_fract_x
_atom_site_fract_y
_atom_site_fract_z
_atom_type_partial_charge
C1    C     C_R   0.500043 0.118635 0.000130 0.967665
C2    C     C_R   0.000046 0.118652 0.499992 0.971491
C3    C     C_R   0.500012 0.881355 0.000012 0.966973
C4    C     C_R   0.000034 0.881328 0.500222 0.893526
C5    C     C_R   0.881348 0.999959 0.499988 0.972775
C6    C     C_R   0.881361 0.499986 0.999827 0.967093
C7    C     C_R   0.118671 0.999551 0.499776 0.919259
C8    C     C_R   0.118646 0.499987 0.999993 0.966908
C9    C     C_R   0.000063 0.500067 0.881358 0.965776
C10   C     C_R   0.500009 0.000023 0.881359 0.966870
C11   C     C_R   0.999984 0.499975 0.118641 0.966905
C12   C     C_R   0.499991 0.999950 0.118641 0.967195
C13   C     C_R   0.000014 0.618639 0.500173 0.967093
C14   C     C_R   0.500041 0.618652 0.000012 0.972775
C15   C     C_R   0.000012 0.381354 0.500007 0.966908
C16   C     C_R   0.500449 0.381329 0.000224 0.919261
C17   C     C_R   0.381348 0.499954 0.000008 0.971491
C18   C     C_R   0.381365 0.999957 0.499870 0.967664
C19   C     C_R   0.618672 0.499966 0.999778 0.893525
C20   C     C_R   0.618645 0.999988 0.499988 0.966973
C21   C     C_R   0.500050 0.000009 0.381359 0.967196
C22   C     C_R   0.000025 0.500016 0.381359 0.966906
C23   C     C_R   0.499977 0.999991 0.618641 0.966870
C24   C     C_R   0.999933 0.499937 0.618641 0.965777
C25   C     C_R   0.428274 0.908981 0.811977 0.166039
C26   C     C_R   0.188526 0.910998 0.422757 0.177217
C27   C     C_R   0.571882 0.909036 0.188068 0.166035
C28   C     C_R   0.811949 0.908899 0.571717 0.163982
C29   C     C_R   0.427970 0.090882 0.188044 0.166386
C30   C     C_R   0.187941 0.089996 0.571633 0.170432
C31   C     C_R   0.572231 0.090721 0.811939 0.164322
C32   C     C_R   0.811866 0.090910 0.428086 0.165633
C33   C     C_R   0.090833 0.188034 0.427784 0.165160
C34   C     C_R   0.091119 0.571610 0.187956 0.166111
C35   C     C_R   0.085005 0.811307 0.582049 0.178549
C36   C     C_R   0.090896 0.428324 0.811900 0.166153
C37   C     C_R   0.911447 0.812093 0.426689 0.171367
C38   C     C_R   0.909534 0.427359 0.188069 0.165606
C39   C     C_R   0.909095 0.188110 0.571840 0.165804
C40   C     C_R   0.909440 0.572963 0.812128 0.165585
C41   C     C_R   0.811516 0.568943 0.092553 0.162515
C42   C     C_R   0.428115 0.811950 0.090965 0.166087
C43   C     C_R   0.188071 0.428030 0.090960 0.165949
C44   C     C_R   0.571543 0.186918 0.091958 0.165702
C45   C     C_R   0.188075 0.571928 0.909093 0.165889
C46   C     C_R   0.572051 0.811863 0.909171 0.166053
C47   C     C_R   0.812838 0.433946 0.903672 0.161066
C48   C     C_R   0.429334 0.188430 0.908825 0.165812
C49   C     C_R   0.928390 0.408881 0.312044 0.166111
C50   C     C_R   0.688693 0.414999 0.917947 0.178555
C51   C     C_R   0.071676 0.409103 0.688100 0.166153
C52   C     C_R   0.311966 0.409167 0.072216 0.165159
C53   C     C_R   0.927038 0.590560 0.687872 0.165584
C54   C     C_R   0.687907 0.588552 0.073312 0.171368
C55   C     C_R   0.072641 0.590466 0.311931 0.165606
C56   C     C_R   0.311890 0.590905 0.928160 0.165804
C57   C     C_R   0.591101 0.688051 0.928284 0.163982
C58   C     C_R   0.591019 0.071726 0.688023 0.166039
C59   C     C_R   0.589000 0.311474 0.077245 0.177224
C60   C     C_R   0.590964 0.928119 0.311932 0.166034
C61   C     C_R   0.410005 0.312059 0.928366 0.170432
C62   C     C_R   0.409279 0.927769 0.688061 0.164322
C63   C     C_R   0.409090 0.688134 0.071915 0.165633
C64   C     C_R   0.409117 0.072028 0.311956 0.166385
C65   C     C_R   0.311570 0.070666 0.591174 0.165813
C66   C     C_R   0.928072 0.311925 0.590907 0.165889
C67   C     C_R   0.688136 0.927949 0.590830 0.166053
C68   C     C_R   0.066057 0.687161 0.596325 0.161070
C69   C     C_R   0.688050 0.071885 0.409035 0.166087
C70   C     C_R   0.071970 0.311929 0.409040 0.165949
C71   C     C_R   0.313082 0.928453 0.408045 0.165705
C72   C     C_R   0.931056 0.688484 0.407448 0.162517
C73   C     C_R   0.385638 0.874755 0.780191 -0.222901
C74   C     C_R   0.221463 0.876669 0.381103 -0.215364
C75   C     C_R   0.614606 0.874910 0.219877 -0.222588
C76   C     C_R   0.780156 0.874678 0.614355 -0.223811
C77   C     C_R   0.385304 0.125058 0.219866 -0.222563
C78   C     C_R   0.219421 0.123393 0.615158 -0.224508
C79   C     C_R   0.614923 0.124787 0.780078 -0.219808
C80   C     C_R   0.780037 0.125071 0.385396 -0.222211
C81   C     C_R   0.124983 0.219874 0.385132 -0.223458
C82   C     C_R   0.125470 0.614152 0.219720 -0.222689
C83   C     C_R   0.112024 0.779825 0.629378 -0.149833
C84   C     C_R   0.124981 0.385561 0.780107 -0.222452
C85   C     C_R   0.879519 0.780918 0.381894 -0.227594
C86   C     C_R   0.875514 0.384674 0.219979 -0.222133
C87   C     C_R   0.874946 0.219909 0.614557 -0.221867
C88   C     C_R   0.875027 0.615342 0.780226 -0.221272
C89   C     C_R   0.779196 0.609653 0.128629 -0.221470
C90   C     C_R   0.385385 0.780180 0.125076 -0.222580
C91   C     C_R   0.219868 0.385370 0.125164 -0.222139
C92   C     C_R   0.613883 0.217973 0.127030 -0.225368
C93   C     C_R   0.219873 0.614626 0.874970 -0.222407
C94   C     C_R   0.614855 0.780059 0.875141 -0.221844
C95   C     C_R   0.780624 0.398043 0.862900 -0.252135
C96   C     C_R   0.387245 0.220460 0.874140 -0.221143
C97   C     C_R   0.885848 0.374529 0.280280 -0.222690
C98   C     C_R   0.720173 0.387985 0.870615 -0.149836
C99   C     C_R   0.114439 0.375018 0.719893 -0.222454
C100  C     C_R   0.280126 0.375017 0.114868 -0.223459
C101  C     C_R   0.884659 0.624974 0.719774 -0.221271
C102  C     C_R   0.719081 0.620479 0.118108 -0.227594
C103  C     C_R   0.115325 0.624486 0.280021 -0.222134
C104  C     C_R   0.280091 0.625054 0.885443 -0.221868
C105  C     C_R   0.625322 0.719844 0.885645 -0.223811
C106  C     C_R   0.625245 0.114362 0.719809 -0.222901
C107  C     C_R   0.623325 0.278538 0.118903 -0.215366
C108  C     C_R   0.625090 0.885395 0.280122 -0.222587
C109  C     C_R   0.376608 0.280580 0.884841 -0.224508
C110  C     C_R   0.375213 0.885077 0.719922 -0.219809
C111  C     C_R   0.374929 0.719963 0.114604 -0.222212
C112  C     C_R   0.374939 0.114694 0.280134 -0.222564
C113  C     C_R   0.279540 0.112756 0.625859 -0.221143
C114  C     C_R   0.885374 0.280127 0.625030 -0.222407
C115  C     C_R   0.719940 0.885146 0.624859 -0.221843
C116  C     C_R   0.101965 0.719374 0.637094 -0.252139
C117  C     C_R   0.719820 0.114615 0.374924 -0.222580
C118  C     C_R   0.114630 0.280132 0.374836 -0.222140
C119  C     C_R   0.282028 0.886111 0.372976 -0.225370
C120  C     C_R   0.890345 0.720804 0.371373 -0.221469
C121  C     C_R   0.457193 0.962111 0.717711 0.011825
C122  C     C_R   0.282642 0.962400 0.455820 0.011442
C123  C     C_R   0.542933 0.962274 0.282281 0.012360
C124  C     C_R   0.717746 0.962152 0.542826 0.012390
C125  C     C_R   0.457098 0.037797 0.282292 0.011862
C126  C     C_R   0.282129 0.036948 0.542645 0.010392
C127  C     C_R   0.542994 0.037632 0.717707 0.012678
C128  C     C_R   0.717705 0.037708 0.457053 0.012822
C129  C     C_R   0.037786 0.282272 0.457040 0.012350
C130  C     C_R   0.038094 0.542659 0.282286 0.011139
C131  C     C_R   0.035111 0.717398 0.546317 0.023454
C132  C     C_R   0.037534 0.457173 0.717734 0.013357
C133  C     C_R   0.963971 0.717876 0.456589 0.006395
C134  C     C_R   0.962477 0.456893 0.282313 0.012877
C135  C     C_R   0.962281 0.282284 0.542888 0.012623
C136  C     C_R   0.961769 0.542914 0.717656 0.010569
C137  C     C_R   0.717651 0.541280 0.038132 0.028466
C138  C     C_R   0.457123 0.717744 0.037769 0.011936
C139  C     C_R   0.282302 0.457081 0.037868 0.012572
C140  C     C_R   0.542429 0.282180 0.040244 0.022606
C141  C     C_R   0.282264 0.542877 0.962304 0.012214
C142  C     C_R   0.543038 0.717705 0.962379 0.013546
C143  C     C_R   0.717789 0.459497 0.957777 -0.019924
C144  C     C_R   0.457879 0.282351 0.962765 0.019374
C145  C     C_R   0.957341 0.461906 0.217714 0.011139
C146  C     C_R   0.782602 0.464890 0.953682 0.023453
C147  C     C_R   0.042827 0.462466 0.782266 0.013359
C148  C     C_R   0.217728 0.462213 0.042960 0.012351
C149  C     C_R   0.957086 0.538231 0.782344 0.010567
C150  C     C_R   0.782124 0.536028 0.043412 0.006395
C151  C     C_R   0.043106 0.537523 0.217687 0.012877
C152  C     C_R   0.217716 0.537719 0.957112 0.012623
C153  C     C_R   0.537848 0.782254 0.957174 0.012390
C154  C     C_R   0.537889 0.042807 0.782289 0.011825
C155  C     C_R   0.537598 0.217358 0.044181 0.011441
C156  C     C_R   0.537726 0.957067 0.217718 0.012361
C157  C     C_R   0.463052 0.217871 0.957355 0.010391
C158  C     C_R   0.462368 0.957006 0.782293 0.012678
C159  C     C_R   0.462292 0.782294 0.042947 0.012823
C160  C     C_R   0.462202 0.042901 0.217708 0.011860
C161  C     C_R   0.217649 0.042121 0.537234 0.019374
C162  C     C_R   0.957123 0.217736 0.537696 0.012214
C163  C     C_R   0.782295 0.956963 0.537621 0.013545
C164  C     C_R   0.040505 0.782211 0.542222 -0.019924
C165  C     C_R   0.782256 0.042876 0.462232 0.011936
C166  C     C_R   0.042918 0.217698 0.462131 0.012571
C167  C     C_R   0.217820 0.957570 0.459757 0.022605
C168  C     C_R   0.958720 0.782349 0.461868 0.028466
C169  C     C_R   0.500030 0.999935 0.685640 -0.195500
C170  C     C_R   0.314378 0.999728 0.499476 -0.193938
C171  C     C_R   0.500033 0.000037 0.314358 -0.196371
C172  C     C_R   0.685648 0.999955 0.499960 -0.195679
C173  C     C_R   0.000041 0.314351 0.499989 -0.195701
C174  C     C_R   0.000155 0.499901 0.314361 -0.196646
C175  C     C_R   0.000081 0.685620 0.500751 -0.193293
C176  C     C_R   0.999687 0.499978 0.685643 -0.199551
C177  C     C_R   0.685643 0.499658 0.998892 -0.190677
C178  C     C_R   0.500069 0.685648 0.000053 -0.197415
C179  C     C_R   0.314354 0.499956 0.000053 -0.197425
C180  C     C_R   0.500419 0.314348 0.001081 -0.176102
C181  C     C_R   0.000099 0.499844 0.185639 -0.196647
C182  C     C_R   0.814380 0.499919 0.999249 -0.193292
C183  C     C_R   0.000022 0.500313 0.814357 -0.199553
C184  C     C_R   0.185649 0.499959 0.000010 -0.195701
C185  C     C_R   0.500045 0.814352 0.000040 -0.195679
C186  C     C_R   0.500065 0.999970 0.814360 -0.195501
C187  C     C_R   0.500271 0.185622 0.000524 -0.193936
C188  C     C_R   0.499962 0.999967 0.185642 -0.196372
C189  C     C_R   0.185652 0.999580 0.498919 -0.176102
C190  C     C_R   0.000044 0.185646 0.499947 -0.197425
C191  C     C_R   0.814352 0.999931 0.499947 -0.197415
C192  C     C_R   0.000342 0.814357 0.501108 -0.190676
Cu1   Cu    Cu3+1 0.561820 0.000000 0.000000 0.922340
Cu2   Cu    Cu3+1 0.000000 0.000000 0.561820 0.910364
Cu3   Cu    Cu3+1 0.438180 0.000000 0.000000 0.921642
Cu4   Cu    Cu3+1 0.000000 1.000000 0.438180 0.918825
Cu5   Cu    Cu3+1 0.000000 0.438180 0.000000 0.923010
Cu6   Cu    Cu3+1 1.000000 0.561820 0.000000 0.921759
Cu7   Cu    Cu3+1 0.061820 0.500000 0.500000 0.923009
Cu8   Cu    Cu3+1 0.500000 0.500000 0.061820 0.918823
Cu9   Cu    Cu3+1 0.938180 0.500000 0.500000 0.921759
Cu10  Cu    Cu3+1 0.500000 0.500000 0.938180 0.910364
Cu11  Cu    Cu3+1 0.500000 0.938180 0.500000 0.922340
Cu12  Cu    Cu3+1 0.500000 0.061820 0.500000 0.921642
H1    H     H_    0.641010 0.159890 0.802966 0.141514
H2    H     H_    0.196425 0.158358 0.641359 0.137188
H3    H     H_    0.359296 0.160219 0.196957 0.136941
H4    H     H_    0.802904 0.160271 0.359437 0.137124
H5    H     H_    0.640570 0.839710 0.196977 0.137286
H6    H     H_    0.198990 0.842447 0.353499 0.137479
H7    H     H_    0.359722 0.839568 0.803123 0.137548
H8    H     H_    0.803058 0.839445 0.640271 0.137206
H9    H     H_    0.839756 0.197026 0.640515 0.137412
H10   H     H_    0.840500 0.358454 0.197103 0.137580
H11   H     H_    0.845171 0.803989 0.354956 0.137591
H12   H     H_    0.840143 0.641657 0.803213 0.136831
H13   H     H_    0.143754 0.802517 0.659680 0.148809
H14   H     H_    0.160646 0.640050 0.196749 0.137096
H15   H     H_    0.160094 0.196976 0.359045 0.136962
H16   H     H_    0.160206 0.359619 0.802996 0.137287
H17   H     H_    0.803785 0.375496 0.825554 0.138464
H18   H     H_    0.640868 0.802930 0.839973 0.137115
H19   H     H_    0.196982 0.640624 0.839781 0.136912
H20   H     H_    0.361683 0.197757 0.838515 0.137319
H21   H     H_    0.196957 0.359386 0.160328 0.137090
H22   H     H_    0.359403 0.803086 0.160265 0.137046
H23   H     H_    0.801819 0.634452 0.164841 0.137552
H24   H     H_    0.639822 0.194352 0.161787 0.137202
H25   H     H_    0.141545 0.659500 0.302897 0.137580
H26   H     H_    0.696011 0.654827 0.145047 0.137591
H27   H     H_    0.858344 0.659858 0.696787 0.136831
H28   H     H_    0.302974 0.660244 0.859485 0.137413
H29   H     H_    0.140381 0.339794 0.697004 0.137288
H30   H     H_    0.697481 0.356257 0.840310 0.148806
H31   H     H_    0.859951 0.339353 0.303251 0.137096
H32   H     H_    0.303024 0.339906 0.140954 0.136963
H33   H     H_    0.339728 0.697096 0.140563 0.137124
H34   H     H_    0.340110 0.858990 0.697034 0.141514
H35   H     H_    0.341643 0.303575 0.858639 0.137188
H36   H     H_    0.339779 0.140701 0.303044 0.136942
H37   H     H_    0.657546 0.301011 0.146508 0.137479
H38   H     H_    0.660432 0.140278 0.696877 0.137547
H39   H     H_    0.660555 0.696942 0.859729 0.137206
H40   H     H_    0.660291 0.859431 0.303022 0.137286
H41   H     H_    0.305649 0.860169 0.338221 0.137202
H42   H     H_    0.140614 0.303043 0.339671 0.137090
H43   H     H_    0.696914 0.140597 0.339735 0.137045
H44   H     H_    0.865545 0.698180 0.335161 0.137551
H45   H     H_    0.697069 0.859133 0.660027 0.137115
H46   H     H_    0.859377 0.303018 0.660219 0.136912
H47   H     H_    0.302243 0.138318 0.661484 0.137320
H48   H     H_    0.124514 0.696213 0.674437 0.138464
O1    O     O_R   0.552210 0.090180 0.999970 -0.584385
O2    O     O_R   0.000030 0.090180 0.552210 -0.584062
O3    O     O_R   0.447790 0.090180 0.000030 -0.586255
O4    O     O_R   0.999970 0.090180 0.447790 -0.583952
O5    O     O_R   0.552210 0.909820 0.000030 -0.585741
O6    O     O_R   0.000030 0.909820 0.447790 -0.573635
O7    O     O_R   0.447790 0.909820 0.999970 -0.585834
O8    O     O_R   0.999970 0.909820 0.552210 -0.609204
O9    O     O_R   0.909820 0.000030 0.552210 -0.582716
O10   O     O_R   0.909820 0.447790 0.000030 -0.583813
O11   O     O_R   0.909820 0.999970 0.447790 -0.584948
O12   O     O_R   0.909820 0.552210 0.999970 -0.585057
O13   O     O_R   0.090180 0.999970 0.552210 -0.596621
O14   O     O_R   0.090180 0.552210 0.000030 -0.585847
O15   O     O_R   0.090180 0.000030 0.447790 -0.579331
O16   O     O_R   0.090180 0.447790 0.999970 -0.585793
O17   O     O_R   0.999970 0.447790 0.909820 -0.583974
O18   O     O_R   0.552210 0.999970 0.909820 -0.585561
O19   O     O_R   0.000030 0.552210 0.909820 -0.584534
O20   O     O_R   0.447790 0.000030 0.909820 -0.585720
O21   O     O_R   0.000030 0.447790 0.090180 -0.585112
O22   O     O_R   0.447790 0.999970 0.090180 -0.585478
O23   O     O_R   0.999970 0.552210 0.090180 -0.585484
O24   O     O_R   0.552210 0.000030 0.090180 -0.586159
O25   O     O_R   0.052210 0.590180 0.499970 -0.583815
O26   O     O_R   0.500030 0.590180 0.052210 -0.584948
O27   O     O_R   0.947790 0.590180 0.500030 -0.585056
O28   O     O_R   0.499970 0.590180 0.947790 -0.582716
O29   O     O_R   0.052210 0.409820 0.500030 -0.585793
O30   O     O_R   0.500030 0.409820 0.947790 -0.596622
O31   O     O_R   0.947790 0.409820 0.499970 -0.585847
O32   O     O_R   0.499970 0.409820 0.052210 -0.579334
O33   O     O_R   0.409820 0.500030 0.052210 -0.583952
O34   O     O_R   0.409820 0.947790 0.500030 -0.584385
O35   O     O_R   0.409820 0.499970 0.947790 -0.584062
O36   O     O_R   0.409820 0.052210 0.499970 -0.586256
O37   O     O_R   0.590180 0.499970 0.052210 -0.573637
O38   O     O_R   0.590180 0.052210 0.500030 -0.585834
O39   O     O_R   0.590180 0.500030 0.947790 -0.609204
O40   O     O_R   0.590180 0.947790 0.499970 -0.585741
O41   O     O_R   0.499970 0.947790 0.409820 -0.586159
O42   O     O_R   0.052210 0.499970 0.409820 -0.585112
O43   O     O_R   0.500030 0.052210 0.409820 -0.585479
O44   O     O_R   0.947790 0.500030 0.409820 -0.585484
O45   O     O_R   0.500030 0.947790 0.590180 -0.585561
O46   O     O_R   0.947790 0.499970 0.590180 -0.584535
O47   O     O_R   0.499970 0.052210 0.590180 -0.585720
O48   O     O_R   0.052210 0.500030 0.590180 -0.583976
N1    N     N_3   0.437278 0.891078 0.873806 -0.565747
H49   H     H_    0.395560 0.895725 0.896369 0.234803
H50   H     H_    0.447900 0.844651 0.874502 0.208041
N2    N     N_3   0.125635 0.895134 0.426345 -0.592013
H51   H     H_    0.105967 0.902439 0.383519 0.236088
H52   H     H_    0.122194 0.848457 0.435425 0.198173
N3    N     N_3   0.562868 0.891051 0.126257 -0.565990
H53   H     H_    0.604563 0.895696 0.103660 0.234656
H54   H     H_    0.552298 0.844619 0.125610 0.208101
N4    N     N_3   0.873771 0.891025 0.562775 -0.559321
H55   H     H_    0.896304 0.895723 0.604526 0.236177
H56   H     H_    0.874540 0.844587 0.552193 0.209277
N5    N     N_3   0.436866 0.108808 0.126211 -0.566093
H57   H     H_    0.395132 0.104168 0.103665 0.234529
H58   H     H_    0.447488 0.155226 0.125530 0.207251
N6    N     N_3   0.126545 0.108864 0.561811 -0.561864
H59   H     H_    0.103360 0.104458 0.603225 0.236465
H60   H     H_    0.126710 0.155340 0.551398 0.206354
N7    N     N_3   0.563514 0.108634 0.873818 -0.564573
H61   H     H_    0.605257 0.103713 0.896293 0.236009
H62   H     H_    0.553166 0.155122 0.874616 0.212111
N8    N     N_3   0.873657 0.108853 0.437061 -0.566424
H63   H     H_    0.896218 0.104168 0.395330 0.234572
H64   H     H_    0.874328 0.155290 0.447638 0.208159
N9    N     N_3   0.108648 0.126147 0.436445 -0.561816
H65   H     H_    0.103712 0.103731 0.394657 0.234730
H66   H     H_    0.155131 0.125252 0.446818 0.207783
N10   N     N_3   0.108907 0.562686 0.126086 -0.565669
H67   H     H_    0.104246 0.604442 0.103593 0.234646
H68   H     H_    0.155326 0.552039 0.125291 0.208028
N11   N     N_3   0.111164 0.870154 0.574114 -0.602016
H69   H     H_    0.093452 0.900014 0.606656 0.255390
H70   H     H_    0.107088 0.885667 0.530304 0.237657
N12   N     N_3   0.108975 0.437392 0.873677 -0.566164
H71   H     H_    0.104364 0.395715 0.896313 0.234785
H72   H     H_    0.155411 0.447949 0.874244 0.208045
N13   N     N_3   0.891323 0.872975 0.437367 -0.561290
H73   H     H_    0.895740 0.896999 0.396438 0.235375
H74   H     H_    0.844756 0.871765 0.447314 0.206248
N14   N     N_3   0.891666 0.435819 0.126135 -0.564631
H75   H     H_    0.896799 0.394042 0.103768 0.234809
H76   H     H_    0.845138 0.445971 0.125231 0.208501
N15   N     N_3   0.891122 0.126336 0.562812 -0.566414
H77   H     H_    0.895781 0.103745 0.604529 0.234954
H78   H     H_    0.844687 0.125700 0.552223 0.208042
N16   N     N_3   0.891991 0.564921 0.874219 -0.565414
H79   H     H_    0.897259 0.606830 0.896303 0.234352
H80   H     H_    0.845487 0.554783 0.875459 0.207649
N17   N     N_3   0.873855 0.561335 0.109150 -0.565337
H81   H     H_    0.895184 0.603705 0.104698 0.234041
H82   H     H_    0.875770 0.550156 0.155425 0.208210
N18   N     N_3   0.437134 0.873722 0.108971 -0.566083
H83   H     H_    0.395443 0.896338 0.104305 0.234624
H84   H     H_    0.447712 0.874358 0.155432 0.208047
N19   N     N_3   0.126258 0.436965 0.108868 -0.565764
H85   H     H_    0.103726 0.395250 0.104156 0.234578
H86   H     H_    0.125538 0.447535 0.155330 0.208161
N20   N     N_3   0.562685 0.124872 0.108903 -0.564529
H87   H     H_    0.604520 0.102538 0.104107 0.235483
H88   H     H_    0.551910 0.123452 0.155297 0.207840
N21   N     N_3   0.126280 0.563010 0.891112 -0.565765
H89   H     H_    0.103714 0.604721 0.895843 0.234453
H90   H     H_    0.125596 0.552493 0.844636 0.208160
N22   N     N_3   0.562985 0.873611 0.891093 -0.566035
H91   H     H_    0.604646 0.896251 0.895772 0.234671
H92   H     H_    0.552444 0.874182 0.844622 0.208096
N23   N     N_3   0.876295 0.438477 0.891007 -0.560085
H93   H     H_    0.894927 0.394815 0.895302 0.233462
H94   H     H_    0.881673 0.450859 0.845339 0.209041
N24   N     N_3   0.438001 0.126538 0.891034 -0.566481
H95   H     H_    0.396116 0.104278 0.895506 0.234438
H96   H     H_    0.448798 0.125678 0.844632 0.208409
N25   N     N_3   0.937314 0.391093 0.373914 -0.565669
H97   H     H_    0.895558 0.395755 0.396407 0.234646
H98   H     H_    0.947961 0.344674 0.374709 0.208028
N26   N     N_3   0.629847 0.388836 0.925884 -0.602011
H99   H     H_    0.599985 0.406546 0.893342 0.255385
H100  H     H_    0.614334 0.392914 0.969694 0.237659
N27   N     N_3   0.062608 0.391025 0.626323 -0.566164
H101  H     H_    0.104285 0.395636 0.603687 0.234785
H102  H     H_    0.052051 0.344589 0.625756 0.208045
N28   N     N_3   0.373853 0.391351 0.063555 -0.561817
H103  H     H_    0.396269 0.396287 0.105342 0.234730
H104  H     H_    0.374748 0.344869 0.053181 0.207784
N29   N     N_3   0.935079 0.608009 0.625781 -0.565413
H105  H     H_    0.893170 0.602741 0.603697 0.234352
H106  H     H_    0.945218 0.654513 0.624540 0.207650
N30   N     N_3   0.627025 0.608677 0.062634 -0.561291
H107  H     H_    0.603001 0.604259 0.103563 0.235375
H108  H     H_    0.628236 0.655243 0.052687 0.206248
N31   N     N_3   0.064180 0.608334 0.373865 -0.564632
H109  H     H_    0.105957 0.603201 0.396232 0.234810
H110  H     H_    0.054028 0.654862 0.374769 0.208501
N32   N     N_3   0.373664 0.608878 0.937188 -0.566414
H111  H     H_    0.396255 0.604219 0.895471 0.234953
H112  H     H_    0.374300 0.655312 0.947777 0.208042
N33   N     N_3   0.608975 0.626229 0.937226 -0.559321
H113  H     H_    0.604277 0.603696 0.895475 0.236177
H114  H     H_    0.655413 0.625460 0.947808 0.209276
N34   N     N_3   0.608922 0.062722 0.626194 -0.565747
H115  H     H_    0.604275 0.104440 0.603631 0.234803
H116  H     H_    0.655349 0.052100 0.625498 0.208041
N35   N     N_3   0.604868 0.374365 0.073652 -0.592021
H117  H     H_    0.597564 0.394036 0.116476 0.236091
H118  H     H_    0.651545 0.377801 0.064572 0.198174
N36   N     N_3   0.608949 0.937132 0.373743 -0.565991
H119  H     H_    0.604304 0.895437 0.396340 0.234656
H120  H     H_    0.655380 0.947703 0.374390 0.208101
N37   N     N_3   0.391136 0.373455 0.938188 -0.561863
H121  H     H_    0.395542 0.396640 0.896774 0.236464
H122  H     H_    0.344660 0.373290 0.948601 0.206354
N38   N     N_3   0.391365 0.936486 0.626182 -0.564573
H123  H     H_    0.396287 0.894743 0.603707 0.236009
H124  H     H_    0.344878 0.946834 0.625384 0.212110
N39   N     N_3   0.391147 0.626343 0.062939 -0.566424
H125  H     H_    0.395832 0.603782 0.104670 0.234572
H126  H     H_    0.344710 0.625672 0.052362 0.208159
N40   N     N_3   0.391191 0.063132 0.373790 -0.566094
H127  H     H_    0.395831 0.104866 0.396335 0.234529
H128  H     H_    0.344773 0.052509 0.374470 0.207250
N41   N     N_3   0.373461 0.062000 0.608966 -0.566481
H129  H     H_    0.395722 0.103884 0.604494 0.234438
H130  H     H_    0.374321 0.051202 0.655368 0.208409
N42   N     N_3   0.936990 0.373720 0.608888 -0.565765
H131  H     H_    0.895279 0.396286 0.604157 0.234453
H132  H     H_    0.947507 0.374404 0.655363 0.208160
N43   N     N_3   0.626389 0.937015 0.608907 -0.566035
H133  H     H_    0.603749 0.895354 0.604228 0.234671
H134  H     H_    0.625818 0.947556 0.655378 0.208095
N44   N     N_3   0.061522 0.623705 0.608994 -0.560088
H135  H     H_    0.105183 0.605070 0.604698 0.233464
H136  H     H_    0.049141 0.618330 0.654662 0.209040
N45   N     N_3   0.626278 0.062866 0.391029 -0.566083
H137  H     H_    0.603662 0.104557 0.395694 0.234624
H138  H     H_    0.625642 0.052288 0.344568 0.208047
N46   N     N_3   0.063034 0.373742 0.391132 -0.565764
H139  H     H_    0.104750 0.396274 0.395844 0.234578
H140  H     H_    0.052465 0.374462 0.344670 0.208162
N47   N     N_3   0.375128 0.937313 0.391098 -0.564529
H141  H     H_    0.397463 0.895479 0.395894 0.235483
H142  H     H_    0.376546 0.948087 0.344703 0.207840
N48   N     N_3   0.938665 0.626145 0.390850 -0.565338
H143  H     H_    0.896295 0.604815 0.395303 0.234041
H144  H     H_    0.949843 0.624231 0.344575 0.208211

loop_
_geom_bond_atom_site_label_1
_geom_bond_atom_site_label_2
_ccdc_geom_bond_type
Cu2   Cu4   S    
N43   H133  S    
C71   C122  A    
Cu12  O38   S    
C42   C159  A    
C11   C181  S    
C39   C87   A    
Cu9   O31   S    
N13   H73   S    
N1    H49   S    
C130  C174  A    
C53   C136  A    
C111  H33   S    
C135  C173  A    
N35   H118  S    
C85   H11   S    
C17   O35   A    
C64   C112  A    
C18   O36   A    
C97   H31   S    
C99   H29   S    
Cu12  O43   S    
C11   O21   A    
C38   N14   S    
C33   C166  A    
C62   N38   S    
C122  C170  A    
Cu7   O42   S    
Cu8   O37   S    
C91   C100  A    
C48   C96   A    
C44   C92   A    
C14   O26   A    
C47   C146  A    
C4    O8    A    
C5    O9    A    
C70   N46   S    
C27   C75   A    
C2    O2    A    
C37   C168  A    
C123  C156  A    
C109  H35   S    
C26   C167  A    
N4    H56   S    
C15   C173  S    
N14   H75   S    
C34   N10   S    
Cu9   O46   S    
C70   C129  A    
Cu11  O40   S    
Cu1   O1    S    
C16   O32   A    
Cu12  O47   S    
Cu5   O10   S    
C32   C80   A    
C61   C144  A    
C98   H30   S    
C124  C172  A    
N18   H83   S    
Cu3   O22   S    
C93   H19   S    
C35   N11   S    
C68   C116  A    
C56   C141  A    
C161  C189  A    
C20   C172  S    
N36   H120  S    
C100  H32   S    
C78   C113  A    
Cu5   O17   S    
C24   C176  S    
C65   N41   S    
C162  C190  A    
N46   H139  S    
Cu10  O30   S    
C27   C156  A    
C13   C175  S    
C46   C153  A    
C80   C117  A    
Cu12  O36   S    
C122  C167  A    
C134  C174  A    
C65   C113  A    
C90   H22   S    
Cu3   O7    S    
C2    C190  S    
C118  H42   S    
C18   O34   A    
C68   C131  A    
C96   C109  A    
C168  C192  A    
C71   C119  A    
C20   O38   A    
C40   C88   A    
Cu5   O16   S    
N33   H114  S    
C155  C187  A    
C72   C133  A    
C131  C164  A    
C3    O7    A    
C140  C180  A    
C63   C111  A    
C23   C169  S    
N44   H136  S    
C139  C179  A    
N32   H111  S    
C49   C97   A    
Cu8   Cu10  S    
C64   C125  A    
C5    O11   A    
C68   N44   S    
C107  H37   S    
C6    O12   A    
C67   N43   S    
N37   H121  S    
C105  H39   S    
N29   H106  S    
C41   C89   A    
C136  C176  A    
N17   H81   S    
Cu8   O32   S    
C45   C93   A    
N24   H95   S    
C125  C160  A    
C73   C110  A    
C154  C186  A    
C72   N48   S    
C57   C142  A    
C6    C182  S    
C59   C140  A    
N38   H123  S    
C29   N5    S    
N47   H142  S    
N5    H58   S    
C145  C181  A    
C52   C139  A    
C17   O33   A    
N22   H91   S    
C32   N8    S    
N9    H66   S    
C86   C97   A    
C84   H16   S    
C144  C180  A    
C69   C128  A    
N22   H92   S    
N30   H107  S    
C112  H36   S    
C61   N37   S    
Cu11  O45   S    
N39   H126  S    
C19   C177  S    
C66   N42   S    
C124  C163  A    
C76   H8    S    
N2    H52   S    
C36   N12   S    
C90   C111  A    
C125  C171  A    
C3    C185  S    
C127  C154  A    
N26   H100  S    
C29   C160  A    
N40   H128  S    
C1    C187  S    
C167  C189  A    
C139  C148  A    
C50   C98   A    
C20   O40   A    
C21   O41   A    
C5    C191  S    
N34   H116  S    
C6    O10   A    
C133  C168  A    
N12   H71   S    
Cu6   O23   S    
C40   N16   S    
C3    O5    A    
C52   C100  A    
C59   C107  A    
Cu8   O33   S    
C66   C135  A    
C79   C106  A    
C42   C90   A    
C60   C123  A    
C7    O15   A    
C86   H10   S    
C126  C170  A    
C51   N27   S    
N16   H80   S    
C46   C94   A    
C55   C130  A    
C72   C120  A    
Cu11  O41   S    
C39   C162  A    
N20   H88   S    
C133  C175  A    
C14   C178  S    
N42   H131  S    
N19   H86   S    
C43   N19   S    
Cu8   O26   S    
C121  C158  A    
N15   H78   S    
C19   O37   A    
C128  C165  A    
C137  C150  A    
C31   C154  A    
C102  H26   S    
N31   H110  S    
C9    O17   A    
C80   H4    S    
C132  C147  A    
C73   H7    S    
C7    C189  S    
C157  C187  A    
N34   H115  S    
C30   N6    S    
C110  H34   S    
C115  H45   S    
C127  C169  A    
C113  H47   S    
C33   N9    S    
C65   C126  A    
C159  C185  A    
C119  H41   S    
N33   H113  S    
C142  C178  A    
C70   C118  A    
C129  C173  A    
C10   C186  S    
C25   C73   A    
C143  C177  A    
Cu5   Cu6   S    
C29   C77   A    
C64   N40   S    
C18   C170  S    
C25   C158  A    
C94   H18   S    
C28   N4    S    
C19   O39   A    
C120  H44   S    
C144  C157  A    
C164  C192  A    
C16   C180  S    
C141  C152  A    
C103  H25   S    
C143  C146  A    
C94   C105  A    
N28   H103  S    
Cu3   O3    S    
C56   N32   S    
C4    C192  S    
C121  C169  A    
C21   O43   A    
Cu11  Cu12  S    
C22   O44   A    
N7    H62   S    
C136  C149  A    
N27   H101  S    
C150  C182  A    
C50   C143  A    
Cu1   O24   S    
C135  C162  A    
N21   H90   S    
C82   H14   S    
C95   H17   S    
N14   H76   S    
N25   H98   S    
C83   H13   S    
C54   C137  A    
C147  C183  A    
C81   H15   S    
C76   C115  A    
N6    H60   S    
C132  C176  A    
C7    O13   A    
C43   C148  A    
N35   H117  S    
C53   C101  A    
N45   H138  S    
N18   H84   S    
Cu1   O5    S    
C126  C161  A    
C60   C108  A    
C8    O16   A    
N1    H50   S    
N8    H63   S    
C9    O19   A    
C75   C108  A    
C10   O20   A    
C32   C165  A    
C106  H38   S    
C55   N31   S    
C158  C186  A    
N13   H74   S    
C1    O1    A    
C151  C181  A    
C156  C188  A    
N28   H104  S    
C146  C182  A    
N3    H53   S    
C56   C104  A    
C8    O14   A    
C12   O22   A    
C35   C83   A    
N10   H67   S    
C41   C150  A    
N11   H70   S    
C21   C171  S    
C44   N20   S    
C81   C118  A    
Cu2   O2    S    
C2    O4    A    
C59   N35   S    
N47   H141  S    
C78   H2    S    
C9    C183  S    
N46   H140  S    
N43   H134  S    
C36   C147  A    
C39   N15   S    
N23   H94   S    
Cu4   O6    S    
N32   H112  S    
C50   N26   S    
C129  C166  A    
C38   C86   A    
Cu10  O39   S    
C22   O42   A    
C23   O47   A    
N29   H105  S    
C134  C145  A    
N4    H55   S    
C75   H5    S    
C66   C114  A    
C141  C179  A    
C84   C99   A    
C54   C102  A    
Cu4   O11   S    
N24   H96   S    
C51   C132  A    
C48   C157  A    
Cu4   O4    S    
C35   C164  A    
C45   C152  A    
N38   H124  S    
Cu9   O27   S    
Cu6   O12   S    
N15   H77   S    
C37   N13   S    
N5    H57   S    
Cu7   O25   S    
C131  C175  A    
C165  C191  A    
C45   N21   S    
C40   C149  A    
Cu2   O8    S    
N41   H129  S    
N9    H65   S    
N27   H102  S    
C140  C155  A    
N7    H61   S    
C71   N47   S    
C92   H24   S    
N30   H108  S    
C10   O18   A    
C130  C151  A    
C149  C183  A    
C52   N28   S    
N36   H119  S    
N6    H59   S    
C30   C161  A    
C123  C171  A    
C1    O3    A    
C12   C188  S    
C57   C105  A    
C49   C134  A    
C25   N1    S    
C89   C102  A    
C77   C112  A    
Cu2   O9    S    
C15   O31   A    
N23   H93   S    
N11   H69   S    
C61   C109  A    
C67   C124  A    
C12   O24   A    
C88   C101  A    
C95   C98   A    
C13   O25   A    
N31   H109  S    
C60   N36   S    
C74   C119  A    
C74   H6    S    
C37   C85   A    
Cu6   O14   S    
N12   H72   S    
C104  H28   S    
C53   N29   S    
C114  H46   S    
C55   C103  A    
Cu5   O21   S    
C48   N24   S    
C67   C115  A    
N44   H135  S    
C87   C114  A    
C138  C159  A    
N19   H85   S    
Cu1   Cu3   S    
N8    H64   S    
C41   N17   S    
C82   C103  A    
C152  C184  A    
C54   N30   S    
C23   O45   A    
C8    C184  S    
N42   H132  S    
C58   C127  A    
N41   H130  S    
C91   H21   S    
Cu1   O18   S    
Cu2   O13   S    
C89   H23   S    
C47   N23   S    
Cu3   O20   S    
C93   C104  A    
C22   C174  S    
C117  H43   S    
C51   C99   A    
C27   N3    S    
C58   N34   S    
C79   H1    S    
N10   H68   S    
C116  H48   S    
Cu7   O29   S    
C96   H20   S    
C43   C91   A    
C58   C106  A    
C85   C120  A    
C38   C145  A    
C24   O46   A    
C92   C107  A    
N39   H125  S    
C62   C110  A    
C63   N39   S    
C148  C184  A    
C108  H40   S    
C87   H9    S    
C101  H27   S    
C24   O48   A    
C11   O23   A    
Cu6   O19   S    
Cu10  O35   S    
C42   N18   S    
Cu11  O34   S    
N2    H51   S    
C128  C172  A    
C63   C138  A    
C15   O29   A    
N37   H122  S    
C160  C188  A    
N48   H144  S    
C138  C178  A    
N26   H99   S    
C13   O27   A    
N40   H127  S    
C14   O28   A    
C4    O6    A    
C88   H12   S    
C69   N45   S    
C44   C155  A    
C83   C116  A    
Cu10  O28   S    
C49   N25   S    
C46   N22   S    
C163  C191  A    
C34   C151  A    
C31   C79   A    
C57   N33   S    
C34   C82   A    
N21   H89   S    
C26   N2    S    
N48   H143  S    
N3    H54   S    
N25   H97   S    
C77   H3    S    
C17   C179  S    
N16   H79   S    
C153  C185  A    
C36   C84   A    
Cu9   O44   S    
C69   C117  A    
C26   C74   A    
C142  C153  A    
C16   O30   A    
N20   H87   S    
C166  C190  A    
Cu7   Cu9   S    
C30   C78   A    
C31   N7    S    
C137  C177  A    
C28   C163  A    
N17   H82   S    
N45   H137  S    
C47   C95   A    
Cu7   O48   S    
Cu4   O15   S    
C33   C81   A    
C62   C121  A    
C28   C76   A    
