data_mof_unit_64100.cif
_audit_creation_date              2012-10-26T20:55:12-0400
_audit_creation_method            fapswitch 2.2
_symmetry_space_group_name_H-M    P1
_symmetry_Int_Tables_number       1
_space_group_crystal_system       triclinic
_cell_length_a                    10.815298
_cell_length_b                    15.910753
_cell_length_c                    16.965298
_cell_angle_alpha                 95.77956
_cell_angle_beta                  92.831429
_cell_angle_gamma                 92.37182
_cell_volume                      2897.83594838

loop_
_atom_site_label
_atom_site_type_symbol
_atom_type_description
_atom_site_fract_x
_atom_site_fract_y
_atom_site_fract_z
_atom_type_partial_charge
C1    C     C_R   0.501730 0.489897 0.348542 0.585785
C2    C     C_R   0.428913 0.425623 0.214784 0.398948
C3    C     C_R   0.401209 0.468311 0.855553 0.225483
C4    C     C_R   0.260017 0.500263 0.500347 0.672990
C5    C     C_R   0.411523 0.459693 0.772512 0.246466
C6    C     C_R   0.477025 0.530563 0.903401 0.178583
C7    C     C_R   0.491682 0.515942 0.738094 -0.001578
C8    C     C_R   0.560547 0.580360 0.785781 0.309776
C9    C     C_R   0.553355 0.587890 0.868543 0.261194
C10   C     C_R   0.429915 0.755204 0.467066 0.380434
C11   C     C_R   0.427476 0.843904 0.476844 0.255306
C12   C     C_3   0.878501 0.500847 0.500595 -0.090374
C13   C     C_R   0.519397 0.891868 0.525862 0.152112
C14   C     C_R   0.603600 0.847672 0.569760 0.347542
C15   C     C_R   0.599327 0.757494 0.562068 0.373668
C16   C     C_R   0.499304 0.510165 0.651520 0.621694
C17   C     C_R   0.559549 0.161844 0.545486 0.253375
C18   C     C_R   0.548421 0.249997 0.549253 0.409811
C19   C     C_R   0.500453 0.108409 0.481945 0.163890
C20   C     C_R   0.425676 0.236253 0.428341 0.329138
C21   C     C_R   0.434957 0.146610 0.422614 0.266536
C22   C     C_R   0.740154 0.500060 0.499997 0.619893
C23   C     C_3   0.931614 0.456515 0.573213 0.485312
C24   C     C_3   0.062916 0.446651 0.423891 0.550705
C25   C     C_3   0.918641 0.452202 0.421611 0.670457
C26   C     C_3   0.076087 0.461757 0.576141 0.645124
C27   C     C_3   0.077197 0.594312 0.500026 0.543984
C28   C     C_3   0.122239 0.500766 0.500778 -0.139435
C29   C     C_3   0.934102 0.594598 0.506321 0.511011
C30   C     C_R   0.508790 0.484327 0.261928 -0.088547
C31   C     C_R   0.594467 0.536023 0.225138 0.235146
C32   C     C_R   0.596437 0.529129 0.142234 0.284915
C33   C     C_R   0.511842 0.471531 0.095772 0.110252
C34   C     C_R   0.431394 0.418968 0.132576 0.436093
Cu1   Cu    Cu3+1 0.493900 0.415220 0.496180 1.166368
Cu2   Cu    Cu3+1 0.506100 0.584780 0.503820 1.176011
F1    F     F_    0.123150 0.509043 0.644892 -0.546785
F2    F     F_    0.891440 0.371688 0.564881 -0.553535
F3    F     F_    0.104826 0.623039 0.428041 -0.421048
F4    F     F_    0.883296 0.635282 0.444097 -0.483065
F5    F     F_    0.351353 0.363204 0.088086 -0.486814
F6    F     F_    0.344349 0.376899 0.248240 -0.481184
F7    F     F_    0.638103 0.633850 0.751865 -0.570453
F8    F     F_    0.107049 0.479242 0.357206 -0.431105
F9    F     F_    0.689043 0.892520 0.620418 -0.561832
F10   F     F_    0.880215 0.494092 0.357550 -0.472552
F11   F     F_    0.860680 0.372077 0.409516 -0.524741
F12   F     F_    0.120519 0.381765 0.580851 -0.500849
H1    H     H_    0.049683 0.329717 0.454439 0.404321
H2    H     H_    0.686667 0.088418 0.576151 0.381359
H3    H     H_    0.728298 0.754229 0.645807 0.395545
H4    H     H_    0.326782 0.323824 0.392531 0.419723
H5    H     H_    0.310307 0.932545 0.472283 0.368163
H6    H     H_    0.337166 0.127476 0.321580 0.408378
H7    H     H_    0.357531 0.656402 0.402732 0.387457
H8    H     H_    0.115800 0.641379 0.612021 0.378975
H9    H     H_    0.916914 0.700195 0.572734 0.395964
H10   H     H_    0.804289 0.473218 0.650448 0.351827
H11   H     H_    0.290895 0.363360 0.754749 0.418286
H12   H     H_    0.295271 0.443113 0.940605 0.397318
H13   H     H_    0.695664 0.554139 0.053871 0.377388
H14   H     H_    0.671696 0.684882 0.885027 0.406410
H15   H     H_    0.692371 0.577352 0.322117 0.390656
H16   H     H_    0.660017 0.339940 0.594369 0.376256
N1    N     N_2   0.504767 0.466156 0.012088 -0.163841
N2    N     N_2   0.481631 0.535204 0.987188 -0.158239
N3    N     N_R   0.515260 0.712130 0.509560 -0.296295
N4    N     N_2   0.523873 0.982940 0.536478 -0.149793
N5    N     N_2   0.503287 0.017227 0.473982 -0.141663
N6    N     N_R   0.484730 0.287850 0.490450 -0.306203
O1    O     O_R   0.494300 0.420530 0.382500 -0.452036
O2    O     O_3   0.902815 0.638994 0.578062 -0.610512
O3    O     O_3   0.890530 0.494900 0.645164 -0.522777
O4    O     O_3   0.340794 0.399628 0.723052 -0.544097
O5    O     O_3   0.315686 0.416543 0.887829 -0.594518
O6    O     O_3   0.684817 0.577914 0.109143 -0.513731
O7    O     O_3   0.622619 0.648929 0.917553 -0.590269
O8    O     O_3   0.680488 0.592210 0.267234 -0.499234
O9    O     O_3   0.606204 0.296435 0.614243 -0.555507
O10   O     O_3   0.635243 0.131596 0.602960 -0.540849
O11   O     O_3   0.676665 0.713782 0.608453 -0.538147
O12   O     O_R   0.504600 0.563720 0.388950 -0.555997
O13   O     O_3   0.355507 0.269209 0.370189 -0.573682
O14   O     O_3   0.330643 0.880634 0.439126 -0.528838
O15   O     O_3   0.378253 0.093772 0.360303 -0.579005
O16   O     O_3   0.337218 0.714878 0.416916 -0.501910
O17   O     O_3   0.140361 0.652337 0.558618 -0.581310
O18   O     O_R   0.312540 0.428400 0.496760 -0.462992
O19   O     O_R   0.322840 0.571590 0.503210 -0.465346
O20   O     O_R   0.495400 0.436280 0.611050 -0.470702
O21   O     O_R   0.505700 0.579470 0.617500 -0.425703
O22   O     O_R   0.677160 0.428410 0.496790 -0.490749
O23   O     O_R   0.687460 0.571600 0.503240 -0.405633
O24   O     O_3   0.098818 0.362024 0.419035 -0.552554

loop_
_geom_bond_atom_site_label_1
_geom_bond_atom_site_label_2
_ccdc_geom_bond_type
Cu2   O19   S    
C18   N6    A    
C16   O20   A    
C12   C29   S    
C27   C29   S    
H14   O7    S    
Cu1   Cu2   S    
C8    F7    S    
C3    C6    A    
C6    C9    A    
Cu2   N3    S    
C33   N1    S    
C7    C8    A    
C15   O11   S    
C10   N3    A    
C12   C23   S    
C1    O1    A    
H5    O14   S    
C19   C21   A    
C30   C31   A    
C12   C22   S    
C23   C26   S    
C5    O4    S    
C17   C19   A    
Cu2   O23   S    
Cu1   N6    S    
Cu2   O12   S    
C18   O9    S    
H1    O24   S    
C3    O5    S    
H3    O11   S    
C26   F12   S    
C29   O2    S    
Cu1   O22   S    
C2    C34   A    
Cu1   O1    S    
C13   C14   A    
C20   N6    A    
C34   F5    S    
C23   O3    S    
C4    C28   S    
C33   C34   A    
C14   F9    S    
H13   O6    S    
C21   O15   S    
C24   C25   S    
C27   F3    S    
C5    C7    A    
N4    N5    D    
H8    O17   S    
C1    O12   A    
C17   O10   S    
H4    O13   S    
C24   O24   S    
Cu1   O18   S    
C31   C32   A    
C15   N3    A    
C17   C18   A    
C8    C9    A    
C9    O7    S    
C27   O17   S    
H11   O4    S    
Cu2   O21   S    
C7    C16   S    
C24   F8    S    
C22   O23   A    
C19   N5    S    
C31   O8    S    
C4    O19   A    
C25   F11   S    
C10   O16   S    
C24   C28   S    
C3    C5    A    
H2    O10   S    
C32   O6    S    
H6    O15   S    
C26   F1    S    
C4    O18   A    
C11   O14   S    
C23   F2    S    
H12   O5    S    
C26   C28   S    
C12   C25   S    
C2    C30   A    
C32   C33   A    
H7    O16   S    
C11   C13   A    
C2    F6    S    
C29   F4    S    
C1    C30   S    
H16   O9    S    
H9    O2    S    
C10   C11   A    
Cu1   O20   S    
C6    N2    S    
C20   C21   A    
C16   O21   A    
N1    N2    D    
C20   O13   S    
C27   C28   S    
C22   O22   A    
C14   C15   A    
C25   F10   S    
C13   N4    S    
H10   O3    S    
H15   O8    S    
