data_mof_unit_10573.cif
_audit_creation_date              2012-12-11T14:39:19-0500
_audit_creation_method            fapswitch 2.2
_symmetry_space_group_name_H-M    P1
_symmetry_Int_Tables_number       1
_space_group_crystal_system       triclinic
_cell_length_a                    7.219373
_cell_length_b                    14.097343
_cell_length_c                    16.299569
_cell_angle_alpha                 90.0
_cell_angle_beta                  97.376265
_cell_angle_gamma                 90.00002
_cell_volume                      1645.14385864

loop_
_atom_site_label
_atom_site_type_symbol
_atom_type_description
_atom_site_fract_x
_atom_site_fract_y
_atom_site_fract_z
_atom_type_partial_charge
O1    O     O_R   0.525340 0.338340 0.164530 -0.542406
O2    O     O_R   0.474660 0.661660 0.835470 -0.542406
O3    O     O_R   0.974660 0.838340 0.835470 -0.542406
O4    O     O_R   0.025340 0.161660 0.164530 -0.542406
O5    O     O_R   0.253520 0.352000 0.336710 -0.539428
O6    O     O_R   0.746480 0.648000 0.663290 -0.539428
O7    O     O_R   0.246480 0.852000 0.663290 -0.539429
O8    O     O_R   0.753520 0.148000 0.336710 -0.539429
O9    O     O_R   0.083330 0.168380 0.337300 -0.535459
O10   O     O_R   0.916670 0.831620 0.662700 -0.535458
O11   O     O_R   0.416670 0.668380 0.662700 -0.535459
O12   O     O_R   0.583330 0.331620 0.337300 -0.535459
C1    C     C_R   0.432316 0.368696 0.363670 0.689179
C2    C     C_R   0.567684 0.631304 0.636330 0.689179
C3    C     C_R   0.067684 0.868696 0.636330 0.689180
C4    C     C_R   0.932316 0.131304 0.363670 0.689179
O13   O     O_R   0.195840 0.349670 0.165140 -0.542238
O14   O     O_R   0.804160 0.650330 0.834860 -0.542238
O15   O     O_R   0.304160 0.849670 0.834860 -0.542238
O16   O     O_R   0.695840 0.150330 0.165140 -0.542238
C5    C     C_R   0.357192 0.371989 0.137695 0.738089
C6    C     C_R   0.642808 0.628011 0.862305 0.738089
C7    C     C_R   0.142808 0.871989 0.862305 0.738089
C8    C     C_R   0.857192 0.128011 0.137695 0.738089
O17   O     O_3   0.387830 0.193120 0.250910 -0.376186
O18   O     O_3   0.612170 0.806880 0.749090 -0.376186
O19   O     O_3   0.112170 0.693120 0.749090 -0.376186
O20   O     O_3   0.887830 0.306880 0.250910 -0.376186
V1    V     V_3+5 0.113010 0.264540 0.250910 1.402559
V2    V     V_3+5 0.886990 0.735460 0.749090 1.402559
V3    V     V_3+5 0.386990 0.764540 0.749090 1.402557
V4    V     V_3+5 0.613010 0.235460 0.250910 1.402557
H1    H     H_    0.156899 0.828442 0.265907 0.118239
H2    H     H_    0.843101 0.171558 0.734093 0.118239
H3    H     H_    0.343110 0.328441 0.734093 0.118240
H4    H     H_    0.656890 0.671559 0.265907 0.118240
C9    C     C_R   0.867974 0.185146 0.528075 -0.144773
C10   C     C_R   0.132026 0.814854 0.471925 -0.144773
C11   C     C_R   0.632019 0.685148 0.471925 -0.144775
C12   C     C_R   0.367981 0.314852 0.528075 -0.144775
C13   C     C_R   0.835713 0.212840 0.607059 -0.116336
C14   C     C_R   0.164287 0.787160 0.392941 -0.116336
C15   C     C_R   0.664278 0.712842 0.392941 -0.116336
C16   C     C_R   0.335722 0.287158 0.607059 -0.116336
C17   C     C_R   0.867666 0.149624 0.672764 -0.132511
C18   C     C_R   0.132334 0.850376 0.327236 -0.132511
C19   C     C_R   0.632326 0.649626 0.327235 -0.132513
C20   C     C_R   0.367674 0.350374 0.672764 -0.132513
C21   C     C_R   0.932315 0.058324 0.659948 -0.139737
C22   C     C_R   0.067685 0.941675 0.340052 -0.139737
C23   C     C_R   0.567682 0.558325 0.340051 -0.139738
C24   C     C_R   0.432318 0.441675 0.659949 -0.139738
C25   C     C_R   0.965353 0.028117 0.580261 0.062281
C26   C     C_R   0.034647 0.971883 0.419739 0.062281
C27   C     C_R   0.534645 0.528118 0.419739 0.062282
C28   C     C_R   0.465355 0.471882 0.580261 0.062282
C29   C     C_R   0.932539 0.092592 0.513118 0.056845
C30   C     C_R   0.067461 0.907408 0.486882 0.056845
C31   C     C_R   0.567457 0.592593 0.486882 0.056844
C32   C     C_R   0.432543 0.407407 0.513118 0.056844
C33   C     C_R   0.032792 0.935809 0.566909 -0.174421
C34   C     C_R   0.967208 0.064191 0.433090 -0.174421
C35   C     C_R   0.467209 0.435808 0.433090 -0.174420
C36   C     C_R   0.532791 0.564192 0.566909 -0.174421
H5    H     H_    0.842960 0.237341 0.479252 0.119083
H6    H     H_    0.157040 0.762659 0.520748 0.119083
H7    H     H_    0.657031 0.737343 0.520748 0.119082
H8    H     H_    0.342969 0.262657 0.479252 0.119082
H9    H     H_    0.786603 0.283883 0.617375 0.134868
H10   H     H_    0.213397 0.716117 0.382625 0.134868
H11   H     H_    0.713385 0.783886 0.382624 0.134867
H12   H     H_    0.286615 0.216114 0.617376 0.134867
H13   H     H_    0.138117 0.066176 0.056637 0.158381
H14   H     H_    0.861883 0.933824 0.943363 0.158381
H15   H     H_    0.361883 0.566176 0.943363 0.158381
H16   H     H_    0.638117 0.433824 0.056637 0.158381
C37   C     C_2   0.149943 0.942036 0.930592 -0.337468
C38   C     C_2   0.850057 0.057964 0.069408 -0.337467
C39   C     C_2   0.350057 0.442036 0.069409 -0.337467
C40   C     C_2   0.649942 0.557964 0.930591 -0.337468
C41   C     C_2   0.996125 0.965666 0.965478 -0.132587
C42   C     C_2   0.003875 0.034334 0.034522 -0.132587
C43   C     C_2   0.503875 0.465666 0.034522 -0.132587
C44   C     C_2   0.496125 0.534334 0.965478 -0.132587
H17   H     H_    0.956888 0.012072 0.713205 0.106371
H18   H     H_    0.043112 0.987928 0.286795 0.106371
H19   H     H_    0.543110 0.512072 0.286794 0.106371
H20   H     H_    0.456889 0.487928 0.713205 0.106371
H21   H     H_    0.716230 0.026150 0.046519 0.127658
H22   H     H_    0.283770 0.973850 0.953481 0.127658
H23   H     H_    0.783769 0.526150 0.953481 0.127658
H24   H     H_    0.216231 0.473850 0.046519 0.127658

loop_
_geom_bond_atom_site_label_1
_geom_bond_atom_site_label_2
_ccdc_geom_bond_type
O1    C5    A    
C12   C32   A    
C27   C31   A    
O13   V1    S    
O3    C7    A    
C40   C44   D    
O15   V3    S    
C41   C42   S    
C29   C34   A    
C31   C36   A    
C22   C26   A    
C32   C35   A    
O20   V1    S    
O9    C4    A    
C10   C14   A    
O10   C3    A    
C26   C30   A    
O4    C8    A    
O11   C2    A    
H15   C44   S    
C14   H10   S    
H4    C19   S    
C14   C18   A    
O10   V2    S    
C10   C30   A    
C25   C33   A    
C10   H6    S    
C27   C35   A    
O2    C6    A    
C28   C36   A    
O14   V2    S    
C37   C41   D    
C12   C16   A    
O5    C1    A    
O4    V1    S    
O9    V1    S    
C30   C33   A    
O7    C3    A    
O11   V3    S    
O18   V3    S    
O8    C4    A    
O12   V4    S    
O19   V2    S    
H1    C18   S    
C4    C34   S    
H3    C20   S    
H16   C43   S    
O5    V1    S    
C38   H21   S    
C37   H22   S    
O7    V3    S    
O8    V4    S    
C21   H17   S    
C24   H20   S    
C23   H19   S    
C25   C29   A    
C19   C23   A    
C26   C34   A    
O1    V4    S    
O13   C5    A    
C28   C32   A    
C9    H5    S    
O2    V3    S    
O3    V2    S    
O15   C7    A    
O6    C2    A    
C38   C42   D    
C43   C44   S    
C1    C35   S    
C17   C21   A    
C11   C31   A    
C5    C39   S    
C3    C33   S    
H2    C17   S    
C7    C37   S    
C39   H24   S    
C2    C36   S    
C8    C38   S    
O6    V2    S    
H14   C41   S    
H13   C42   S    
C13   H9    S    
O16   V4    S    
C15   H11   S    
O14   C6    A    
C11   H7    S    
C11   C15   A    
C18   C22   A    
C40   H23   S    
C6    C40   S    
C39   C43   D    
O17   V4    S    
C21   C25   A    
C16   H12   S    
C23   C27   A    
C9    C13   A    
C22   H18   S    
C16   C20   A    
C20   C24   A    
O12   C1    A    
C12   H8    S    
C13   C17   A    
C15   C19   A    
O16   C8    A    
C9    C29   A    
C24   C28   A    
