data_mof_unit_64546.cif
_audit_creation_date              2012-12-10T19:58:54-0500
_audit_creation_method            fapswitch 2.2
_symmetry_space_group_name_H-M    P1
_symmetry_Int_Tables_number       1
_space_group_crystal_system       triclinic
_cell_length_a                    38.303469
_cell_length_b                    32.087432
_cell_length_c                    21.643389
_cell_angle_alpha                 89.990761
_cell_angle_beta                  123.168661
_cell_angle_gamma                 90.02608
_cell_volume                      22266.7477861

loop_
_atom_site_label
_atom_site_type_symbol
_atom_type_description
_atom_site_fract_x
_atom_site_fract_y
_atom_site_fract_z
_atom_type_partial_charge
C1    C     C_R   0.919392 0.000019 0.417144 0.935525
C2    C     C_R   0.080607 0.000035 0.582847 0.928146
C3    C     C_R   0.419392 0.500019 0.417154 0.927972
C4    C     C_R   0.580608 0.500035 0.582861 0.935487
C5    C     C_R   0.995403 0.999745 0.682207 -0.115141
C6    C     C_R   0.004610 0.999769 0.317801 -0.124392
C7    C     C_R   0.495382 0.499748 0.682190 -0.124569
C8    C     C_R   0.504575 0.499773 0.317775 -0.114755
C9    C     C_R   0.025281 0.976317 0.742574 -0.200322
C10   C     C_R   0.974784 0.976252 0.257493 -0.183682
C11   C     C_R   0.525217 0.476271 0.742519 -0.184117
C12   C     C_R   0.474613 0.476427 0.257342 -0.199863
C13   C     C_R   0.027555 0.978357 0.808195 -0.184430
C14   C     C_R   0.972504 0.978285 0.191866 -0.176741
C15   C     C_R   0.527502 0.478314 0.808148 -0.176795
C16   C     C_R   0.472345 0.478470 0.191726 -0.182958
C17   C     C_R   0.001317 0.005374 0.814908 -0.096581
C18   C     C_R   0.998688 0.005373 0.185088 -0.101729
C19   C     C_R   0.501312 0.505374 0.814906 -0.102883
C20   C     C_R   0.498682 0.505411 0.185090 -0.097205
C21   C     C_R   0.728276 0.996373 0.166643 -0.254552
C22   C     C_R   0.271715 0.991386 0.832190 -0.259091
C23   C     C_R   0.228280 0.492487 0.167440 -0.258851
C24   C     C_R   0.771724 0.496822 0.833416 -0.254297
C25   C     C_R   0.706657 0.000306 0.201516 0.095807
C26   C     C_R   0.293336 0.000134 0.798517 0.087437
C27   C     C_R   0.206664 0.500052 0.201500 0.087537
C28   C     C_R   0.793342 0.500362 0.798475 0.095885
C29   C     C_R   0.728209 0.004326 0.278104 -0.162436
C30   C     C_R   0.271788 0.008909 0.723128 -0.161096
C31   C     C_R   0.228217 0.507632 0.277286 -0.161294
C32   C     C_R   0.771790 0.504009 0.721823 -0.162645
C33   C     C_R   0.771581 0.004354 0.320175 -0.251329
C34   C     C_R   0.228416 0.008918 0.681035 -0.260320
C35   C     C_R   0.271589 0.507640 0.319388 -0.260352
C36   C     C_R   0.728417 0.504052 0.679750 -0.251149
C37   C     C_R   0.793467 0.000397 0.285758 0.021182
C38   C     C_R   0.206528 0.000155 0.714240 0.017968
C39   C     C_R   0.293471 0.500066 0.285793 0.018153
C40   C     C_R   0.706533 0.500483 0.714236 0.021268
C41   C     C_R   0.771921 0.996420 0.208443 0.391598
C42   C     C_R   0.228059 0.991254 0.790335 0.478576
C43   C     C_R   0.271935 0.492362 0.209300 0.478526
C44   C     C_R   0.728078 0.496887 0.791619 0.391201
C45   C     C_R   0.997943 0.999929 0.618350 0.935476
C46   C     C_R   0.002069 0.999937 0.381661 0.942079
C47   C     C_R   0.497929 0.499930 0.618337 0.942254
C48   C     C_R   0.502051 0.499937 0.381645 0.935221
C49   C     C_1   0.662194 0.000167 0.158614 -0.028460
C50   C     C_1   0.337802 0.000058 0.841416 -0.021914
C51   C     C_1   0.162198 0.500007 0.158585 -0.021875
C52   C     C_1   0.837806 0.500201 0.841380 -0.028449
C53   C     C_1   0.837961 0.000273 0.331132 0.043729
C54   C     C_1   0.162037 0.000241 0.668852 0.062791
C55   C     C_1   0.337962 0.500166 0.331176 0.062690
C56   C     C_1   0.662040 0.500345 0.668862 0.043724
C57   C     C_1   0.875228 0.000142 0.370018 -0.140887
C58   C     C_1   0.124769 0.000186 0.629968 -0.149644
C59   C     C_1   0.375230 0.500133 0.370050 -0.149956
C60   C     C_1   0.624772 0.500194 0.629979 -0.140851
C61   C     C_1   0.624855 0.000068 0.122679 -0.171056
C62   C     C_1   0.375142 0.000012 0.877333 -0.170840
C63   C     C_1   0.124858 0.499987 0.122665 -0.170828
C64   C     C_1   0.875145 0.500084 0.877320 -0.171082
C65   C     C_1   0.500006 0.875208 0.000019 -0.167445
C66   C     C_1   0.000007 0.375208 0.000020 -0.167626
C67   C     C_R   0.999992 0.919320 0.999993 0.914196
C68   C     C_R   0.499978 0.419315 0.999993 0.914488
C69   C     C_R   0.000483 0.002074 0.880178 0.869751
C70   C     C_R   0.999518 0.002072 0.119820 0.870364
C71   C     C_R   0.500483 0.502076 0.880179 0.870060
C72   C     C_R   0.499518 0.502090 0.119821 0.870581
C73   C     C_R   0.000008 0.080708 0.000008 0.880113
C74   C     C_R   0.500008 0.580708 0.000008 0.880298
C75   C     C_R   0.499999 0.919488 0.000004 0.902938
C76   C     C_R   1.000000 0.419488 0.000004 0.902893
C77   C     C_R   0.580565 0.999994 0.079898 0.900490
C78   C     C_R   0.419434 0.999987 0.920103 0.900723
C79   C     C_R   0.080566 0.499987 0.079897 0.900680
C80   C     C_R   0.919435 0.499994 0.920101 0.900634
C81   C     C_1   0.000026 0.124968 0.000028 -0.177997
C82   C     C_1   0.500026 0.624968 0.000025 -0.177862
C83   C     C_R   0.500029 0.080583 0.000019 0.901365
C84   C     C_R   0.000000 0.580579 0.999996 0.901646
C85   C     C_R   0.486278 0.228022 0.038847 -0.253183
C86   C     C_R   0.510664 0.227960 0.956375 -0.254281
C87   C     C_R   0.007203 0.727976 0.061962 -0.252806
C88   C     C_R   0.992753 0.727985 0.937963 -0.252996
C89   C     C_R   0.498899 0.206488 0.998283 0.105237
C90   C     C_R   0.999980 0.706474 0.999963 0.105894
C91   C     C_R   0.993167 0.771551 0.937712 0.181062
C92   C     C_R   0.006778 0.771541 0.062213 0.180548
C93   C     C_R   0.509808 0.271519 0.954471 0.182665
C94   C     C_R   0.485185 0.271579 0.037722 0.180312
C95   C     C_R   0.999968 0.793306 0.999961 0.082890
C96   C     C_R   0.497528 0.293311 0.996104 0.081911
C97   C     C_1   0.499473 0.162093 0.999213 -0.025352
C98   C     C_1   0.999988 0.662082 0.999968 -0.025446
C99   C     C_1   0.999969 0.837864 0.999966 0.017124
C100  C     C_1   0.499015 0.337854 0.998250 0.016782
C101  C     C_1   0.999975 0.875137 0.999975 -0.176894
C102  C     C_1   0.499780 0.375124 0.999457 -0.176609
C103  C     C_1   0.499804 0.124804 0.999738 -0.178012
C104  C     C_1   0.999995 0.624795 0.999979 -0.177860
C105  C     C_R   0.483205 0.771793 0.933469 -0.173655
C106  C     C_R   0.516847 0.771797 0.066597 -0.173715
C107  C     C_R   0.983079 0.271792 0.933443 -0.173856
C108  C     C_R   0.016977 0.271797 0.066629 -0.173890
C109  C     C_R   0.931431 0.044165 0.624135 0.221824
C110  C     C_R   0.068502 0.044358 0.375769 0.221990
C111  C     C_R   0.431472 0.544255 0.624183 0.222133
C112  C     C_R   0.568667 0.544079 0.375949 0.221661
C113  C     C_R   0.500022 0.793437 0.000031 0.164394
C114  C     C_R   0.000024 0.293437 0.000035 0.164486
C115  C     C_R   0.016983 0.228361 0.066632 -0.176221
C116  C     C_R   0.983085 0.228357 0.933445 -0.176135
C117  C     C_R   0.516854 0.728361 0.066599 -0.175985
C118  C     C_R   0.483212 0.728357 0.933470 -0.176027
C119  C     C_R   0.000037 0.206722 0.000039 0.167834
C120  C     C_R   0.500036 0.706722 0.000036 0.167761
C121  C     C_1   0.500013 0.837883 0.000027 -0.061868
C122  C     C_1   0.000015 0.337883 0.000030 -0.062069
C123  C     C_1   0.000034 0.162285 0.000037 -0.064142
C124  C     C_1   0.500034 0.662285 0.000034 -0.063945
C125  C     C_R   0.909520 0.075579 0.634206 -0.193244
C126  C     C_R   0.090360 0.075825 0.365624 -0.193030
C127  C     C_R   0.409604 0.575698 0.634297 -0.192990
C128  C     C_R   0.590665 0.575451 0.365944 -0.193108
C129  C     C_R   0.920034 0.085992 0.704772 -0.170628
C130  C     C_R   0.079837 0.086196 0.295035 -0.170970
C131  C     C_R   0.420130 0.586094 0.704878 -0.171244
C132  C     C_R   0.580183 0.585880 0.295402 -0.170561
C133  C     C_R   0.950638 0.063387 0.765354 -0.165641
C134  C     C_R   0.049277 0.063504 0.234508 -0.164649
C135  C     C_R   0.450704 0.563446 0.765429 -0.164679
C136  C     C_R   0.549520 0.563329 0.234773 -0.165481
C137  C     C_R   0.973106 0.031699 0.756373 0.062983
C138  C     C_R   0.026854 0.031772 0.243560 0.064037
C139  C     C_R   0.473133 0.531735 0.756406 0.064081
C140  C     C_R   0.526965 0.531683 0.243683 0.062902
C141  C     C_R   0.966901 0.025616 0.686724 0.067734
C142  C     C_R   0.033064 0.025717 0.313223 0.067605
C143  C     C_R   0.466919 0.525662 0.686746 0.067444
C144  C     C_R   0.533150 0.525591 0.313319 0.067749
H1    H     H_    0.046965 0.956464 0.738861 0.165325
H2    H     H_    0.953146 0.956332 0.261258 0.179734
H3    H     H_    0.546862 0.456376 0.738770 0.180089
H4    H     H_    0.452864 0.456627 0.261005 0.164685
H5    H     H_    0.788110 0.007396 0.379640 0.159532
H6    H     H_    0.211898 0.015696 0.622491 0.161541
H7    H     H_    0.288109 0.513504 0.378234 0.161547
H8    H     H_    0.711892 0.506799 0.620233 0.159487
H9    H     H_    0.477054 0.210993 0.070976 0.152704
H10   H     H_    0.520263 0.210879 0.924860 0.152580
H11   H     H_    0.012670 0.710923 0.109742 0.152203
H12   H     H_    0.987293 0.710940 0.890186 0.152179
H13   H     H_    0.969935 0.211681 0.881774 0.141392
H14   H     H_    0.030135 0.211689 0.118304 0.141373
H15   H     H_    0.470162 0.711681 0.881822 0.141490
H16   H     H_    0.529907 0.711689 0.118248 0.141448
H17   H     H_    0.470150 0.788460 0.881818 0.145191
H18   H     H_    0.529896 0.788468 0.118245 0.145086
H19   H     H_    0.969924 0.288460 0.881770 0.145042
H20   H     H_    0.030126 0.288468 0.118301 0.145041
H21   H     H_    0.882884 0.090479 0.587019 0.137966
H22   H     H_    0.116973 0.090793 0.412778 0.138080
H23   H     H_    0.382984 0.590631 0.587129 0.138354
H24   H     H_    0.617339 0.590306 0.413164 0.137886
H25   H     H_    0.902875 0.110101 0.712169 0.152366
H26   H     H_    0.096962 0.110341 0.287584 0.152399
H27   H     H_    0.403000 0.610222 0.712306 0.152571
H28   H     H_    0.597408 0.609957 0.288058 0.152318
H29   H     H_    0.956847 0.071188 0.819126 0.149025
H30   H     H_    0.043068 0.071270 0.180721 0.148921
H31   H     H_    0.456918 0.571232 0.819211 0.149189
H32   H     H_    0.543331 0.571144 0.181017 0.149022
H33   H     H_    0.049457 0.958439 0.853553 0.164568
H34   H     H_    0.950641 0.958304 0.146555 0.169619
H35   H     H_    0.549374 0.458364 0.853478 0.171890
H36   H     H_    0.450373 0.458606 0.146315 0.164803
H37   H     H_    0.711063 0.993242 0.107158 0.191063
H38   H     H_    0.288929 0.984702 0.890785 0.192319
H39   H     H_    0.211066 0.486724 0.108539 0.192270
H40   H     H_    0.788935 0.493980 0.892953 0.191116
H41   H     H_    0.711497 0.007371 0.305203 0.152529
H42   H     H_    0.288507 0.015690 0.696961 0.153868
H43   H     H_    0.211501 0.513498 0.303753 0.153729
H44   H     H_    0.788504 0.506750 0.694670 0.152380
O1    O     O_R   0.939010 0.034430 0.439030 -0.618471
O2    O     O_R   0.060990 0.034430 0.560970 -0.618775
O3    O     O_R   0.439010 0.534430 0.439030 -0.618162
O4    O     O_R   0.560990 0.534430 0.560970 -0.618311
O5    O     O_R   0.560990 0.000040 0.112660 -0.615605
O6    O     O_R   0.439010 0.000040 0.887340 -0.615492
O7    O     O_R   0.060990 0.500040 0.112660 -0.615877
O8    O     O_R   0.939010 0.500040 0.887340 -0.615914
O9    O     O_R   0.561000 0.999980 0.009230 -0.611039
O10   O     O_R   0.439000 0.999980 0.990770 -0.610391
O11   O     O_R   0.061000 0.499980 0.009230 -0.610127
O12   O     O_R   0.939000 0.499980 0.990770 -0.610703
O13   O     O_R   0.499990 0.061030 0.051640 -0.614124
O14   O     O_R   0.500010 0.061030 0.948360 -0.614359
O15   O     O_R   0.999990 0.561030 0.051640 -0.614428
O16   O     O_R   0.000010 0.561030 0.948360 -0.614170
O17   O     O_R   0.939020 0.965580 0.438990 -0.610042
O18   O     O_R   0.060980 0.965580 0.561010 -0.607745
O19   O     O_R   0.439020 0.465580 0.438990 -0.608463
O20   O     O_R   0.560980 0.465580 0.561010 -0.610036
O21   O     O_R   0.999990 0.034430 0.591600 -0.613637
O22   O     O_R   0.000010 0.034430 0.408400 -0.612090
O23   O     O_R   0.499990 0.534430 0.591600 -0.611931
O24   O     O_R   0.500010 0.534430 0.408400 -0.613596
O25   O     O_R   0.000000 0.965580 0.591570 -0.626098
O26   O     O_R   0.000000 0.965580 0.408430 -0.625427
O27   O     O_R   0.500000 0.465580 0.591570 -0.625671
O28   O     O_R   0.500000 0.465580 0.408430 -0.625593
O29   O     O_R   0.034430 0.939010 0.034360 -0.611375
O30   O     O_R   0.965570 0.939010 0.965640 -0.610549
O31   O     O_R   0.534430 0.439010 0.034360 -0.606448
O32   O     O_R   0.465570 0.439010 0.965640 -0.616492
O33   O     O_R   0.034440 0.999990 0.942790 -0.615532
O34   O     O_R   0.965560 0.999990 0.057210 -0.613505
O35   O     O_R   0.534440 0.499990 0.942790 -0.612186
O36   O     O_R   0.465560 0.499990 0.057210 -0.615337
O37   O     O_R   0.965580 0.000000 0.873950 -0.620258
O38   O     O_R   0.034420 1.000000 0.126050 -0.620368
O39   O     O_R   0.465580 0.500000 0.873950 -0.621905
O40   O     O_R   0.534420 0.500000 0.126050 -0.620502
O41   O     O_R   0.034440 0.060980 0.034440 -0.619761
O42   O     O_R   0.965560 0.060980 0.965560 -0.619565
O43   O     O_R   0.534440 0.560980 0.034440 -0.619714
O44   O     O_R   0.465560 0.560980 0.965560 -0.619485
O45   O     O_R   0.500010 0.939050 0.051750 -0.613288
O46   O     O_R   0.499990 0.939050 0.948250 -0.613334
O47   O     O_R   0.000010 0.439050 0.051750 -0.613392
O48   O     O_R   0.999990 0.439050 0.948250 -0.613341
Zn1   Zn    Zn3+2 1.000000 0.045980 0.500000 0.990458
Zn2   Zn    Zn3+2 0.500000 0.545980 0.500000 0.991282
Zn3   Zn    Zn3+2 0.000000 0.954030 0.500000 0.992948
Zn4   Zn    Zn3+2 0.500000 0.454030 0.500000 0.992963
Zn5   Zn    Zn3+2 0.045980 0.999990 0.045940 0.984437
Zn6   Zn    Zn3+2 0.954020 0.999990 0.954060 0.987359
Zn7   Zn    Zn3+2 0.545980 0.499990 0.045940 0.990153
Zn8   Zn    Zn3+2 0.454020 0.499990 0.954060 0.980477
Zn9   Zn    Zn3+2 0.500000 0.000050 0.069040 0.984507
Zn10  Zn    Zn3+2 0.500000 0.000050 0.930960 0.983906
Zn11  Zn    Zn3+2 0.000000 0.500050 0.069040 0.983742
Zn12  Zn    Zn3+2 0.000000 0.500050 0.930960 0.984342
N1    N     N_2   0.013935 0.793263 0.125533 -0.303582
H45   H     H_    0.033556 0.777743 0.174504 0.229209
C145  C     C_3   0.976355 0.807379 0.119642 -0.757722
H46   H     H_    0.957062 0.780249 0.115262 0.240196
H47   H     H_    0.957795 0.827773 0.070660 0.250462
H48   H     H_    0.984807 0.825624 0.169582 0.241428
N2    N     N_2   0.986018 0.793283 0.874400 -0.302982
H49   H     H_    0.966404 0.777754 0.825427 0.229030
C146  C     C_3   0.023599 0.807449 0.880310 -0.761453
H50   H     H_    0.042886 0.780344 0.884648 0.240581
H51   H     H_    0.042165 0.827831 0.929321 0.250106
H52   H     H_    0.015150 0.825723 0.830398 0.240605
N3    N     N_2   0.472660 0.293343 0.079854 -0.304527
H53   H     H_    0.479374 0.277704 0.126809 0.229604
C147  C     C_3   0.430030 0.308074 0.037241 -0.756626
H54   H     H_    0.408115 0.281256 0.013976 0.239883
H55   H     H_    0.424709 0.328659 0.991607 0.249994
H56   H     H_    0.423518 0.326299 0.073457 0.242671
N4    N     N_2   0.522296 0.293214 0.912205 -0.299585
H57   H     H_    0.544224 0.277501 0.907477 0.232155
C148  C     C_3   0.488029 0.308061 0.841527 -0.765330
H58   H     H_    0.469667 0.281319 0.805662 0.238343
H59   H     H_    0.500468 0.326175 0.813921 0.242846
H60   H     H_    0.467261 0.328787 0.848636 0.247778
N5    N     N_2   0.913077 0.026150 0.552870 -0.315395
H61   H     H_    0.894938 0.046607 0.510205 0.223540
C149  C     C_3   0.891235 0.987587 0.545021 -0.802370
H62   H     H_    0.878147 0.974153 0.489484 0.235539
H63   H     H_    0.865112 0.993405 0.552385 0.242031
H64   H     H_    0.912832 0.964216 0.586169 0.254513
N6    N     N_2   0.086897 0.026380 0.447066 -0.315851
H65   H     H_    0.105005 0.046877 0.489697 0.223912
C150  C     C_3   0.108805 0.987880 0.454958 -0.799720
H66   H     H_    0.121944 0.974476 0.510526 0.237196
H67   H     H_    0.134898 0.993776 0.447530 0.242253
H68   H     H_    0.087242 0.964452 0.413872 0.254072
N7    N     N_2   0.413086 0.526254 0.552902 -0.315415
H69   H     H_    0.394966 0.546727 0.510254 0.224276
C151  C     C_3   0.391201 0.487720 0.545040 -0.801944
H70   H     H_    0.378079 0.474297 0.489487 0.237167
H71   H     H_    0.365098 0.493576 0.552444 0.241962
H72   H     H_    0.412774 0.464324 0.586155 0.253684
N8    N     N_2   0.586963 0.526046 0.447183 -0.315623
H73   H     H_    0.605148 0.546479 0.489880 0.223443
C152  C     C_3   0.608711 0.487444 0.454991 -0.801538
H74   H     H_    0.621746 0.473993 0.510500 0.235526
H75   H     H_    0.634863 0.493214 0.447675 0.241927
H76   H     H_    0.587064 0.464108 0.413790 0.254866
S1    S     S_3+6 0.798875 0.991337 0.163568 0.035745
O49   O     O_2   0.823005 0.951207 0.187441 -0.254065
O50   O     O_2   0.769059 0.991019 0.081098 -0.286451
O51   O     O_3   0.832583 0.031102 0.187920 -0.528581
H77   H     H_    0.815305 0.056554 0.175025 0.346540
S2    S     S_3+6 0.201059 0.980126 0.833610 0.021312
O52   O     O_2   0.230993 0.968526 0.913210 -0.286529
O53   O     O_2   0.176713 0.018023 0.829087 -0.301406
O54   O     O_3   0.167840 0.940406 0.789152 -0.557877
H78   H     H_    0.150350 0.939098 0.809895 0.379941
S3    S     S_3+6 0.298935 0.482755 0.165538 0.021291
O55   O     O_2   0.269020 0.472114 0.085464 -0.286231
O56   O     O_2   0.323193 0.521107 0.171679 -0.301383
O57   O     O_3   0.332242 0.442895 0.208288 -0.558557
H79   H     H_    0.350182 0.442841 0.188394 0.379229
S4    S     S_3+6 0.701123 0.492308 0.836592 0.036299
O58   O     O_2   0.676949 0.452182 0.813315 -0.253550
O59   O     O_2   0.730937 0.492356 0.919070 -0.285958
O60   O     O_3   0.667457 0.532140 0.811647 -0.528331
H80   H     H_    0.684757 0.557568 0.824215 0.346566

loop_
_geom_bond_atom_site_label_1
_geom_bond_atom_site_label_2
_ccdc_geom_bond_type
N2    C146  S    
C133  C137  A    
C55   C59   T    
C24   H40   S    
C44   S4    S    
N8    H73   S    
C136  C140  A    
O1    Zn1   S    
O34   Zn6   S    
C150  H68   S    
C135  C139  A    
C108  H20   S    
C131  H27   S    
C68   O32   A    
C26   C50   S    
C95   C99   S    
C72   O36   A    
C29   C33   A    
C23   C43   A    
C9    C13   A    
C146  H52   S    
C11   C15   A    
C12   C16   A    
O35   Zn7   S    
C45   O25   A    
C66   C122  T    
C84   O16   A    
O8    Zn12  S    
C43   S3    S    
C130  C134  A    
O2    Zn1   S    
C82   C124  T    
C73   C81   S    
C4    O20   A    
C25   C29   A    
C80   O8    A    
O13   Zn9   S    
C27   C31   A    
C70   O38   A    
C28   C32   A    
C106  C113  A    
O37   Zn6   S    
C46   O22   A    
O7    Zn11  S    
O4    Zn2   S    
C16   C20   A    
C66   C76   S    
C94   C96   A    
C97   C103  T    
O19   Zn4   S    
C129  C133  A    
C99   C101  T    
N1    C145  S    
C148  H59   S    
C105  C118  A    
O51   H77   S    
C110  N6    S    
C147  H55   S    
C134  H30   S    
C67   O30   A    
C2    O2    A    
C74   O43   A    
C119  C123  S    
C3    O19   A    
C86   H10   S    
N7    C151  S    
C33   H5    S    
O45   Zn9   S    
C91   N2    S    
C69   O33   A    
N6    C150  S    
C118  C120  A    
C125  C129  A    
C19   C139  A    
O6    Zn10  S    
C31   H43   S    
C17   C137  A    
C132  H28   S    
S3    O56   D    
C133  H29   S    
C136  H32   S    
C17   C69   S    
C47   O23   A    
O48   Zn12  S    
C19   C71   S    
C7    C143  A    
O33   Zn5   S    
C5    C9    A    
N1    H45   S    
C83   C103  S    
C81   C123  T    
C32   C36   A    
C108  C115  A    
C105  C113  A    
N8    C152  S    
O21   Zn1   S    
N3    H53   S    
O10   Zn9   S    
C79   O7    A    
S4    O58   D    
C146  H50   S    
C77   O5    A    
C139  C143  A    
C61   C77   S    
C2    O18   A    
C8    C12   A    
C37   C53   S    
S1    O50   D    
C83   O14   A    
C27   C51   S    
O29   Zn5   S    
S2    O53   D    
C30   C34   A    
C115  H14   S    
O28   Zn4   S    
C48   O24   A    
C149  H64   S    
C10   C14   A    
O39   Zn8   S    
C36   H8    S    
C145  H48   S    
C45   O21   A    
C125  H21   S    
C23   H39   S    
C152  H74   S    
O42   Zn6   S    
C86   C93   A    
C1    C57   S    
C88   C91   A    
C132  C136  A    
C4    C60   S    
C151  H71   S    
C76   O48   A    
C14   H34   S    
O11   Zn12  S    
C110  C126  A    
C107  H19   S    
C26   C30   A    
C115  C119  A    
C72   O40   A    
C84   C104  S    
C105  H17   S    
C148  H60   S    
C67   C101  S    
C21   C25   A    
C62   C78   S    
C24   C28   A    
N4    H57   S    
C150  H67   S    
C78   O10   A    
S4    O60   S    
C13   C17   A    
S3    O57   S    
C22   H38   S    
C12   H4    S    
C96   C100  S    
N5    C149  S    
C29   H41   S    
O30   Zn6   S    
C37   C41   A    
C107  C116  A    
C91   C95   A    
C40   C44   A    
C113  C121  S    
C112  N8    S    
C20   C72   S    
C109  C141  A    
C87   C92   A    
O24   Zn2   S    
C16   H36   S    
C1    O1    A    
C4    O4    A    
C149  H62   S    
C34   H6    S    
C145  H46   S    
C15   C19   A    
C88   H12   S    
C68   C102  S    
C152  H76   S    
C15   H35   S    
C54   C58   T    
C126  C130  A    
C75   O46   A    
C78   O6    A    
C108  C114  A    
C18   C138  A    
C41   S1    S    
C39   C55   S    
C40   C56   S    
C47   O27   A    
N6    H65   S    
O18   Zn3   S    
C65   C121  T    
C6    C142  A    
O3    Zn2   S    
O60   H80   S    
C148  H58   S    
C117  H16   S    
C64   C80   S    
C118  H15   S    
C35   H7    S    
C74   C82   S    
O12   Zn11  S    
C73   O41   A    
O14   Zn10  S    
C79   O11   A    
S3    O55   D    
O22   Zn1   S    
C67   O29   A    
C68   O31   A    
C51   C63   T    
C74   O44   A    
C52   C64   T    
C117  C120  A    
C85   C89   A    
C5    C45   S    
C33   C37   A    
C56   C60   T    
C7    C47   S    
C21   H37   S    
C8    C48   S    
C107  C114  A    
N7    H69   S    
O41   Zn5   S    
C151  H70   S    
C38   C54   S    
C151  H72   S    
C21   C41   A    
C84   O15   A    
C88   C90   A    
C106  C117  A    
C138  C142  A    
C24   C44   A    
C31   C35   A    
C137  C141  A    
O57   H79   S    
C53   C57   T    
O44   Zn8   S    
C140  C144  A    
C126  H22   S    
C86   C89   A    
C69   O37   A    
C6    C10   A    
C2    C58   S    
C93   N4    S    
C20   C140  A    
C127  C131  A    
O26   Zn3   S    
O46   Zn10  S    
N4    C148  S    
C49   C61   T    
C11   H3    S    
O40   Zn7   S    
C130  H26   S    
C13   H33   S    
C9    H1    S    
C70   O34   A    
S4    O59   D    
C106  H18   S    
C25   C49   S    
C112  C128  A    
C94   N3    S    
O54   H78   S    
C22   C26   A    
C87   C90   A    
O5    Zn9   S    
O27   Zn4   S    
C77   O9    A    
C109  N5    S    
C18   C70   S    
C147  H56   S    
C48   O28   A    
S1    O49   D    
C14   C18   A    
C35   C39   A    
C83   O13   A    
O20   Zn4   S    
C63   C79   S    
C92   N1    S    
C7    C11   A    
O32   Zn8   S    
S2    O54   S    
C30   H42   S    
C129  H25   S    
C149  H63   S    
C38   C42   A    
C131  C135  A    
C145  H47   S    
C80   O12   A    
O9    Zn10  S    
C110  C142  A    
O17   Zn3   S    
C46   O26   A    
C23   C27   A    
C1    O17   A    
C128  C132  A    
O47   Zn11  S    
C73   O42   A    
O23   Zn2   S    
C71   O35   A    
C32   H44   S    
C36   C40   A    
N3    C147  S    
O36   Zn8   S    
O38   Zn5   S    
C39   C43   A    
C150  H66   S    
C92   C95   A    
C89   C97   S    
C146  H51   S    
C135  H31   S    
O43   Zn7   S    
C3    O3    A    
C85   C94   A    
C5    C141  A    
C100  C102  T    
N5    H61   S    
C111  N7    S    
O15   Zn11  S    
C8    C144  A    
C85   H9    S    
O16   Zn12  S    
C109  C125  A    
C93   C96   A    
C111  C127  A    
C50   C62   T    
S1    O51   S    
C87   H11   S    
N2    H49   S    
C10   H2    S    
C42   S2    S    
S2    O52   D    
C6    C46   S    
C34   C38   A    
C71   O39   A    
O25   Zn3   S    
C134  C138  A    
C111  C143  A    
C65   C75   S    
C116  C119  A    
C112  C144  A    
C147  H54   S    
C116  H13   S    
C152  H75   S    
C28   C52   S    
C22   C42   A    
C98   C104  T    
O31   Zn7   S    
C75   O45   A    
C76   O47   A    
C114  C122  S    
C127  H23   S    
C128  H24   S    
C90   C98   S    
C120  C124  S    
C3    C59   S    
