data_mof_unit_52549.cif
_audit_creation_date              2012-12-10T18:38:31-0500
_audit_creation_method            fapswitch 2.2
_symmetry_space_group_name_H-M    P1
_symmetry_Int_Tables_number       1
_space_group_crystal_system       triclinic
_cell_length_a                    15.857013
_cell_length_b                    15.095461
_cell_length_c                    13.926203
_cell_angle_alpha                 89.483253
_cell_angle_beta                  89.668927
_cell_angle_gamma                 90.385016
_cell_volume                      3333.23252783

loop_
_atom_site_label
_atom_site_type_symbol
_atom_type_description
_atom_site_fract_x
_atom_site_fract_y
_atom_site_fract_z
_atom_type_partial_charge
C1    C     C_R   0.504609 0.329946 0.500441 0.902266
C2    C     C_R   0.497794 0.669546 0.499611 0.924656
C3    C     C_R   0.551748 0.184966 0.575091 0.339798
C4    C     C_R   0.420915 0.813048 0.487090 0.222007
C5    C     C_R   0.511011 0.232931 0.500907 -0.268209
C6    C     C_R   0.496572 0.765526 0.498698 -0.245947
C7    C     C_R   0.475340 0.187145 0.424058 -0.398542
C8    C     C_R   0.573345 0.809421 0.510201 -0.375902
C9    C     C_R   0.476687 0.095104 0.421015 0.473135
C10   C     C_R   0.577347 0.901582 0.507897 0.483043
C11   C     C_R   0.506361 0.047409 0.500768 -0.103338
C12   C     C_R   0.502185 0.950086 0.501114 -0.087300
C13   C     C_R   0.572366 0.528898 0.106888 0.235209
C14   C     C_R   0.464900 0.427670 0.893171 0.238521
C15   C     C_R   0.566810 0.536506 0.208327 0.447664
C16   C     C_R   0.457992 0.434389 0.791613 0.526475
C17   C     C_R   0.433531 0.464425 0.208555 0.558177
C18   C     C_R   0.543352 0.564013 0.790157 0.534728
C19   C     C_R   0.431686 0.470056 0.106990 -0.397808
C20   C     C_R   0.539635 0.566815 0.891610 -0.382956
C21   C     C_R   0.502117 0.499447 0.054158 -0.029525
C22   C     C_R   0.502222 0.497684 0.945268 -0.021762
C23   C     C_R   0.339953 0.498437 0.500290 0.861162
C24   C     C_R   0.660061 0.501761 0.499662 0.820881
C25   C     C_3   0.970667 0.449879 0.427206 -0.384817
C26   C     C_3   0.029418 0.549901 0.573327 -0.338164
C27   C     C_3   0.030838 0.530677 0.417501 0.398554
C28   C     C_3   0.969199 0.469001 0.583140 0.384422
C29   C     C_1   0.250439 0.496281 0.501207 -0.051029
C30   C     C_1   0.749608 0.503824 0.498717 -0.120318
C31   C     C_3   0.023856 0.415972 0.512774 0.316054
C32   C     C_3   0.976227 0.583616 0.487800 0.402103
C33   C     C_3   0.083459 0.496116 0.501886 -0.165229
C34   C     C_3   0.916616 0.503563 0.498695 -0.175564
C35   C     C_1   0.174997 0.495195 0.502077 0.176438
C36   C     C_1   0.825066 0.504773 0.498163 0.159290
C37   C     C_R   0.542321 0.092354 0.578977 0.337817
C38   C     C_R   0.423562 0.906170 0.491916 0.355779
Cu1   Cu    Cu3+1 0.500000 0.499990 0.596430 1.063862
Cu2   Cu    Cu3+1 0.500000 0.500010 0.403570 1.038106
H1    H     H_    0.375120 0.450599 0.069432 0.219040
H2    H     H_    0.566345 0.623318 0.928040 0.214162
H3    H     H_    0.946329 0.409400 0.367114 0.222820
H4    H     H_    0.053730 0.590575 0.633276 0.227615
H5    H     H_    0.446701 0.222721 0.365286 0.190975
H6    H     H_    0.630519 0.771746 0.520160 0.163586
N1    N     N_R   0.500000 0.500020 0.258690 -0.266985
N2    N     N_R   0.500000 0.499980 0.741310 -0.263722
O1    O     O_R   0.500010 0.371450 0.581430 -0.488236
O2    O     O_R   0.499990 0.628550 0.418570 -0.580763
O3    O     O_R   0.500010 0.371460 0.418560 -0.603034
O4    O     O_R   0.499990 0.628540 0.581440 -0.519986
O5    O     O_R   0.379080 0.499990 0.581420 -0.594140
O6    O     O_R   0.620920 0.500010 0.418580 -0.532855
O7    O     O_R   0.379080 0.500000 0.418550 -0.486484
O8    O     O_R   0.620920 0.500000 0.581450 -0.561794
S1    S     S_3+6 0.073420 0.569850 0.306114 0.084092
O9    O     O_2   0.126844 0.650708 0.323238 -0.178410
O10   O     O_2   0.126615 0.498582 0.262359 -0.282434
O11   O     O_3   0.994043 0.595295 0.231525 -0.497716
H7    H     H_    0.021964 0.617547 0.172164 0.375744
S2    S     S_3+6 0.926805 0.431112 0.695183 0.032368
O12   O     O_2   0.869035 0.500442 0.734899 -0.331906
O13   O     O_2   0.878288 0.346530 0.680528 -0.265403
O14   O     O_3   0.006115 0.413290 0.772395 -0.492650
H8    H     H_    0.978269 0.392956 0.832590 0.377401
O15   O     O_3   0.364526 0.430533 0.258080 -0.516579
C39   C     C_3   0.347838 0.342244 0.230821 0.029455
H9    H     H_    0.316430 0.340326 0.159732 0.166967
H10   H     H_    0.406623 0.302270 0.227794 0.114037
C40   C     C_3   0.288002 0.300146 0.304129 -0.639875
H11   H     H_    0.314928 0.304829 0.377372 0.227674
H12   H     H_    0.226551 0.334990 0.303020 0.287501
H13   H     H_    0.277469 0.229302 0.286719 0.212707
O16   O     O_3   0.586090 0.629495 0.739235 -0.546703
C41   C     C_3   0.672972 0.626110 0.760911 0.034336
H14   H     H_    0.697970 0.557609 0.753407 0.182557
H15   H     H_    0.684931 0.650072 0.834895 0.151776
C42   C     C_3   0.721297 0.686348 0.691692 -0.633694
H16   H     H_    0.697907 0.755327 0.697149 0.246052
H17   H     H_    0.789383 0.685461 0.709748 0.251252
H18   H     H_    0.713247 0.663117 0.616916 0.228051
S3    S     S_3+6 0.945372 0.696120 0.472339 0.048371
O17   O     O_2   0.901317 0.706950 0.377848 -0.276994
O18   O     O_2   0.886838 0.721530 0.552488 -0.322596
O19   O     O_3   0.031702 0.761304 0.474178 -0.443889
H19   H     H_    0.010466 0.822113 0.463314 0.379051
S4    S     S_3+6 0.054099 0.302772 0.525877 0.058176
O20   O     O_2   0.134366 0.287459 0.470894 -0.296957
O21   O     O_2   0.067744 0.280346 0.629864 -0.234915
O22   O     O_3   0.977942 0.236869 0.481917 -0.477658
H20   H     H_    0.925443 0.256137 0.514205 0.369598
O23   O     O_3   0.573963 0.045056 0.656246 -0.485754
C43   C     C_3   0.510798 0.036798 0.727741 0.089932
H21   H     H_    0.467058 0.981810 0.709267 0.114260
H22   H     H_    0.474182 0.099057 0.737431 0.138028
C44   C     C_3   0.551903 0.014265 0.823192 -0.689848
H23   H     H_    0.595166 0.068706 0.844552 0.271963
H24   H     H_    0.502674 0.005545 0.879600 0.176624
H25   H     H_    0.588172 0.951859 0.816982 0.252480
O24   O     O_3   0.350510 0.954562 0.479236 -0.494531
C45   C     C_3   0.318725 0.980061 0.569697 0.067236
H26   H     H_    0.361657 0.028461 0.604207 0.092046
H27   H     H_    0.309220 0.921569 0.618099 0.162974
C46   C     C_3   0.234206 0.025385 0.555981 -0.597978
H28   H     H_    0.188477 0.979032 0.522709 0.274921
H29   H     H_    0.208920 0.046594 0.626599 0.194519
H30   H     H_    0.242094 0.084694 0.508867 0.256207
S5    S     S_3+6 0.621407 0.236848 0.657197 0.044284
O25   O     O_2   0.571114 0.272456 0.739589 -0.316038
O26   O     O_2   0.684874 0.172040 0.695191 -0.208595
O27   O     O_3   0.673886 0.320051 0.602181 -0.545960
H31   H     H_    0.703926 0.351050 0.654365 0.393997
S6    S     S_3+6 0.323818 0.755674 0.468944 0.052009
O28   O     O_2   0.304024 0.701453 0.557306 -0.294590
O29   O     O_2   0.251653 0.817313 0.450095 -0.191242
O30   O     O_3   0.333361 0.687274 0.374993 -0.480013
H32   H     H_    0.352243 0.725754 0.320929 0.342908
O31   O     O_3   0.443669 0.051223 0.342784 -0.525367
C47   C     C_3   0.500898 0.059034 0.265075 0.058267
H33   H     H_    0.565035 0.036171 0.285907 0.130690
H34   H     H_    0.504739 0.128782 0.238604 0.136162
C48   C     C_3   0.470290 0.001446 0.183142 -0.758070
H35   H     H_    0.407047 0.023570 0.159306 0.259805
H36   H     H_    0.514960 0.006769 0.121612 0.191536
H37   H     H_    0.466299 0.931141 0.207123 0.247606
O32   O     O_3   0.653724 0.945517 0.518570 -0.519972
C49   C     C_3   0.706950 0.928195 0.439436 0.033230
H38   H     H_    0.672568 0.933346 0.369950 0.111981
H39   H     H_    0.735173 0.861260 0.446750 0.182441
C50   C     C_3   0.778225 0.996067 0.437393 -0.637855
H40   H     H_    0.814981 0.991860 0.504919 0.274495
H41   H     H_    0.820916 0.983052 0.375696 0.202894
H42   H     H_    0.752064 0.063843 0.429764 0.241591
O33   O     O_3   0.646484 0.552643 0.060358 -0.585334
C51   C     C_3   0.697654 0.476815 0.053348 0.068959
H43   H     H_    0.665214 0.423354 0.012679 0.128321
H44   H     H_    0.714730 0.451450 0.126032 0.168636
C52   C     C_3   0.778554 0.501174 0.999900 -0.676212
H45   H     H_    0.812797 0.554205 0.038749 0.259209
H46   H     H_    0.819726 0.442172 0.994711 0.213517
H47   H     H_    0.763683 0.524890 0.926277 0.241414
O34   O     O_3   0.432408 0.353129 0.939317 -0.588298
C53   C     C_3   0.499144 0.298616 0.970930 0.118493
H48   H     H_    0.524792 0.323198 0.039845 0.119943
H49   H     H_    0.551695 0.295199 0.917741 0.187718
C54   C     C_3   0.465627 0.205107 0.987843 -0.781623
H50   H     H_    0.439961 0.178178 0.919949 0.263161
H51   H     H_    0.517354 0.161634 0.013076 0.193964
H52   H     H_    0.414920 0.205560 0.043214 0.237592
O35   O     O_3   0.632480 0.575714 0.257024 -0.533345
C55   C     C_3   0.629224 0.668431 0.243077 0.072527
H53   H     H_    0.567642 0.695561 0.267372 0.140051
H54   H     H_    0.639350 0.686999 0.166374 0.172866
C56   C     C_3   0.699001 0.711444 0.300914 -0.697530
H55   H     H_    0.761131 0.687230 0.275590 0.293667
H56   H     H_    0.696877 0.784403 0.291127 0.172456
H57   H     H_    0.691221 0.694746 0.378282 0.230925
O36   O     O_3   0.416149 0.368876 0.741856 -0.514209
C57   C     C_3   0.328313 0.377857 0.755267 0.060069
H58   H     H_    0.307099 0.446549 0.738823 0.146146
H59   H     H_    0.309388 0.360429 0.830074 0.188890
C58   C     C_3   0.283023 0.314630 0.688283 -0.685182
H60   H     H_    0.300469 0.245158 0.705527 0.235744
H61   H     H_    0.213961 0.322144 0.697254 0.257295
H62   H     H_    0.300429 0.329423 0.612452 0.228180

loop_
_geom_bond_atom_site_label_1
_geom_bond_atom_site_label_2
_ccdc_geom_bond_type
C25   C31   S    
Cu2   N1    S    
C26   C32   S    
C18   O16   S    
C56   H56   S    
C45   H26   S    
C54   H50   S    
C41   C42   S    
C15   N1    A    
C50   H42   S    
C49   H38   S    
C16   N2    A    
C15   O35   S    
C44   H23   S    
C26   H4    S    
O33   C51   S    
C27   C33   S    
C46   H29   S    
O24   C45   S    
S3    O17   D    
C1    C5    S    
C7    H5    S    
C4    S6    S    
C54   H51   S    
C41   H15   S    
C38   O24   S    
S5    O26   D    
C52   H47   S    
C48   H36   S    
C24   O6    A    
O34   C53   S    
C45   C46   S    
C11   C37   A    
S2    O13   D    
C2    O2    A    
C17   C19   A    
C19   C21   A    
C58   H60   S    
C39   H9    S    
O35   C55   S    
C55   C56   S    
C18   C20   A    
C47   C48   S    
C25   C34   S    
Cu1   O4    S    
C28   C34   S    
C23   O7    A    
C21   C22   S    
C16   O36   S    
C13   O33   S    
C25   H3    S    
C2    C6    S    
C53   C54   S    
C10   C12   A    
O27   H31   S    
C44   H24   S    
C47   H34   S    
C23   O5    A    
C8    H6    S    
C46   H30   S    
C17   O15   S    
C13   C21   A    
O15   C39   S    
C57   C58   S    
C48   H35   S    
C58   H62   S    
C41   H14   S    
C53   H49   S    
C27   S1    S    
S5    O27   S    
Cu1   Cu2   S    
C5    C7    A    
O19   H19   S    
C51   H43   S    
C48   H37   S    
C6    C8    A    
C43   C44   S    
C3    C5    A    
C49   H39   S    
O11   H7    S    
C51   C52   S    
C43   H22   S    
O16   C41   S    
S2    O12   D    
C40   H13   S    
C9    C11   A    
C26   C33   S    
C20   H2    S    
O36   C57   S    
S4    O22   S    
O31   C47   S    
Cu2   O7    S    
C54   H52   S    
C31   C33   S    
C37   O23   S    
O23   C43   S    
C55   H53   S    
C45   H27   S    
C1    O3    A    
C2    O4    A    
C4    C6    A    
S3    O18   D    
S4    O21   D    
Cu2   O6    S    
C13   C15   A    
C9    O31   S    
C14   C16   A    
C24   O8    A    
C20   C22   A    
C10   O32   S    
Cu1   O8    S    
C49   C50   S    
C23   C29   S    
C57   H59   S    
O22   H20   S    
C44   H25   S    
C47   H33   S    
C52   H45   S    
C51   H44   S    
C40   H12   S    
C55   H54   S    
C7    C9    A    
C32   S3    S    
C14   O34   S    
C31   S4    S    
S2    O14   S    
Cu1   O1    S    
C27   C32   S    
C28   C31   S    
C17   N1    A    
C4    C38   A    
C53   H48   S    
C50   H41   S    
C18   N2    A    
C42   H18   S    
S6    O29   D    
C11   C12   S    
C42   H17   S    
S6    O28   D    
O32   C49   S    
C25   C27   S    
Cu2   O3    S    
C46   H28   S    
C29   C35   T    
C26   C28   S    
C30   C36   T    
C57   H58   S    
C14   C22   A    
C40   H11   S    
S5    O25   D    
C52   H46   S    
S1    O9    D    
Cu1   O5    S    
C3    S5    S    
C39   C40   S    
Cu2   O2    S    
C33   C35   S    
C34   C36   S    
C12   C38   A    
C43   H21   S    
C24   C30   S    
S6    O30   S    
S1    O10   D    
C42   H16   S    
C19   H1    S    
S1    O11   S    
S3    O19   S    
S4    O20   D    
C3    C37   A    
C8    C10   A    
O14   H8    S    
C56   H55   S    
C39   H10   S    
C58   H61   S    
O30   H32   S    
C1    O1    A    
C50   H40   S    
C32   C34   S    
Cu1   N2    S    
C56   H57   S    
C28   S2    S    
