data_mof_unit_49483.cif
_audit_creation_date              2012-12-11T14:52:48-0500
_audit_creation_method            fapswitch 2.2
_symmetry_space_group_name_H-M    P1
_symmetry_Int_Tables_number       1
_space_group_crystal_system       triclinic
_cell_length_a                    20.597337
_cell_length_b                    7.273759
_cell_length_c                    20.396689
_cell_angle_alpha                 89.214627
_cell_angle_beta                  101.251581
_cell_angle_gamma                 89.066004
_cell_volume                      2996.25727267

loop_
_atom_site_label
_atom_site_type_symbol
_atom_type_description
_atom_site_fract_x
_atom_site_fract_y
_atom_site_fract_z
_atom_type_partial_charge
O1    O     O_R   0.673670 0.377510 0.185950 -0.528312
O2    O     O_R   0.326330 0.622490 0.814050 -0.527656
O3    O     O_R   0.826330 0.877510 0.314050 -0.536977
O4    O     O_R   0.173670 0.122490 0.685950 -0.539894
O5    O     O_R   0.806260 0.705340 0.185590 -0.534191
O6    O     O_R   0.193740 0.294660 0.814410 -0.533669
O7    O     O_R   0.693740 0.205340 0.314410 -0.533763
O8    O     O_R   0.306260 0.794660 0.685590 -0.533483
C1    C     C_R   0.825600 0.539167 0.170860 0.711918
C2    C     C_R   0.174415 0.460837 0.829158 0.708726
C3    C     C_R   0.674406 0.039421 0.329103 0.710775
C4    C     C_R   0.325637 0.960571 0.670935 0.717966
O9    O     O_R   0.672940 0.707120 0.178050 -0.543546
O10   O     O_R   0.327060 0.292880 0.821950 -0.543120
O11   O     O_R   0.827060 0.207120 0.321950 -0.531753
O12   O     O_R   0.172940 0.792880 0.678050 -0.536878
O13   O     O_R   0.692060 0.879040 0.306460 -0.532760
O14   O     O_R   0.307940 0.120960 0.693540 -0.532200
O15   O     O_R   0.807940 0.379040 0.193540 -0.533331
O16   O     O_R   0.192060 0.620960 0.806460 -0.532891
C5    C     C_R   0.649496 0.541092 0.160460 0.705587
C6    C     C_R   0.350504 0.458908 0.839540 0.707644
C7    C     C_R   0.850374 0.036240 0.339066 0.706525
C8    C     C_R   0.148914 0.963773 0.660805 0.707308
O17   O     O_3   0.756430 0.544390 0.292140 -0.374466
O18   O     O_3   0.243570 0.455610 0.707860 -0.376617
O19   O     O_3   0.743570 0.044390 0.207860 -0.377482
O20   O     O_3   0.256430 0.955610 0.792140 -0.375283
V1    V     V_3+5 0.748810 0.818610 0.242180 1.426127
V2    V     V_3+5 0.251190 0.181390 0.757820 1.423285
V3    V     V_3+5 0.751190 0.318610 0.257820 1.433649
V4    V     V_3+5 0.248810 0.681390 0.742180 1.421857
C9    C     C_R   0.087692 0.987819 0.607426 -0.110849
C10   C     C_R   0.910278 0.016742 0.392692 -0.096602
C11   C     C_R   0.409903 0.457693 0.894874 -0.102033
C12   C     C_R   0.590096 0.542306 0.105127 -0.101521
C13   C     C_R   0.018629 0.868472 0.429050 0.148591
C14   C     C_R   0.991563 0.187389 0.562164 0.160008
C15   C     C_R   0.487278 0.701779 0.053124 0.164772
C16   C     C_R   0.512719 0.298217 0.946878 0.164892
C17   C     C_R   0.962576 0.907850 0.379810 -0.208410
C18   C     C_R   0.047438 0.143186 0.611203 -0.193091
C19   C     C_R   0.541247 0.676599 0.106061 -0.205107
C20   C     C_R   0.458752 0.323400 0.893941 -0.205081
C21   C     C_R   0.915210 0.098398 0.455971 0.102611
C22   C     C_R   0.072048 0.874798 0.550626 0.086621
C23   C     C_R   0.585577 0.430276 0.048274 0.102830
C24   C     C_R   0.414421 0.569722 0.951728 0.102750
C25   C     C_R   0.975350 0.075187 0.504750 0.055566
C26   C     C_R   0.022310 0.936183 0.494898 0.060945
C27   C     C_R   0.525107 0.430661 0.998831 0.051581
C28   C     C_R   0.474891 0.569336 0.001171 0.051628
H1    H     H_    0.059532 0.232251 0.653885 0.146391
H2    H     H_    0.959829 0.853433 0.330082 0.145157
H3    H     H_    0.452453 0.228301 0.852756 0.143311
H4    H     H_    0.547546 0.771698 0.147245 0.143344
C29   C     C_3   0.555019 0.078197 0.532733 0.084467
C30   C     C_3   0.445262 0.921755 0.467509 0.085122
C31   C     C_3   0.945128 0.585219 0.967539 0.084229
C32   C     C_3   0.055143 0.414893 0.032760 0.085094
C33   C     C_3   0.528734 0.891498 0.552600 0.150792
C34   C     C_3   0.471544 0.108455 0.447647 0.150798
C35   C     C_3   0.971781 0.398217 0.947578 0.150594
C36   C     C_3   0.028483 0.601893 0.052728 0.151247
C37   C     C_1   0.371435 0.964640 0.625262 -0.165545
C38   C     C_1   0.628715 0.035339 0.374870 -0.163743
C39   C     C_1   0.128772 0.465379 0.874942 -0.164076
C40   C     C_1   0.871334 0.534651 0.125175 -0.166018
C41   C     C_3   0.484415 0.163108 0.522361 0.085222
C42   C     C_3   0.515865 0.836847 0.477885 0.085063
C43   C     C_3   0.015570 0.663911 0.978050 0.085678
C44   C     C_3   0.984700 0.336202 0.022253 0.085599
C45   C     C_3   0.457940 0.977238 0.541672 0.022454
C46   C     C_3   0.542334 0.022715 0.458574 0.022234
C47   C     C_3   0.042408 0.477685 0.958644 0.022496
C48   C     C_3   0.957857 0.522419 0.041649 0.023265
C49   C     C_1   0.410230 0.966424 0.587450 0.034870
C50   C     C_1   0.589994 0.033545 0.412751 0.035517
C51   C     C_1   0.090081 0.467123 0.912839 0.035308
C52   C     C_1   0.910110 0.532944 0.087370 0.035060
C53   C     C_3   0.101810 0.682317 0.553637 -0.731402
H5    H     H_    0.075358 0.593593 0.513881 0.213895
H6    H     H_    0.155116 0.687049 0.551119 0.206527
H7    H     H_    0.096044 0.611791 0.600660 0.214841
C54   C     C_3   0.852874 0.178522 0.474408 -0.731105
H8    H     H_    0.851078 0.143660 0.527101 0.212482
H9    H     H_    0.849493 0.329274 0.465145 0.214787
H10   H     H_    0.807485 0.117251 0.445203 0.182166
C55   C     C_3   0.350867 0.657943 0.964545 -0.721156
H11   H     H_    0.348670 0.648206 0.018307 0.212288
H12   H     H_    0.345409 0.802092 0.945622 0.214036
H13   H     H_    0.306482 0.583116 0.939737 0.181383
C56   C     C_3   0.649130 0.342051 0.035456 -0.721555
H14   H     H_    0.651327 0.351785 0.981694 0.212386
H15   H     H_    0.693516 0.416879 0.060263 0.181083
H16   H     H_    0.654588 0.197903 0.054380 0.213871
C57   C     C_3   0.076644 0.780018 0.405318 -0.741600
H17   H     H_    0.081064 0.839375 0.355910 0.226293
H18   H     H_    0.124399 0.807182 0.439121 0.217352
H19   H     H_    0.069182 0.629882 0.399484 0.211900
C58   C     C_3   0.958101 0.371501 0.568282 -0.752520
H20   H     H_    0.989680 0.461194 0.604469 0.202462
H21   H     H_    0.949123 0.447238 0.519642 0.213694
H22   H     H_    0.911553 0.354292 0.586996 0.223710
C59   C     C_3   0.450142 0.883704 0.051102 -0.759216
H23   H     H_    0.481532 0.989517 0.079905 0.206387
H24   H     H_    0.437086 0.939520 0.999286 0.218695
H25   H     H_    0.405824 0.870398 0.073949 0.220967
C60   C     C_3   0.549855 0.116291 0.948901 -0.759207
H26   H     H_    0.518464 0.010478 0.920099 0.206409
H27   H     H_    0.594173 0.129592 0.926053 0.220986
H28   H     H_    0.562911 0.060476 0.000717 0.218661
I1    I     I_    0.576012 0.731320 0.637870 -0.444724
I2    I     I_    0.424278 0.268651 0.362376 -0.445514
I3    I     I_    0.924926 0.249594 0.861956 -0.447456
I4    I     I_    0.075235 0.750391 0.138442 -0.459220
C61   C     C_3   0.617343 0.170327 0.568952 -0.668624
H29   H     H_    0.612834 0.198590 0.621218 0.244143
H30   H     H_    0.660947 0.078543 0.569146 0.217982
H31   H     H_    0.624107 0.301745 0.543069 0.207420
C62   C     C_3   0.382962 0.829603 0.431250 -0.670241
H32   H     H_    0.387519 0.801306 0.378999 0.244364
H33   H     H_    0.376179 0.698199 0.457131 0.207079
H34   H     H_    0.339352 0.921397 0.431004 0.217500
C63   C     C_3   0.882638 0.685145 0.931333 -0.668156
H35   H     H_    0.887156 0.717628 0.879114 0.244211
H36   H     H_    0.839214 0.596601 0.930995 0.218345
H37   H     H_    0.875567 0.814816 0.957317 0.206817
C64   C     C_3   0.117636 0.314982 0.068966 -0.668380
H38   H     H_    0.113119 0.282489 0.121184 0.243819
H39   H     H_    0.124712 0.185317 0.042980 0.206976
H40   H     H_    0.161056 0.403542 0.069305 0.218612
C65   C     C_3   0.534215 0.657311 0.447905 -0.713546
H41   H     H_    0.495461 0.555774 0.449383 0.241740
H42   H     H_    0.537034 0.679858 0.394628 0.225047
H43   H     H_    0.582771 0.604363 0.475720 0.216503
C66   C     C_3   0.466077 0.342648 0.552345 -0.713806
H44   H     H_    0.504845 0.444151 0.550882 0.241747
H45   H     H_    0.417532 0.395643 0.524522 0.216269
H46   H     H_    0.463242 0.320087 0.605617 0.225057
C67   C     C_3   0.966715 0.155674 0.052230 -0.715312
H47   H     H_    0.005897 0.051735 0.051081 0.242544
H48   H     H_    0.963518 0.174327 0.105415 0.224938
H49   H     H_    0.918432 0.108097 0.024196 0.216672
C68   C     C_3   0.033569 0.844445 0.948091 -0.713732
H50   H     H_    0.994396 0.948398 0.949253 0.242135
H51   H     H_    0.081856 0.891978 0.976131 0.216694
H52   H     H_    0.036763 0.825826 0.894904 0.225473

loop_
_geom_bond_atom_site_label_1
_geom_bond_atom_site_label_2
_ccdc_geom_bond_type
C33   C42   S    
C40   C52   T    
C30   C34   S    
C58   H20   S    
C36   I4    S    
O19   V1    S    
C61   H29   S    
O13   V1    S    
O1    C5    A    
O3    C7    A    
C44   C48   S    
O15   V3    S    
C57   H19   S    
C13   C57   S    
C57   H17   S    
C5    C12   S    
C2    C39   S    
O7    C3    A    
C6    C11   S    
C66   H45   S    
C56   H14   S    
C59   H23   S    
C9    C18   A    
O9    V1    S    
C14   C18   A    
C14   C58   S    
C61   H30   S    
C18   H1    S    
O4    C8    A    
C56   H15   S    
C32   C44   S    
O1    V3    S    
C12   C23   A    
O2    V4    S    
C36   C43   S    
O3    V1    S    
C42   C46   S    
C62   H34   S    
C60   H27   S    
C57   H18   S    
C1    O15   A    
C2    O16   A    
O2    C6    A    
C65   H43   S    
C41   C45   S    
O14   V2    S    
C55   H12   S    
C16   C20   A    
C3    C38   S    
C64   H40   S    
C35   I3    S    
C36   C48   S    
O11   C7    A    
C15   C28   A    
O12   C8    A    
C65   H42   S    
C9    C22   A    
C10   C17   A    
O10   V2    S    
C11   C24   A    
C68   H51   S    
C68   H50   S    
O5    V1    S    
C54   H9    S    
C41   C66   S    
C44   C67   S    
C38   C50   T    
C59   H25   S    
O7    V3    S    
C27   C28   A    
O8    V4    S    
C37   C49   T    
C60   H28   S    
C14   C25   A    
O18   V4    S    
C30   C42   S    
C15   C19   A    
C33   C45   S    
C54   H8    S    
O11   V3    S    
C53   H5    S    
C34   C41   S    
C29   C46   S    
C21   C54   S    
O5    C1    A    
C42   C65   S    
C22   C53   S    
C59   H24   S    
C4    C37   S    
C21   C25   A    
O8    C4    A    
C7    C10   S    
C23   C56   S    
O9    C5    A    
C10   C21   A    
C55   H13   S    
C29   C33   S    
C11   C20   A    
C62   H32   S    
O6    V2    S    
C56   H16   S    
C24   C55   S    
C33   I1    S    
C65   H41   S    
C61   H31   S    
C31   C63   S    
C53   H7    S    
C68   H52   S    
C29   C61   S    
C64   H38   S    
O16   V4    S    
C54   H10   S    
C15   C59   S    
C3    O13   A    
C30   C62   S    
C43   C68   S    
O17   V3    S    
C48   C52   S    
C32   C64   S    
C53   H6    S    
C23   C27   A    
C34   I2    S    
C16   C60   S    
C67   H49   S    
O12   V4    S    
C16   C27   A    
C66   H44   S    
C22   C26   A    
C32   C47   S    
C31   C35   S    
C8    C9    S    
C32   C36   S    
O10   C6    A    
C67   H48   S    
C1    C40   S    
C67   H47   S    
C43   C47   S    
C13   C26   A    
C20   H3    S    
C63   H35   S    
C35   C47   S    
C63   H37   S    
C66   H46   S    
O20   V2    S    
C13   C17   A    
C17   H2    S    
C62   H33   S    
O6    C2    A    
C19   H4    S    
C24   C28   A    
C35   C44   S    
C58   H21   S    
C25   C26   A    
C46   C50   S    
C4    O14   A    
C63   H36   S    
C45   C49   S    
C34   C46   S    
C12   C19   A    
C58   H22   S    
C29   C41   S    
C55   H11   S    
C60   H26   S    
C47   C51   S    
C31   C48   S    
C39   C51   T    
O4    V2    S    
C30   C45   S    
C31   C43   S    
C64   H39   S    
