data_mof_unit_59336.cif
_audit_creation_date              2012-12-11T14:41:03-0500
_audit_creation_method            fapswitch 2.2
_symmetry_space_group_name_H-M    P1
_symmetry_Int_Tables_number       1
_space_group_crystal_system       triclinic
_cell_length_a                    7.027443
_cell_length_b                    17.651719
_cell_length_c                    19.15931
_cell_angle_alpha                 90.006186
_cell_angle_beta                  89.890021
_cell_angle_gamma                 88.634775
_cell_volume                      2375.9653206

loop_
_atom_site_label
_atom_site_type_symbol
_atom_type_description
_atom_site_fract_x
_atom_site_fract_y
_atom_site_fract_z
_atom_type_partial_charge
O1    O     O_R   0.377350 0.828520 0.186660 -0.516137
O2    O     O_R   0.622650 0.171480 0.813340 -0.517512
O3    O     O_R   0.122650 0.171480 0.686660 -0.516186
O4    O     O_R   0.877350 0.828520 0.313340 -0.517335
O5    O     O_R   0.877350 0.671480 0.313340 -0.555252
O6    O     O_R   0.122650 0.328520 0.686660 -0.542641
O7    O     O_R   0.622650 0.328520 0.813340 -0.550254
O8    O     O_R   0.377350 0.671480 0.186660 -0.544547
O9    O     O_R   0.707090 0.671930 0.178410 -0.524044
O10   O     O_R   0.292910 0.328070 0.821590 -0.508039
O11   O     O_R   0.792910 0.328070 0.678410 -0.521369
O12   O     O_R   0.207090 0.671930 0.321590 -0.519193
O13   O     O_R   0.207090 0.828070 0.321590 -0.541376
O14   O     O_R   0.792910 0.171930 0.678410 -0.531986
O15   O     O_R   0.292910 0.171930 0.821590 -0.543705
O16   O     O_R   0.707090 0.828070 0.178410 -0.530895
C1    C     C_R   0.539971 0.647412 0.160458 0.755409
C2    C     C_R   0.459715 0.352700 0.839815 0.790069
C3    C     C_R   0.959952 0.352838 0.660323 0.763932
C4    C     C_R   0.040425 0.645468 0.337794 0.796964
C5    C     C_R   0.036443 0.853268 0.338912 0.822194
C6    C     C_R   0.963712 0.147091 0.660752 0.787272
C7    C     C_R   0.463442 0.146716 0.838892 0.816424
C8    C     C_R   0.536474 0.852899 0.160711 0.790364
O17   O     O_3   0.543850 0.750000 0.294270 -0.373741
O18   O     O_3   0.456150 0.250000 0.705730 -0.366969
O19   O     O_3   0.956150 0.250000 0.794270 -0.370125
O20   O     O_3   0.043850 0.750000 0.205730 -0.366032
V1    V     V_3+5 0.818700 0.750000 0.241790 1.613298
V2    V     V_3+5 0.181300 0.250000 0.758210 1.633898
V3    V     V_3+5 0.681300 0.250000 0.741790 1.623718
V4    V     V_3+5 0.318700 0.750000 0.258210 1.617124
C9    C     C_R   0.960093 0.413688 0.605865 -0.218292
C10   C     C_R   0.039572 0.583440 0.390691 -0.168351
C11   C     C_R   0.539442 0.586306 0.106941 -0.217070
C12   C     C_R   0.458704 0.413627 0.894188 -0.166751
C13   C     C_R   0.482121 0.084214 0.890900 -0.194585
C14   C     C_R   0.517658 0.915528 0.108822 -0.170413
C15   C     C_R   0.017738 0.915788 0.390939 -0.197029
C16   C     C_R   0.982897 0.084535 0.608819 -0.169958
C17   C     C_R   0.181693 0.465450 0.434389 -0.235468
C18   C     C_R   0.815473 0.530951 0.561060 -0.239909
C19   C     C_R   0.310310 0.530132 0.939123 -0.233973
C20   C     C_R   0.685985 0.468862 0.063663 -0.227687
C21   C     C_R   0.363605 0.035621 0.076866 -0.230064
C22   C     C_R   0.635066 0.964020 0.922902 -0.257402
C23   C     C_R   0.138267 0.964801 0.576423 -0.228227
C24   C     C_R   0.863794 0.035747 0.423334 -0.254656
C25   C     C_R   0.155653 0.518123 0.379879 0.387449
C26   C     C_R   0.828770 0.474885 0.612579 0.445787
C27   C     C_R   0.326540 0.474459 0.887372 0.407643
C28   C     C_R   0.668509 0.524811 0.114977 0.436507
C29   C     C_R   0.407373 0.980055 0.127424 0.392966
C30   C     C_R   0.594603 0.020171 0.872714 0.398123
C31   C     C_R   0.093863 0.020166 0.627141 0.393446
C32   C     C_R   0.904080 0.979572 0.373106 0.398787
C33   C     C_R   0.920426 0.587220 0.450371 -0.172215
C34   C     C_R   0.088831 0.412683 0.548619 -0.103688
C35   C     C_R   0.586729 0.413024 0.951438 -0.172546
C36   C     C_R   0.412886 0.587223 0.049584 -0.103175
C37   C     C_R   0.596766 0.909902 0.040832 -0.166914
C38   C     C_R   0.394391 0.088065 0.957648 -0.103793
C39   C     C_R   0.903055 0.090024 0.541066 -0.166727
C40   C     C_R   0.107785 0.912533 0.457194 -0.104822
C41   C     C_R   0.934463 0.529443 0.502227 0.017361
C42   C     C_R   0.072248 0.469698 0.495824 0.056866
C43   C     C_R   0.570296 0.470573 0.003763 0.009886
C44   C     C_R   0.429245 0.529348 0.997782 0.049657
C45   C     C_R   0.556285 0.967672 0.990536 0.036307
C46   C     C_R   0.435099 0.030375 0.008156 0.058775
C47   C     C_R   0.943558 0.032305 0.490691 0.035906
C48   C     C_R   0.066173 0.969970 0.507896 0.058204
H1    H     H_    0.280345 0.418446 0.425842 0.139189
H2    H     H_    0.710082 0.575912 0.568316 0.142087
H3    H     H_    0.204157 0.574704 0.931679 0.146796
H4    H     H_    0.786655 0.422659 0.072960 0.149358
H5    H     H_    0.273760 0.083220 0.092201 0.136996
H6    H     H_    0.731524 0.918012 0.908537 0.135938
H7    H     H_    0.228749 0.917341 0.591536 0.136382
H8    H     H_    0.766793 0.081621 0.409205 0.135821
C49   C     C_2   0.239377 0.352353 0.543990 0.776313
O21   O     O_2   0.196808 0.285611 0.545373 -0.557346
O22   O     O_R   0.430266 0.372350 0.538813 -0.657430
H9    H     H_    0.520084 0.326611 0.536629 0.327615
C50   C     C_2   0.778159 0.650628 0.457328 0.802126
O23   O     O_2   0.831887 0.715276 0.465180 -0.523201
O24   O     O_R   0.582947 0.637506 0.453973 -0.638769
H10   H     H_    0.554190 0.582359 0.445023 0.266099
C51   C     C_2   0.262689 0.647661 0.044747 0.776195
O25   O     O_2   0.306375 0.714263 0.043045 -0.556354
O26   O     O_R   0.071087 0.628017 0.043607 -0.659981
H11   H     H_    0.981752 0.673866 0.041008 0.327609
C52   C     C_2   0.736448 0.352211 0.956526 0.809840
O27   O     O_2   0.690944 0.286028 0.960012 -0.524673
O28   O     O_R   0.929558 0.369510 0.956627 -0.635395
H12   H     H_    0.951627 0.425663 0.950665 0.276174
C53   C     C_2   0.261042 0.152179 0.974216 0.773684
O29   O     O_2   0.313153 0.217512 0.968881 -0.534569
O30   O     O_R   0.074759 0.137439 0.995071 -0.660633
H13   H     H_    0.997287 0.185462 0.004840 0.326757
C54   C     C_2   0.715149 0.842053 0.021640 0.788420
O31   O     O_2   0.871528 0.832236 0.048187 -0.519647
O32   O     O_R   0.652133 0.789990 0.972352 -0.652154
H14   H     H_    0.520949 0.803634 0.953645 0.279124
C55   C     C_2   0.246150 0.849862 0.472856 0.778263
O33   O     O_2   0.199173 0.783912 0.467300 -0.529856
O34   O     O_R   0.431471 0.866743 0.493098 -0.661759
H15   H     H_    0.512949 0.819596 0.502072 0.325658
C56   C     C_2   0.784183 0.157753 0.522132 0.787305
O35   O     O_2   0.627129 0.167051 0.548503 -0.518761
O36   O     O_R   0.847608 0.210296 0.473281 -0.654081
H16   H     H_    0.979359 0.197038 0.454705 0.277544
O37   O     O_3   0.711319 0.478857 0.670508 -0.554019
C57   C     C_3   0.738392 0.546816 0.708256 0.025989
H17   H     H_    0.615192 0.586043 0.699428 0.147332
H18   H     H_    0.868145 0.578299 0.693678 0.119353
C58   C     C_3   0.750178 0.527362 0.785213 -0.714369
H19   H     H_    0.870698 0.487406 0.794851 0.261212
H20   H     H_    0.764711 0.579370 0.817158 0.184578
H21   H     H_    0.621007 0.497946 0.800625 0.215701
O38   O     O_3   0.233937 0.505017 0.313986 -0.568292
C59   C     C_3   0.199697 0.429846 0.290567 0.027723
H22   H     H_    0.077581 0.402778 0.317352 0.122676
H23   H     H_    0.327856 0.393491 0.300787 0.129143
C60   C     C_3   0.157414 0.429383 0.212168 -0.661242
H24   H     H_    0.134720 0.487916 0.192031 0.271250
H25   H     H_    0.276829 0.401936 0.182840 0.171659
H26   H     H_    0.028122 0.396398 0.201417 0.204270
O39   O     O_3   0.765799 0.515545 0.177112 -0.555457
C61   C     C_3   0.646672 0.476739 0.224088 0.037305
H27   H     H_    0.670853 0.414592 0.218221 0.124245
H28   H     H_    0.493689 0.490705 0.216108 0.159373
C62   C     C_3   0.689054 0.499761 0.298464 -0.652125
H29   H     H_    0.641833 0.559413 0.307380 0.225125
H30   H     H_    0.614158 0.462760 0.335832 0.186561
H31   H     H_    0.842490 0.493870 0.307638 0.222438
O40   O     O_3   0.210733 0.478378 0.829162 -0.560860
C63   C     C_3   0.237858 0.546608 0.791820 0.007626
H32   H     H_    0.367373 0.578058 0.806592 0.122736
H33   H     H_    0.114403 0.585697 0.800861 0.148407
C64   C     C_3   0.250593 0.527663 0.714766 -0.685703
H34   H     H_    0.121712 0.498284 0.699162 0.215293
H35   H     H_    0.265373 0.579885 0.683128 0.181794
H36   H     H_    0.371300 0.487812 0.704936 0.264922
O41   O     O_3   0.669298 0.016038 0.805493 -0.556105
C65   C     C_3   0.642485 0.944331 0.774320 0.056225
H37   H     H_    0.514015 0.915429 0.793296 0.115408
H38   H     H_    0.764739 0.905707 0.785854 0.128184
C66   C     C_3   0.626697 0.954721 0.695596 -0.658243
H39   H     H_    0.755872 0.980337 0.674555 0.215562
H40   H     H_    0.604969 0.899357 0.669649 0.171262
H41   H     H_    0.508123 0.994421 0.682782 0.263829
O42   O     O_3   0.335864 0.984438 0.195143 -0.555920
C67   C     C_3   0.358524 0.056796 0.225411 0.065587
H42   H     H_    0.235068 0.094421 0.212853 0.124010
H43   H     H_    0.487010 0.085890 0.206630 0.115503
C68   C     C_3   0.371044 0.047770 0.304389 -0.679915
H44   H     H_    0.491007 0.009463 0.318620 0.263571
H45   H     H_    0.387952 0.103760 0.329751 0.171069
H46   H     H_    0.242964 0.020901 0.324972 0.212749
O43   O     O_3   0.828940 0.983695 0.306073 -0.555917
C69   C     C_3   0.856822 0.055266 0.274730 0.055768
H47   H     H_    0.985115 0.084149 0.293702 0.115098
H48   H     H_    0.734718 0.094078 0.286112 0.128155
C70   C     C_3   0.873850 0.044605 0.196055 -0.657714
H49   H     H_    0.744762 0.019104 0.174996 0.215787
H50   H     H_    0.896377 0.099861 0.169995 0.171727
H51   H     H_    0.992445 0.004748 0.183455 0.263453
O44   O     O_3   0.165434 0.015715 0.694730 -0.555940
C71   C     C_3   0.141771 0.943421 0.725033 0.065210
H52   H     H_    0.265100 0.905633 0.712552 0.123811
H53   H     H_    0.013452 0.914392 0.706206 0.115476
C72   C     C_3   0.128057 0.952568 0.803989 -0.679826
H54   H     H_    0.007967 0.990976 0.818074 0.262889
H55   H     H_    0.110464 0.896628 0.829385 0.171482
H56   H     H_    0.256024 0.979338 0.824631 0.213148

loop_
_geom_bond_atom_site_label_1
_geom_bond_atom_site_label_2
_ccdc_geom_bond_type
O24   H10   S    
C29   O42   S    
C70   H49   S    
O44   C71   S    
O16   C8    A    
O13   V4    S    
C37   C54   S    
O36   H16   S    
C23   H7    S    
O14   V3    S    
C12   C35   A    
C19   C27   A    
C64   H35   S    
O41   C65   S    
C66   H41   S    
C40   C55   S    
O5    C4    A    
C72   H54   S    
C15   C40   A    
C55   O34   S    
O11   C3    A    
C9    C34   A    
C16   C39   A    
C71   H53   S    
C28   O39   S    
O20   V1    S    
O39   C61   S    
C66   H40   S    
C50   O23   D    
C71   H52   S    
C38   C53   S    
C35   C43   A    
C38   C46   A    
C20   H4    S    
C22   C45   A    
O32   H14   S    
C56   O36   S    
C53   O30   S    
C64   H34   S    
C34   C42   A    
C68   H44   S    
O28   H12   S    
C19   C44   A    
C60   H26   S    
C8    C14   S    
O34   H15   S    
C51   O26   S    
C65   H38   S    
O4    V1    S    
O9    V1    S    
C14   C37   A    
C4    C10   S    
C20   C28   A    
O17   V4    S    
O15   C7    A    
O40   C63   S    
O11   V3    S    
O18   V3    S    
C52   O28   S    
O12   V4    S    
O19   V2    S    
C19   H3    S    
O12   C4    A    
C17   C25   A    
C49   O22   S    
C53   O29   D    
C69   H48   S    
C59   H22   S    
C72   H55   S    
O17   V1    S    
C18   H2    S    
O7    V3    S    
C65   H37   S    
C50   O24   S    
O19   V3    S    
C43   C44   A    
O8    V4    S    
C54   O31   D    
O20   V4    S    
C67   C68   S    
C3    C9    S    
C58   H21   S    
O26   H11   S    
C22   H6    S    
C6    C16   S    
C9    C26   A    
C36   C51   S    
C17   H1    S    
C32   O43   S    
O1    V4    S    
C49   O21   D    
C11   C36   A    
C69   H47   S    
C68   H45   S    
O3    V2    S    
C61   H28   S    
O6    C3    A    
C62   H31   S    
C65   C66   S    
O10   V2    S    
O22   H9    S    
C5    C15   S    
O7    C2    A    
C25   O38   S    
C22   C30   A    
O38   C59   S    
O13   C5    A    
C52   O27   D    
C60   H25   S    
C67   H42   S    
C12   C27   A    
C63   H33   S    
C18   C26   A    
C30   O41   S    
C13   C30   A    
C27   O40   S    
O9    C1    A    
O6    V2    S    
C39   C47   A    
O18   V2    S    
C70   H51   S    
C62   H29   S    
C34   C49   S    
C61   C62   S    
C24   C47   A    
C59   H23   S    
C15   C32   A    
O5    V1    S    
C11   C28   A    
O15   V2    S    
C23   C31   A    
O37   C57   S    
C54   O32   S    
C72   H56   S    
C37   C45   A    
C24   C32   A    
C18   C41   A    
C10   C25   A    
C21   C46   A    
C69   C70   S    
C67   H43   S    
C33   C41   A    
C20   C43   A    
C63   C64   S    
C16   C31   A    
C57   H18   S    
C57   H17   S    
C17   C42   A    
C64   H36   S    
C68   H46   S    
C35   C52   S    
C55   O33   D    
O8    C1    A    
O30   H13   S    
C26   O37   S    
C24   H8    S    
C59   C60   S    
C58   H20   S    
C61   H27   S    
O16   V1    S    
C47   C48   A    
C7    C13   S    
C66   H39   S    
O4    C5    A    
O14   C6    A    
C60   H24   S    
C14   C29   A    
O43   C69   S    
O10   C2    A    
C10   C33   A    
C33   C50   S    
C40   C48   A    
C45   C46   A    
C23   C48   A    
C57   C58   S    
C63   H32   S    
C21   C29   A    
C36   C44   A    
O1    C8    A    
C70   H50   S    
C41   C42   A    
C56   O35   D    
O2    C7    A    
C62   H30   S    
C13   C38   A    
O2    V3    S    
O3    C6    A    
C21   H5    S    
C1    C11   S    
C51   O25   D    
C58   H19   S    
C2    C12   S    
C31   O44   S    
C39   C56   S    
O42   C67   S    
C71   C72   S    
