data_mof_unit_46346.cif
_audit_creation_date              2012-12-11T14:48:17-0500
_audit_creation_method            fapswitch 2.2
_symmetry_space_group_name_H-M    P1
_symmetry_Int_Tables_number       1
_space_group_crystal_system       triclinic
_cell_length_a                    11.52248
_cell_length_b                    11.52159
_cell_length_c                    19.572076
_cell_angle_alpha                 90.663056
_cell_angle_beta                  90.044171
_cell_angle_gamma                 60.204791
_cell_volume                      2254.66588462

loop_
_atom_site_label
_atom_site_type_symbol
_atom_type_description
_atom_site_fract_x
_atom_site_fract_y
_atom_site_fract_z
_atom_type_partial_charge
C1    C     C_R   0.640392 0.117464 0.599246 0.542762
C2    C     C_1   0.652824 0.150023 0.668618 -0.000249
C3    C     C_R   0.541617 0.691181 0.294309 0.256102
C4    C     C_R   0.612321 0.746137 0.598669 0.536686
C5    C     C_R   0.545612 0.694200 0.224567 -0.175779
C6    C     C_R   0.659350 0.677828 0.190968 0.004354
C7    C     C_R   0.764216 0.679996 0.227122 0.250418
C8    C     C_R   0.754062 0.689559 0.298661 -0.191384
C9    C     C_R   0.644980 0.692419 0.332020 -0.000852
C10   C     C_R   0.237958 0.225938 0.288070 -0.159831
C11   C     C_R   0.186917 0.258386 0.223308 -0.197044
C12   C     C_1   0.641001 0.704097 0.667988 0.001734
C13   C     C_R   0.093246 0.223301 0.201117 0.040711
C14   C     C_R   0.055644 0.149169 0.243822 0.253486
C15   C     C_R   0.102218 0.123561 0.311084 -0.144157
C16   C     C_R   0.240885 0.145341 0.598201 0.545144
C17   C     C_R   0.192432 0.163068 0.332925 -0.013741
C18   C     C_R   0.720921 0.036292 0.285174 -0.126533
C19   C     C_R   0.720191 0.059592 0.216200 -0.112020
C20   C     C_R   0.665261 0.190325 0.192979 0.033698
C21   C     C_R   0.595822 0.298975 0.238382 -0.127831
C22   C     C_R   0.591150 0.276339 0.308043 -0.038125
C23   C     C_1   0.126611 0.198841 0.859219 0.002785
C24   C     C_R   0.659073 0.143377 0.331775 0.018087
C25   C     C_R   0.081776 0.231298 0.928534 0.549005
C26   C     C_R   0.684095 0.604383 0.929378 0.544277
C27   C     C_R   0.708567 0.206808 0.930051 0.543665
C28   C     C_R   0.643836 0.110793 0.401633 0.531234
C29   C     C_R   0.036394 0.262557 0.133377 0.582523
C30   C     C_R   0.681385 0.616478 0.124023 0.562834
C31   C     C_R   0.706209 0.211700 0.126298 0.562513
C32   C     C_R   0.616732 0.738504 0.402232 0.555775
C33   C     C_R   0.244972 0.140075 0.401362 0.545374
C34   C     C_1   0.171382 0.170411 0.727683 -0.031764
C35   C     C_1   0.670829 0.646133 0.859998 0.004879
C36   C     C_1   0.654703 0.683699 0.728364 -0.032069
C37   C     C_1   0.663728 0.666393 0.799599 -0.031348
C38   C     C_3   0.313248 0.777747 0.305718 -0.105146
C39   C     C_R   0.512915 0.390352 0.355338 0.073869
C40   C     C_R   0.372790 0.462670 0.350652 -0.039154
C41   C     C_R   0.296424 0.553254 0.402465 -0.086118
C42   C     C_R   0.359464 0.574729 0.458321 -0.055060
C43   C     C_R   0.498985 0.505558 0.462488 -0.049094
C44   C     C_R   0.575683 0.413735 0.411214 -0.048644
C45   C     C_1   0.150028 0.182353 0.798880 -0.031330
C46   C     C_3   0.988914 0.628023 0.226541 -0.126404
C47   C     C_3   0.041993 0.965004 0.214500 -0.095918
C48   C     C_1   0.195179 0.161051 0.667384 0.001800
C49   C     C_1   0.679031 0.191127 0.860690 0.005058
C50   C     C_1   0.658575 0.167460 0.728995 -0.032278
C51   C     C_1   0.666005 0.180867 0.800276 -0.030849
Cr1   Cr    Cr6+3 0.404720 0.198220 0.499960 1.025837
Cr2   Cr    Cr6+3 0.698290 0.897110 0.500380 1.014011
Cr3   Cr    Cr6+3 0.396970 0.904720 0.499610 1.021642
Cr4   Cr    Cr6+3 0.926180 0.152240 0.028110 1.042362
Cr5   Cr    Cr6+3 0.921340 0.452070 0.027460 1.057061
Cr6   Cr    Cr6+3 0.626260 0.447120 0.028700 1.019631
H1    H     H_    0.769437 0.975075 0.181286 0.147041
H2    H     H_    0.310045 0.871197 0.288725 0.116711
H3    H     H_    0.243362 0.805210 0.349646 0.140311
H4    H     H_    0.322607 0.446822 0.307849 0.070120
H5    H     H_    0.188419 0.607412 0.399067 0.079429
H6    H     H_    0.300270 0.645455 0.498167 0.097761
H7    H     H_    0.547695 0.522176 0.505759 0.111154
H8    H     H_    0.683501 0.357781 0.416027 0.086717
H9    H     H_    0.987462 0.705141 0.261701 0.087707
H10   H     H_    0.071522 0.600583 0.189426 0.137917
H11   H     H_    0.011565 0.535616 0.254517 0.125689
H12   H     H_    0.551683 0.400884 0.220488 0.139893
H13   H     H_    0.144171 0.925996 0.192533 0.094640
H14   H     H_    0.989785 0.931495 0.178849 0.159482
H15   H     H_    0.045227 0.920188 0.264859 0.085523
H16   H     H_    0.464607 0.693473 0.196838 0.142751
H17   H     H_    0.827961 0.698975 0.328562 0.123282
H18   H     H_    0.313623 0.250360 0.303363 0.144045
H19   H     H_    0.221933 0.309990 0.190597 0.140296
H20   H     H_    0.068999 0.072931 0.345567 0.113042
H21   H     H_    0.767179 0.933720 0.301869 0.134959
H22   H     H_    0.277688 0.736044 0.264649 0.084226
O1    O     O_R   0.267740 0.231990 0.575440 -0.505420
O2    O     O_R   0.596140 0.579600 0.952720 -0.505395
O3    O     O_R   0.639070 0.321380 0.958660 -0.494074
O4    O     O_R   0.527280 0.186680 0.570530 -0.495217
O5    O     O_R   0.821240 0.124490 0.104360 -0.492738
O6    O     O_R   0.036900 0.167320 0.097830 -0.472425
O7    O     O_R   0.056190 0.349890 0.102870 -0.523853
O8    O     O_R   0.797670 0.565150 0.097930 -0.451151
O9    O     O_R   0.595880 0.584540 0.104260 -0.544175
O10   O     O_R   0.638830 0.325960 0.099140 -0.513927
O11   O     O_3   0.824590 0.350480 0.028090 -0.275010
O12   O     O_R   0.685970 0.784630 0.430010 -0.523574
O13   O     O_R   0.728090 0.003480 0.576380 -0.504252
O14   O     O_R   0.682970 0.789220 0.570490 -0.491865
O15   O     O_R   0.499290 0.771920 0.575530 -0.521866
O16   O     O_R   0.285330 0.030900 0.569730 -0.496444
O17   O     O_R   0.270980 0.227040 0.423900 -0.518381
O18   O     O_R   0.530280 0.182090 0.430050 -0.498023
O19   O     O_R   0.731330 0.998530 0.424830 -0.527002
O20   O     O_3   0.441410 0.678406 0.326585 -0.537345
O21   O     O_3   0.867675 0.680538 0.190142 -0.551404
O22   O     O_3   0.970417 0.105994 0.220041 -0.544074
O23   O     O_R   0.502530 0.766960 0.423990 -0.459085
O24   O     O_R   0.288330 0.026310 0.429250 -0.506281
O25   O     O_3   0.499990 0.000020 0.499980 -0.253352
O26   O     O_R   0.821500 0.119550 0.952820 -0.508317
O27   O     O_R   0.037130 0.162750 0.957360 -0.494934
O28   O     O_R   0.056440 0.344950 0.951330 -0.503708
O29   O     O_R   0.797900 0.560570 0.957460 -0.495996

loop_
_geom_bond_atom_site_label_1
_geom_bond_atom_site_label_2
_ccdc_geom_bond_type
C28   O18   A    
C23   C45   T    
C41   C42   A    
C19   C20   A    
C16   C48   S    
C7    C8    A    
Cr5   O28   S    
Cr6   O10   S    
Cr4   O26   S    
C47   O22   S    
C1    O4    A    
C22   C24   A    
C13   C29   S    
C36   C37   S    
C35   C37   T    
C46   H9    S    
Cr4   O11   S    
C11   H19   S    
C5    C6    A    
C32   O12   A    
C38   H22   S    
C27   O26   A    
C10   C17   A    
Cr6   O3    S    
Cr1   O18   S    
C18   C19   A    
Cr5   O29   S    
C2    C50   T    
C9    C32   S    
C8    C9    A    
C31   O10   A    
Cr2   O12   S    
C18   C24   A    
C4    C12   S    
C29   O6    A    
Cr5   O11   S    
C21   C22   A    
Cr5   O8    S    
C44   H8    S    
C17   C33   S    
C41   H5    S    
C43   H7    S    
C19   H1    S    
C7    O21   S    
Cr4   O27   S    
Cr2   O14   S    
Cr3   O24   S    
Cr6   O11   S    
C26   O29   A    
C39   C40   A    
C14   O22   S    
C49   C51   T    
C40   H4    S    
C4    O14   A    
C21   H12   S    
C16   O1    A    
Cr4   O6    S    
Cr1   O4    S    
C43   C44   A    
C47   H13   S    
C46   H11   S    
C3    C9    A    
C10   H18   S    
Cr5   O7    S    
C18   H21   S    
Cr2   O13   S    
C8    H17   S    
C50   C51   S    
C29   O7    A    
C34   C45   S    
C47   H14   S    
Cr3   O16   S    
C6    C7    A    
C4    O15   A    
C40   C41   A    
C6    C30   S    
C1    O13   A    
C38   H3    S    
C12   C36   T    
C42   C43   A    
C30   O9    A    
C33   O17   A    
C25   O28   A    
C28   O19   A    
C15   C17   A    
C46   O21   S    
Cr1   O25   S    
C16   O16   A    
C25   O27   A    
C33   O24   A    
Cr3   O23   S    
C27   O3    A    
C24   C28   S    
C38   O20   S    
C3    C5    A    
C39   C44   A    
C32   O23   A    
Cr2   O19   S    
C26   O2    A    
Cr3   O25   S    
Cr6   O9    S    
C30   O8    A    
C46   H10   S    
Cr1   O1    S    
C11   C13   A    
C15   H20   S    
C22   C39   S    
C1    C2    S    
Cr1   O17   S    
Cr6   O2    S    
C23   C25   S    
C5    H16   S    
C47   H15   S    
Cr3   O15   S    
C10   C11   A    
C31   O5    A    
C38   H2    S    
C3    O20   S    
C26   C35   S    
C34   C48   T    
C20   C21   A    
C14   C15   A    
Cr2   O25   S    
Cr4   O5    S    
C13   C14   A    
C42   H6    S    
C27   C49   S    
C20   C31   S    
