data_mof_unit_46317.cif
_audit_creation_date              2012-12-10T17:45:33-0500
_audit_creation_method            fapswitch 2.2
_symmetry_space_group_name_H-M    P1
_symmetry_Int_Tables_number       1
_space_group_crystal_system       triclinic
_cell_length_a                    11.531484
_cell_length_b                    10.650192
_cell_length_c                    9.953151
_cell_angle_alpha                 88.334696
_cell_angle_beta                  89.593163
_cell_angle_gamma                 93.205463
_cell_volume                      1219.89696794

loop_
_atom_site_label
_atom_site_type_symbol
_atom_type_description
_atom_site_fract_x
_atom_site_fract_y
_atom_site_fract_z
_atom_type_partial_charge
C1    C     C_R   0.516523 0.262091 0.502655 0.902971
C2    C     C_R   0.479541 0.875139 0.490933 -0.163741
C3    C     C_R   0.307593 0.367131 0.133585 -0.032321
C4    C     C_R   0.282144 0.500001 0.500432 0.884226
C5    C     C_R   0.209568 0.336763 0.053697 -0.019238
C6    C     C_R   0.223807 0.326149 0.916951 -0.219349
C7    C     C_R   0.329454 0.361403 0.858369 -0.132421
C8    C     C_R   0.414398 0.431333 0.928477 0.133260
C9    C     C_R   0.409954 0.432513 0.073009 0.069406
C10   C     C_R   0.583819 0.564851 0.068904 -0.020381
C11   C     C_R   0.581677 0.567807 0.925475 -0.011008
C12   C     C_R   0.456175 0.041332 0.867123 0.287036
C13   C     C_R   0.491150 0.740031 0.497450 0.881091
C14   C     C_R   0.717897 0.500625 0.499587 0.903285
C15   C     C_1   0.161615 0.499766 0.501044 -0.161333
C16   C     C_1   0.059370 0.499677 0.500487 0.020307
C17   C     C_1   0.940650 0.499862 0.499407 0.026483
C18   C     C_1   0.838415 0.500205 0.498955 -0.140870
C19   C     C_R   0.521955 0.100217 0.759419 0.351793
C20   C     C_1   0.618597 0.137225 0.276244 0.255158
C21   C     C_1   0.665832 0.647463 0.850275 0.262955
C22   C     C_1   0.521509 0.892530 0.242602 0.301327
C23   C     C_R   0.385896 0.933827 0.843214 -0.179692
C24   C     C_1   0.675490 0.634356 0.137407 0.262611
C25   C     C_1   0.303669 0.290901 0.255731 0.314188
C26   C     C_1   0.097369 0.296577 0.111832 0.184857
C27   C     C_R   0.383051 0.880625 0.716866 0.396863
C28   C     C_R   0.453871 0.936511 0.610689 -0.119853
C29   C     C_R   0.504848 0.057006 0.626956 -0.036712
C30   C     C_R   0.537757 0.128841 0.509352 -0.088238
C31   C     C_R   0.557805 0.069989 0.387711 -0.076117
C32   C     C_R   0.522415 0.944548 0.375867 -0.067270
H1    H     H_    0.154726 0.284945 0.856207 0.165160
H2    H     H_    0.341446 0.335007 0.757019 0.203135
H3    H     H_    0.331978 0.891431 0.923777 0.206288
H4    H     H_    0.637903 0.180472 0.875213 0.344417
H5    H     H_    0.480430 0.178562 0.990048 0.337924
H6    H     H_    0.286002 0.775639 0.602112 0.321892
N1    N     N_R   0.498930 0.498800 0.142780 -0.132836
N2    N     N_R   0.498900 0.498720 0.857170 -0.121439
N3    N     N_1   0.667171 0.190688 0.187866 -0.189856
N4    N     N_1   0.733340 0.712043 0.790759 -0.191152
N5    N     N_1   0.519581 0.852433 0.135827 -0.180163
N6    N     N_1   0.749390 0.690790 0.191040 -0.196012
N7    N     N_1   0.291321 0.225273 0.350260 -0.227071
N8    N     N_1   0.007856 0.264657 0.158275 -0.177874
O1    O     O_R   0.500000 0.316780 0.614690 -0.595746
O2    O     O_3   0.453965 0.088602 0.994639 -0.764544
O3    O     O_3   0.304138 0.780310 0.699047 -0.726718
O4    O     O_R   0.499990 0.316750 0.385360 -0.628418
O5    O     O_R   0.334450 0.500030 0.614670 -0.607992
O6    O     O_R   0.334440 0.500000 0.385330 -0.625066
O7    O     O_R   0.500010 0.683250 0.614640 -0.574714
O8    O     O_R   0.500000 0.683220 0.385310 -0.624754
O9    O     O_R   0.665560 0.500000 0.614670 -0.597149
O10   O     O_R   0.665550 0.499970 0.385330 -0.614636
O11   O     O_3   0.610823 0.189733 0.781461 -0.741826
Zn1   Zn    Zn3+2 0.500010 0.500020 0.653130 1.000321
Zn2   Zn    Zn3+2 0.499990 0.499980 0.346870 0.969555

loop_
_geom_bond_atom_site_label_1
_geom_bond_atom_site_label_2
_ccdc_geom_bond_type
C15   C16   T    
C14   O9    A    
C14   O10   A    
O7    Zn1   S    
C6    H1    S    
C6    C7    A    
C3    C9    A    
O6    Zn2   S    
C23   C27   A    
C1    O4    A    
C14   C18   S    
C23   H3    S    
C31   C32   A    
O10   Zn2   S    
C3    C25   S    
C30   C31   A    
C12   O2    S    
N1    Zn2   S    
C4    C15   S    
C17   C18   T    
C7    C8    A    
O5    Zn1   S    
C13   O8    A    
C19   O11   S    
H5    O2    S    
C12   C23   A    
C28   C29   A    
C29   C30   A    
C22   C32   S    
C4    O6    A    
C5    C6    A    
C12   C19   A    
C1    C30   S    
C20   N3    T    
C13   O7    A    
O8    Zn2   S    
C11   N2    A    
C24   N6    T    
C7    H2    S    
O1    Zn1   S    
N2    Zn1   S    
C10   C11   A    
O4    Zn2   S    
C4    O5    A    
C5    C26   S    
C19   C29   A    
C25   N7    T    
C9    N1    A    
C2    C32   A    
H4    O11   S    
O9    Zn1   S    
C27   C28   A    
H6    O3    S    
C2    C13   S    
C26   N8    T    
C10   N1    A    
C2    C28   A    
C21   N4    T    
C8    N2    A    
C10   C24   S    
C11   C21   S    
C22   N5    T    
C1    O1    A    
C27   O3    S    
C16   C17   S    
C8    C9    A    
C3    C5    A    
C20   C31   S    
