data_mof_unit_10993.cif
_audit_creation_date              2012-12-10T18:10:56-0500
_audit_creation_method            fapswitch 2.2
_symmetry_space_group_name_H-M    P1
_symmetry_Int_Tables_number       1
_space_group_crystal_system       triclinic
_cell_length_a                    12.644639
_cell_length_b                    13.215284
_cell_length_c                    15.714212
_cell_angle_alpha                 91.198453
_cell_angle_beta                  102.548768
_cell_angle_gamma                 81.9564
_cell_volume                      2537.81652642

loop_
_atom_site_label
_atom_site_type_symbol
_atom_type_description
_atom_site_fract_x
_atom_site_fract_y
_atom_site_fract_z
_atom_type_partial_charge
Br1   Br    Br    0.857755 0.962480 0.593886 -0.540845
Br2   Br    Br    0.301902 0.137726 0.546711 -0.555461
Br3   Br    Br    0.968879 0.681322 0.760147 -0.428706
Br4   Br    Br    0.719314 0.570129 0.945704 -0.462374
C1    C     C_R   0.438594 0.690765 0.484304 0.845864
C2    C     C_R   0.596165 0.197141 0.505002 -0.237875
C3    C     C_R   0.293282 0.837508 0.479351 -0.230282
C4    C     C_R   0.501205 0.499733 0.661443 0.896403
C5    C     C_R   0.264528 0.941162 0.490747 -0.166137
C6    C     C_R   0.340481 0.008863 0.493411 0.243089
C7    C     C_R   0.444046 0.973425 0.472419 0.032850
C8    C     C_R   0.469168 0.868411 0.454473 0.047810
C9    C     C_R   0.529855 0.033586 0.479486 0.059110
C10   C     C_R   0.638595 0.985873 0.490273 0.024742
C11   C     C_R   0.657613 0.887452 0.458626 -0.213826
C12   C     C_3   0.382337 0.536293 0.025823 0.284310
C13   C     C_R   0.570192 0.833333 0.431805 -0.199912
C14   C     C_R   0.511687 0.138606 0.474917 -0.264538
C15   C     C_R   0.704884 0.146741 0.533953 0.454742
C16   C     C_R   0.561320 0.308167 0.507774 0.913730
C17   C     C_R   0.398216 0.799811 0.467815 -0.116203
C18   C     C_R   0.079700 0.382908 0.352858 -0.308505
C19   C     C_R   0.806353 0.611007 0.617587 0.530494
C20   C     C_R   0.915799 0.626016 0.647392 0.183736
C21   C     C_R   0.991744 0.590821 0.598406 -0.298185
C22   C     C_R   0.962123 0.534187 0.522246 -0.032295
C23   C     C_3   0.499553 0.501466 0.083282 0.077553
C24   C     C_R   0.851883 0.515930 0.496384 0.124150
C25   C     C_R   0.039594 0.488480 0.474788 0.031844
C26   C     C_R   0.004329 0.430962 0.399173 0.175896
C27   C     C_R   0.895403 0.416434 0.373733 -0.271989
C28   C     C_R   0.498741 0.500665 0.338675 0.857857
C29   C     C_R   0.822412 0.453196 0.424747 -0.183849
C30   C     C_R   0.151899 0.495030 0.500486 -0.025981
C31   C     C_R   0.189648 0.389868 0.383263 0.062021
C32   C     C_3   0.383786 0.521599 0.928252 -0.546228
C33   C     C_3   0.570623 0.582497 0.965753 0.124983
C34   C     C_3   0.551282 0.393249 0.058303 0.371426
C35   C     C_3   0.573568 0.579445 0.064889 -0.453008
C36   C     C_1   0.496250 0.502607 0.249478 -0.175977
C37   C     C_3   0.504375 0.498667 0.918190 0.125228
C38   C     C_3   0.294453 0.397131 0.058204 0.100770
C39   C     C_3   0.179843 0.373704 0.059460 -0.279885
C40   C     C_3   0.179313 0.259638 0.072315 -0.961177
C41   C     C_3   0.683772 0.267962 0.140036 0.107589
C42   C     C_3   0.647217 0.258364 0.226191 -0.391500
C43   C     C_3   0.685608 0.151991 0.266657 -0.959506
C44   C     C_3   0.844664 0.225441 0.506508 0.119023
C45   C     C_3   0.554122 0.392779 0.960164 -0.411242
C46   C     C_3   0.933004 0.139029 0.490983 -0.351777
C47   C     C_3   0.005581 0.173626 0.434934 -0.914864
C48   C     C_3   0.699095 0.744766 0.665944 0.140292
C49   C     C_3   0.603380 0.769839 0.711353 -0.327195
C50   C     C_3   0.567812 0.884860 0.713707 -0.883337
C51   C     C_1   0.496693 0.503380 0.174254 -0.005768
C52   C     C_1   0.505251 0.497812 0.826621 0.018714
C53   C     C_1   0.504127 0.498539 0.750978 -0.132209
C54   C     C_R   0.724427 0.039228 0.529157 0.152440
H1    H     H_    0.367599 0.620740 0.033831 0.149778
H2    H     H_    0.868356 0.369474 0.318034 0.160896
H3    H     H_    0.054080 0.338825 0.294947 0.156320
H4    H     H_    0.186405 0.540432 0.554232 0.129929
H5    H     H_    0.074231 0.605277 0.624213 0.187925
H6    H     H_    0.747279 0.422527 0.411628 0.193634
H7    H     H_    0.529104 0.658785 0.939270 0.122561
H8    H     H_    0.544855 0.657246 0.086619 0.145395
H9    H     H_    0.658725 0.558946 0.103023 0.268718
H10   H     H_    0.507055 0.332732 0.926615 0.133269
H11   H     H_    0.639509 0.372291 0.951521 0.242680
H12   H     H_    0.337573 0.459110 0.899456 0.212471
H13   H     H_    0.499416 0.335788 0.068897 0.021601
H14   H     H_    0.349008 0.369657 0.121109 0.132122
H15   H     H_    0.321281 0.355622 0.002718 0.124172
H16   H     H_    0.150031 0.416143 0.113466 0.235090
H17   H     H_    0.123095 0.399439 0.996906 0.252932
H18   H     H_    0.207358 0.215565 0.018430 0.275430
H19   H     H_    0.094946 0.245322 0.072678 0.278856
H20   H     H_    0.233734 0.232852 0.135506 0.257284
H21   H     H_    0.773944 0.246443 0.152204 0.172006
H22   H     H_    0.647718 0.213376 0.090739 0.124652
H23   H     H_    0.738847 0.852874 0.453541 0.184028
H24   H     H_    0.681320 0.315840 0.272962 0.222086
H25   H     H_    0.556585 0.273488 0.214770 0.205872
H26   H     H_    0.652335 0.093042 0.221119 0.275975
H27   H     H_    0.656159 0.147199 0.327863 0.259135
H28   H     H_    0.776372 0.136368 0.282306 0.265277
H29   H     H_    0.886095 0.292115 0.531331 0.193768
H30   H     H_    0.787038 0.248513 0.443465 0.102701
H31   H     H_    0.985747 0.111232 0.554523 0.290044
H32   H     H_    0.893548 0.075555 0.456225 0.232303
H33   H     H_    0.955625 0.202334 0.370860 0.250014
H34   H     H_    0.430668 0.174647 0.444580 0.219221
H35   H     H_    0.065376 0.108029 0.422992 0.278295
H36   H     H_    0.051417 0.233642 0.469169 0.304203
H37   H     H_    0.672493 0.772343 0.597668 0.156987
H38   H     H_    0.766389 0.786556 0.699218 0.201317
H39   H     H_    0.532963 0.732678 0.676380 0.215593
H40   H     H_    0.627954 0.739397 0.779254 0.260134
H41   H     H_    0.635938 0.923344 0.750907 0.282970
H42   H     H_    0.497328 0.900302 0.745900 0.270248
H43   H     H_    0.542507 0.916988 0.646619 0.277182
H44   H     H_    0.236335 0.786155 0.487254 0.182078
H45   H     H_    0.186173 0.967116 0.506758 0.186996
H46   H     H_    0.342244 0.592486 0.891390 0.190994
H47   H     H_    0.585644 0.759861 0.401882 0.178344
H48   H     H_    0.249177 0.354475 0.347727 0.130561
N1    N     N_R   0.222200 0.444690 0.455710 -0.099615
N2    N     N_R   0.776960 0.554780 0.543830 -0.179779
O1    O     O_R   0.366740 0.627160 0.478850 -0.616457
O2    O     O_3   0.659805 0.370349 0.109219 -0.621111
O3    O     O_3   0.790034 0.199756 0.571251 -0.587622
O4    O     O_3   0.732299 0.638045 0.669939 -0.579117
O5    O     O_R   0.544830 0.662520 0.507140 -0.621267
O6    O     O_R   0.410920 0.482310 0.608710 -0.611819
O7    O     O_R   0.589010 0.517670 0.637000 -0.530065
O8    O     O_R   0.455170 0.337480 0.492860 -0.593612
O9    O     O_R   0.633260 0.372840 0.521150 -0.605833
O10   O     O_R   0.410990 0.482330 0.363000 -0.617212
O11   O     O_R   0.589080 0.517690 0.391290 -0.645059
O12   O     O_3   0.290438 0.503888 0.050932 -0.606139
Zn1   Zn    Zn3+2 0.381090 0.476390 0.481110 0.967923
Zn2   Zn    Zn3+2 0.618910 0.523610 0.518890 0.976703

loop_
_geom_bond_atom_site_label_1
_geom_bond_atom_site_label_2
_ccdc_geom_bond_type
C45   H10   S    
C50   H43   S    
O9    Zn2   S    
O1    Zn1   S    
Br3   C20   S    
C11   H23   S    
C34   C45   S    
C49   C50   S    
C2    C15   A    
C9    C14   A    
C30   N1    A    
C43   H27   S    
C40   H19   S    
C24   N2    A    
C12   O12   S    
C26   C27   A    
C23   C51   S    
C48   O4    S    
C23   C34   S    
C30   H4    S    
C52   C53   T    
C48   H37   S    
C11   C13   A    
C21   H5    S    
C40   H18   S    
C4    O7    A    
C47   H33   S    
C42   H24   S    
O6    Zn1   S    
C46   H32   S    
O5    Zn2   S    
C23   C35   S    
C3    H44   S    
C33   H7    S    
C8    C13   A    
C19   C20   A    
C44   H30   S    
C34   O2    S    
C5    C6    A    
C4    O6    A    
C39   H16   S    
C44   C46   S    
O7    Zn2   S    
C45   H11   S    
C9    C10   A    
C50   H42   S    
C32   C37   S    
C34   H13   S    
C10   C54   A    
C37   C45   S    
C16   O9    A    
C32   H12   S    
C15   C54   A    
C39   H17   S    
C2    C14   A    
C27   C29   A    
C43   H28   S    
C20   C21   A    
O8    Zn1   S    
C28   O10   A    
C16   O8    A    
C41   O2    S    
C49   H39   S    
C21   C22   A    
C41   C42   S    
C8    C17   A    
O10   Zn1   S    
C27   H2    S    
C39   C40   S    
C37   C52   S    
C25   C26   A    
C19   O4    S    
C13   H47   S    
C4    C53   S    
C46   H31   S    
C5    H45   S    
C36   C51   T    
C38   H14   S    
C46   C47   S    
C44   H29   S    
C41   H21   S    
C43   H26   S    
C47   H35   S    
C24   C29   A    
C35   H8    S    
C50   H41   S    
C38   C39   S    
N1    Zn1   S    
C28   O11   A    
Br2   C6    S    
C48   C49   S    
O11   Zn2   S    
C3    C5    A    
C42   C43   S    
C38   H15   S    
C18   C26   A    
C1    O5    A    
C35   H9    S    
N2    Zn2   S    
C7    C8    A    
C15   O3    S    
C49   H40   S    
C2    C16   S    
C22   C24   A    
C32   H46   S    
C14   H34   S    
C18   C31   A    
C33   C35   S    
C31   H48   S    
C3    C17   A    
Br1   C54   S    
C12   C32   S    
C18   H3    S    
C7    C9    A    
C38   O12   S    
C1    O1    A    
C12   C23   S    
C29   H6    S    
C19   N2    A    
C25   C30   A    
C40   H20   S    
C48   H38   S    
C41   H22   S    
C28   C36   S    
C33   C37   S    
C31   N1    A    
C6    C7    A    
C47   H36   S    
C42   H25   S    
C44   O3    S    
C1    C17   S    
Br4   C33   S    
C22   C25   A    
C10   C11   A    
C12   H1    S    
