data_mof_unit_52634.cif
_audit_creation_date              2012-12-11T16:53:31-0500
_audit_creation_method            fapswitch 2.2
_symmetry_space_group_name_H-M    P1
_symmetry_Int_Tables_number       1
_space_group_crystal_system       triclinic
_cell_length_a                    14.928409
_cell_length_b                    14.777386
_cell_length_c                    16.977874
_cell_angle_alpha                 109.222667
_cell_angle_beta                  106.457431
_cell_angle_gamma                 107.953905
_cell_volume                      3040.02286486

loop_
_atom_site_label
_atom_site_type_symbol
_atom_type_description
_atom_site_fract_x
_atom_site_fract_y
_atom_site_fract_z
_atom_type_partial_charge
C1    C     C_R   0.089807 0.274699 0.048740 -0.139812
C2    C     C_R   0.021499 0.578091 0.742475 0.103873
C3    C     C_R   0.752939 0.194143 0.723824 0.062608
C4    C     C_R   0.289001 0.460447 0.963192 0.071652
C5    C     C_R   0.274723 0.687752 0.251961 -0.141457
C6    C     C_R   0.704821 0.501045 0.918242 -0.141433
C7    C     C_R   0.890903 0.469010 0.187758 -0.130436
C8    C     C_R   0.078796 0.809298 0.042465 0.698317
C9    C     C_R   0.907023 0.724329 0.966797 -0.267084
C10   C     C_R   0.064605 0.553287 0.264537 -0.124766
C11   C     C_R   0.281433 0.782891 0.175080 -0.033670
C12   C     C_R   0.932963 0.520520 0.748085 -0.147605
C13   C     C_R   0.698389 0.406857 0.996333 -0.141761
C14   C     C_R   0.338071 0.779108 0.252912 0.020531
C15   C     C_R   0.639773 0.439443 0.943209 0.076650
C16   C     C_R   0.973013 0.542694 0.273931 0.052858
C17   C     C_R   0.989949 0.826109 0.023134 -0.036785
C18   C     C_R   0.393604 0.462050 0.872552 0.166810
C19   C     C_R   0.350020 0.418357 0.922295 0.031616
C20   C     C_R   0.379657 0.344653 0.943380 -0.202535
C21   C     C_R   0.468450 0.337498 0.936534 -0.193477
C22   C     C_R   0.528007 0.405533 0.909984 0.029346
C23   C     C_R   0.768354 0.200083 0.810300 -0.126425
C24   C     C_R   0.481762 0.455651 0.866448 0.162368
C25   C     C_3   0.526131 0.565601 0.874193 -0.519567
C26   C     C_3   0.429949 0.572805 0.881015 -0.522764
C27   C     C_R   0.965318 0.592580 0.360623 0.134471
C28   C     C_R   0.026399 0.614614 0.671461 -0.034967
C29   C     C_R   0.134860 0.690103 0.604666 -0.222474
C30   C     C_R   0.125075 0.671428 0.677350 -0.236984
C31   C     C_R   0.935575 0.586198 0.593555 0.451439
C32   C     C_R   0.946357 0.610590 0.522440 0.013528
C33   C     C_R   0.046102 0.653906 0.525077 0.134732
C34   C     C_R   0.254720 0.531267 0.945820 -0.146844
C35   C     C_R   0.055115 0.648218 0.444463 -0.228269
C36   C     C_R   0.867562 0.569664 0.362040 -0.200210
C37   C     C_R   0.858427 0.581290 0.443570 -0.180681
C38   C     C_R   0.712173 0.097206 0.637237 0.131940
C39   C     C_R   0.447581 0.850569 0.318036 0.127368
C40   C     C_R   0.592705 0.026047 0.390547 -0.219852
C41   C     C_R   0.501474 0.944867 0.314853 -0.165178
C42   C     C_R   0.494259 0.832091 0.391568 -0.270912
C43   C     C_R   0.581162 0.915364 0.469817 0.185610
C44   C     C_R   0.627232 0.014968 0.470913 0.188205
C45   C     C_R   0.779913 0.297317 0.734301 -0.133764
C46   C     C_R   0.696412 0.104760 0.554610 -0.278797
C47   C     C_R   0.677782 0.995895 0.634599 -0.168159
C48   C     C_R   0.613520 0.904806 0.550674 -0.222554
C49   C     C_R   0.100808 0.060556 0.975012 0.192252
C50   C     C_R   0.007116 0.068215 0.964712 0.023174
C51   C     C_R   0.913752 0.972070 0.907891 -0.204894
C52   C     C_R   0.915199 0.877573 0.853204 -0.182386
C53   C     C_R   0.009473 0.876751 0.855270 0.013183
C54   C     C_R   0.101637 0.966495 0.922067 0.222250
C55   C     C_3   0.195317 0.023908 0.911778 -0.479064
C56   C     C_R   0.257957 0.441406 0.028505 -0.127482
C57   C     C_3   0.194193 0.126969 0.968523 -0.555949
C58   C     C_R   0.105069 0.603154 0.822054 -0.155181
C59   C     C_R   0.917380 0.191317 0.973410 -0.123573
C60   C     C_R   0.004969 0.173722 0.997930 0.069662
H1    H     H_    0.168586 0.291629 0.088616 0.099629
H2    H     H_    0.681971 0.523796 0.864257 0.102022
H3    H     H_    0.808693 0.442008 0.169537 0.097089
H4    H     H_    0.825563 0.706141 0.937009 0.146672
H5    H     H_    0.143389 0.604334 0.316709 0.096857
H6    H     H_    0.312404 0.832891 0.145902 0.145216
H7    H     H_    0.669747 0.345456 0.016324 0.087565
H8    H     H_    0.344092 0.303699 0.976565 0.134206
H9    H     H_    0.496895 0.290351 0.964055 0.127507
H10   H     H_    0.597993 0.623579 0.938877 0.202658
H11   H     H_    0.854150 0.505210 0.711372 0.168516
H12   H     H_    0.531052 0.564375 0.809752 0.192089
H13   H     H_    0.447825 0.634773 0.949625 0.201273
H14   H     H_    0.379659 0.576017 0.820573 0.191565
H15   H     H_    0.131981 0.674547 0.446095 0.111121
H16   H     H_    0.797213 0.534260 0.299432 0.120766
H17   H     H_    0.212035 0.726338 0.608317 0.136418
H18   H     H_    0.781223 0.555730 0.441567 0.167036
H19   H     H_    0.196198 0.695957 0.735431 0.140683
H20   H     H_    0.727412 0.181417 0.554937 0.120956
H21   H     H_    0.748013 0.133831 0.825653 0.085095
H22   H     H_    0.693771 0.986693 0.696947 0.115102
H23   H     H_    0.629561 0.100903 0.389395 0.123426
H24   H     H_    0.580879 0.828113 0.550301 0.127463
H25   H     H_    0.469889 0.959913 0.257466 0.126724
H26   H     H_    0.456968 0.758164 0.393713 0.116084
H27   H     H_    0.838838 0.971051 0.899292 0.124886
H28   H     H_    0.842665 0.806908 0.805066 0.141320
H29   H     H_    0.263715 0.014084 0.947946 0.204314
H30   H     H_    0.178631 0.007974 0.839139 0.197134
H31   H     H_    0.262792 0.177190 0.036801 0.197176
H32   H     H_    0.261379 0.561446 0.897092 0.110336
H33   H     H_    0.175478 0.169936 0.928212 0.204447
H34   H     H_    0.777040 0.323897 0.682115 0.097688
H35   H     H_    0.277177 0.394574 0.061179 0.087711
H36   H     H_    0.184710 0.661406 0.848965 0.093284
H37   H     H_    0.837932 0.132745 0.945253 0.082063
H38   H     H_    0.297401 0.650113 0.293666 0.091891
N1    N     N_R   0.055640 0.348550 0.045600 -0.039072
N2    N     N_R   0.798340 0.505430 0.954400 -0.033560
N3    N     N_R   0.931580 0.439470 0.128350 -0.041648
N4    N     N_R   0.051950 0.704140 0.002340 -0.108780
N5    N     N_R   0.944360 0.651450 0.954400 -0.070205
N6    N     N_R   0.039170 0.492150 0.176290 -0.041489
N7    N     N_R   0.188710 0.696600 0.128350 -0.048784
N8    N     N_R   0.794820 0.447010 0.002340 -0.038881
N9    N     N_R   0.960830 0.507850 0.823710 -0.046829
N10   N     N_R   0.811290 0.303400 0.871650 -0.038619
N11   N     N_R   0.205180 0.552990 0.997660 -0.043557
N12   N     N_R   0.814810 0.361830 0.823710 -0.039383
N13   N     N_R   0.201660 0.494570 0.045600 -0.039623
N14   N     N_R   0.068420 0.560530 0.871650 -0.041398
N15   N     N_R   0.948050 0.295860 0.997660 -0.039460
N16   N     N_R   0.185190 0.638170 0.176290 -0.045868
Ni1   Ni    Ni4+2 0.119330 0.493420 0.109950 0.209500
Ni2   Ni    Ni4+2 0.880670 0.506580 0.890050 0.205296
Ni3   Ni    Ni4+2 0.872590 0.372590 0.000000 0.212194
Ni4   Ni    Ni4+2 0.127410 0.627410 0.000000 0.228865
F1    F     F_    0.177761 0.887609 0.091127 -0.740888
O1    O     O_3   0.836390 0.532579 0.584659 -0.647723
C61   C     C_3   0.797354 0.421475 0.528149 0.204626
H39   H     H_    0.842225 0.387117 0.562896 0.095164
H40   H     H_    0.800594 0.403583 0.460317 0.104377
C62   C     C_3   0.683938 0.365646 0.509728 -0.907529
H41   H     H_    0.637321 0.397227 0.473176 0.261225
H42   H     H_    0.652049 0.278502 0.466057 0.210071
H43   H     H_    0.677273 0.379294 0.575714 0.249295

loop_
_geom_bond_atom_site_label_1
_geom_bond_atom_site_label_2
_ccdc_geom_bond_type
C56   H35   S    
N14   Ni4   S    
C5    N16   A    
C9    H4    S    
N9    N14   A    
C3    C23   A    
C19   C20   A    
N2    Ni2   S    
C2    C12   A    
C1    N1    A    
N16   Ni1   S    
C39   C41   A    
C53   C54   A    
C52   C53   A    
C35   H15   S    
C18   C24   A    
C36   C37   A    
C55   H30   S    
C10   N6    A    
N11   N13   A    
N1    Ni1   S    
C11   C14   A    
C49   C54   A    
C29   C33   A    
C26   H13   S    
C49   C57   S    
C18   C19   A    
C47   H22   S    
C58   H36   S    
C61   C62   S    
C36   H16   S    
C33   C35   A    
C14   C39   S    
C4    C19   S    
C15   C22   S    
C47   C48   A    
C3    C38   S    
C18   C26   S    
C11   N7    A    
C42   H26   S    
C5    C14   A    
C43   C48   A    
C56   N13   A    
N4    Ni4   S    
C11   H6    S    
C9    N5    A    
C16   C27   S    
C6    C15   A    
C59   C60   A    
C57   H33   S    
C21   C22   A    
C4    C56   A    
C40   H23   S    
C45   H34   S    
C44   C46   A    
N11   Ni4   S    
C39   C42   A    
N9    Ni2   S    
C4    C34   A    
C61   H40   S    
C51   C52   A    
N7    N16   A    
C52   H28   S    
C24   C25   S    
C1    C60   A    
C51   H27   S    
C45   N12   A    
C27   C35   A    
C25   C26   S    
C3    C45   A    
C48   H24   S    
C21   H9    S    
C6    N2    A    
C43   C44   A    
C29   C30   A    
N6    Ni1   S    
C31   C32   A    
C59   N15   A    
C50   C51   A    
C61   H39   S    
C25   H12   S    
C32   C37   A    
C20   C21   A    
C7    H3    S    
C38   C47   A    
C62   H43   S    
N15   Ni3   S    
C30   H19   S    
C9    C17   A    
C7    C16   A    
C12   H11   S    
N3    N6    A    
C55   C57   S    
N8    Ni3   S    
C59   H37   S    
C58   N14   A    
N7    Ni4   S    
C42   C43   A    
N12   Ni2   S    
O1    C61   S    
C62   H42   S    
C13   H7    S    
C10   H5    S    
C54   C55   S    
C40   C41   A    
C57   H31   S    
N10   Ni3   S    
C20   H8    S    
C28   C31   A    
C23   H21   S    
C13   N8    A    
C1    H1    S    
N1    N15   A    
C12   N9    A    
N13   Ni1   S    
C2    C58   A    
C27   C36   A    
C41   H25   S    
C37   H18   S    
N2    N8    A    
C8    C17   A    
C50   C60   S    
C32   C33   A    
C6    H2    S    
C13   C15   A    
N5    Ni2   S    
N3    Ni3   S    
C55   H29   S    
C10   C16   A    
C46   H20   S    
C23   N10   A    
C28   C30   A    
C26   H14   S    
N10   N12   A    
C22   C24   A    
N4    N5    A    
C34   H32   S    
C31   O1    S    
C38   C46   A    
C40   C44   A    
C29   H17   S    
C5    H38   S    
C49   C50   A    
C7    N3    A    
C34   N11   A    
C2    C28   S    
C25   H10   S    
C8    N4    A    
C8    F1    S    
C62   H41   S    
