data_mof_unit_54131.cif
_audit_creation_date              2012-12-11T15:16:45-0500
_audit_creation_method            fapswitch 2.2
_symmetry_space_group_name_H-M    P1
_symmetry_Int_Tables_number       1
_space_group_crystal_system       triclinic
_cell_length_a                    25.405669
_cell_length_b                    7.208471
_cell_length_c                    21.760234
_cell_angle_alpha                 89.811425
_cell_angle_beta                  109.675325
_cell_angle_gamma                 89.872367
_cell_volume                      3752.37241135

loop_
_atom_site_label
_atom_site_type_symbol
_atom_type_description
_atom_site_fract_x
_atom_site_fract_y
_atom_site_fract_z
_atom_type_partial_charge
O1    O     O_R   0.554350 0.505270 0.581390 -0.504926
O2    O     O_R   0.445650 0.005270 0.418610 -0.505290
O3    O     O_R   0.553380 0.177580 0.454800 -0.540965
O4    O     O_R   0.446620 0.677580 0.545200 -0.537062
C1    C     C_R   0.568170 0.345702 0.440515 0.738386
C2    C     C_R   0.431753 0.846329 0.559244 0.744131
O5    O     O_R   0.560970 0.175640 0.583140 -0.545556
O6    O     O_R   0.439030 0.675640 0.416860 -0.546489
O7    O     O_R   0.453290 0.004120 0.547860 -0.486478
O8    O     O_R   0.546710 0.504120 0.452140 -0.486827
C3    C     C_R   0.578314 0.344217 0.606842 0.720716
C4    C     C_R   0.421728 0.844826 0.393171 0.728031
O9    O     O_3   0.464660 0.338800 0.488280 -0.335011
O10   O     O_3   0.535340 0.838800 0.511720 -0.339516
V1    V     V_3+5 0.506560 0.064420 0.502170 1.569686
V2    V     V_3+5 0.493440 0.564420 0.497830 1.574657
C5    C     C_R   0.146824 0.009313 0.289023 -0.174528
C6    C     C_R   0.851482 0.532937 0.712300 -0.170663
H1    H     H_    0.231403 0.074905 0.394498 0.144473
H2    H     H_    0.765777 0.612067 0.608927 0.154985
H3    H     H_    0.135816 0.047845 0.331313 0.114717
H4    H     H_    0.861846 0.580761 0.670464 0.113516
C7    C     C_R   0.118709 0.942860 0.173463 -0.066054
C8    C     C_R   0.880946 0.446877 0.826604 -0.067055
C9    C     C_R   0.386882 0.765378 0.273406 0.062411
C10   C     C_R   0.614216 0.250520 0.725364 0.063572
C11   C     C_R   0.347681 0.776087 0.210788 -0.131878
C12   C     C_R   0.654153 0.249870 0.787579 -0.132038
C13   C     C_R   0.294137 0.838375 0.200161 -0.145147
C14   C     C_R   0.707016 0.318164 0.798918 -0.144645
C15   C     C_R   0.276980 0.895516 0.252047 0.049740
C16   C     C_R   0.722892 0.393394 0.748275 0.050770
C17   C     C_R   0.319042 0.917351 0.315887 -0.005505
C18   C     C_R   0.680240 0.422836 0.685097 0.001326
C19   C     C_R   0.218775 0.929889 0.241770 0.075244
C20   C     C_R   0.780665 0.435703 0.758934 0.073325
C21   C     C_R   0.203213 0.984316 0.295412 0.071879
C22   C     C_R   0.795339 0.504074 0.706180 0.064575
C23   C     C_R   0.243966 0.020937 0.355056 -0.216539
C24   C     C_R   0.753955 0.548652 0.647625 -0.214402
C25   C     C_R   0.300659 0.997758 0.364930 0.192674
C26   C     C_R   0.697546 0.518482 0.637605 0.173636
C27   C     C_R   0.175102 0.910332 0.180367 -0.200800
C28   C     C_R   0.824814 0.410523 0.819811 -0.198769
C29   C     C_R   0.104353 0.987856 0.228793 0.076540
C30   C     C_R   0.894525 0.502164 0.771599 0.078571
C31   C     C_R   0.375765 0.850453 0.327068 -0.112797
C32   C     C_R   0.624307 0.347571 0.672966 -0.114795
H5    H     H_    0.183172 0.874031 0.136439 0.144484
H6    H     H_    0.817283 0.367961 0.863558 0.142282
H7    H     H_    0.266527 0.832638 0.150359 0.153356
H8    H     H_    0.735218 0.302364 0.848159 0.148390
H9    H     H_    0.357674 0.722874 0.169449 0.135743
H10   H     H_    0.645215 0.184161 0.827878 0.137153
C33   C     C_R   0.083971 0.862689 0.836815 -0.231360
C34   C     C_R   0.915173 0.355857 0.161985 -0.230039
H11   H     H_    0.040543 0.825105 0.815202 0.116292
H12   H     H_    0.958336 0.313908 0.183360 0.116584
C35   C     C_R   0.119458 0.840607 0.800170 -0.136581
C36   C     C_R   0.879452 0.333259 0.198266 -0.137214
H13   H     H_    0.102389 0.784030 0.751466 0.144366
H14   H     H_    0.896048 0.271908 0.246467 0.144659
C37   C     C_R   0.176089 0.890661 0.826048 -0.030186
C38   C     C_R   0.823187 0.388892 0.172656 -0.029678
C39   C     C_R   0.195914 0.966525 0.889330 -0.137646
C40   C     C_R   0.803914 0.470398 0.110006 -0.138430
H15   H     H_    0.239195 0.008039 0.910469 0.167842
H16   H     H_    0.760889 0.515910 0.089096 0.168010
C41   C     C_R   0.160250 0.989981 0.926094 0.255475
C42   C     C_R   0.839822 0.494349 0.073602 0.254397
C43   C     C_R   0.103824 0.935804 0.900102 -0.069399
C44   C     C_R   0.895915 0.435194 0.099399 -0.070341
N1    N     N_R   0.269428 0.903033 0.813187 -0.292917
N2    N     N_R   0.729781 0.403851 0.185096 -0.292830
N3    N     N_R   0.302597 0.892817 0.777089 -0.300453
N4    N     N_R   0.696471 0.393420 0.221004 -0.300981
C45   C     C_R   0.281672 0.847807 0.712816 0.520103
C46   C     C_R   0.717184 0.345544 0.285162 0.519835
N5    N     N_R   0.226392 0.807457 0.686649 -0.286963
N6    N     N_R   0.772347 0.302405 0.311406 -0.284177
N7    N     N_R   0.193219 0.817205 0.722839 -0.294905
N8    N     N_R   0.805654 0.312300 0.275404 -0.294693
C47   C     C_R   0.213799 0.868094 0.786686 0.534108
C48   C     C_R   0.785309 0.366112 0.211697 0.533848
C49   C     C_R   0.314502 0.717649 0.626019 -0.194817
C50   C     C_R   0.683497 0.211192 0.370573 -0.191416
H17   H     H_    0.285254 0.605176 0.621809 0.135494
H18   H     H_    0.712497 0.098081 0.373789 0.133285
C51   C     C_R   0.345904 0.723120 0.583629 0.081698
C52   C     C_R   0.651477 0.213127 0.412314 0.076900
C53   C     C_R   0.387662 0.861812 0.592098 -0.117841
C54   C     C_R   0.611486 0.358130 0.406346 -0.121506
C55   C     C_R   0.384562 0.020101 0.630695 0.214446
C56   C     C_R   0.614889 0.517369 0.368004 0.218799
C57   C     C_R   0.349701 0.018521 0.670056 0.048193
C58   C     C_R   0.649477 0.516075 0.328359 0.049204
C59   C     C_R   0.317358 0.859343 0.670771 -0.066037
C60   C     C_R   0.681402 0.356125 0.327026 -0.066041
O11   O     O_R   0.953220 0.285790 0.047790 -0.539168
O12   O     O_R   0.046780 0.785790 0.952210 -0.538816
O13   O     O_R   0.939020 0.617570 0.916840 -0.531448
O14   O     O_R   0.060980 0.117570 0.083160 -0.531529
C61   C     C_R   0.924185 0.449133 0.892389 0.709363
C62   C     C_R   0.075761 0.948255 0.107578 0.709971
O15   O     O_R   0.946600 0.615450 0.045180 -0.522632
O16   O     O_R   0.053400 0.115450 0.954820 -0.522796
O17   O     O_R   0.054370 0.786770 0.081410 -0.542812
O18   O     O_R   0.945630 0.286770 0.918590 -0.543231
C63   C     C_R   0.934346 0.446768 0.061352 0.721634
C64   C     C_R   0.065582 0.946877 0.938506 0.721383
O19   O     O_3   0.035300 0.454160 0.011680 -0.368971
O20   O     O_3   0.964700 0.954160 0.988320 -0.368914
V3    V     V_3+5 0.993450 0.728620 0.997830 1.479717
V4    V     V_3+5 0.006550 0.228620 0.002170 1.478451
C65   C     C_3   0.044194 0.016423 0.224549 -0.388269
C66   C     C_3   0.015003 0.830363 0.224373 -0.317660
C67   C     C_3   0.953482 0.859092 0.216273 -0.722468
H19   H     H_    0.949352 0.948505 0.255879 0.225524
H20   H     H_    0.931021 0.924600 0.168260 0.242620
H21   H     H_    0.933820 0.723261 0.218660 0.228581
H22   H     H_    0.017712 0.741925 0.183827 0.198346
H23   H     H_    0.036000 0.756156 0.271145 0.197829
H24   H     H_    0.042159 0.100449 0.266489 0.171528
H25   H     H_    0.021581 0.096191 0.179783 0.171287
C68   C     C_3   0.954507 0.531266 0.775312 -0.389269
C69   C     C_3   0.983943 0.345296 0.775132 -0.318611
C70   C     C_3   0.045413 0.373717 0.783176 -0.721651
H26   H     H_    0.049401 0.463931 0.743517 0.225684
H27   H     H_    0.067817 0.438132 0.831166 0.242546
H28   H     H_    0.065230 0.237807 0.780862 0.228241
H29   H     H_    0.981436 0.255102 0.815529 0.197497
H30   H     H_    0.962963 0.272819 0.728257 0.198968
H31   H     H_    0.956184 0.616343 0.733269 0.171407
H32   H     H_    0.977140 0.609896 0.820045 0.172749
Br1   Br    Br    0.190810 0.090359 0.012344 -0.595794
Br2   Br    Br    0.809945 0.601365 0.987944 -0.589643
C71   C     C_3   0.326620 0.597738 0.524125 -0.282532
C72   C     C_3   0.267465 0.652482 0.479777 -0.359159
C73   C     C_3   0.250491 0.550367 0.414720 -0.704111
H33   H     H_    0.280326 0.580216 0.388586 0.239826
H34   H     H_    0.249443 0.398878 0.423088 0.250122
H35   H     H_    0.208163 0.596621 0.383569 0.213740
H36   H     H_    0.236620 0.619991 0.504286 0.202141
H37   H     H_    0.265801 0.804056 0.470190 0.226581
H38   H     H_    0.353910 0.606055 0.494055 0.209036
H39   H     H_    0.326294 0.451376 0.539907 0.227065
C74   C     C_3   0.669013 0.076585 0.469311 -0.299445
C75   C     C_3   0.698849 0.179314 0.533030 -0.322451
C76   C     C_3   0.730058 0.050239 0.589232 -0.709296
H40   H     H_    0.699957 0.974673 0.606847 0.264043
H41   H     H_    0.756779 0.950851 0.574103 0.231646
H42   H     H_    0.757258 0.133339 0.630566 0.215756
H43   H     H_    0.729180 0.280265 0.525452 0.218622
H44   H     H_    0.666865 0.254658 0.547184 0.207746
H45   H     H_    0.633455 0.997523 0.474022 0.255725
H46   H     H_    0.698024 0.970421 0.461663 0.191078
Br3   Br    Br    0.420808 0.253036 0.624893 -0.627737
Br4   Br    Br    0.578247 0.749876 0.373048 -0.640310
C77   C     C_3   0.343381 0.193577 0.706347 -0.305557
C78   C     C_3   0.392915 0.219234 0.769821 -0.287157
C79   C     C_3   0.388443 0.403550 0.802092 -0.708218
H47   H     H_    0.389146 0.521116 0.769211 0.237111
H48   H     H_    0.349096 0.409323 0.813682 0.242570
H49   H     H_    0.424363 0.418038 0.848126 0.217294
H50   H     H_    0.393855 0.104258 0.804265 0.217098
H51   H     H_    0.433072 0.216140 0.760057 0.219715
H52   H     H_    0.338637 0.316707 0.674219 0.200872
H53   H     H_    0.303943 0.193749 0.717603 0.180216
C80   C     C_3   0.655905 0.692032 0.292242 -0.304282
C81   C     C_3   0.606480 0.720083 0.228667 -0.286672
C82   C     C_3   0.610920 0.905553 0.196733 -0.709215
H54   H     H_    0.609949 0.021929 0.229711 0.237468
H55   H     H_    0.650382 0.911801 0.185411 0.242707
H56   H     H_    0.575126 0.921649 0.150586 0.217199
H57   H     H_    0.605698 0.606380 0.194078 0.216917
H58   H     H_    0.566239 0.716679 0.238221 0.219712
H59   H     H_    0.660585 0.814202 0.324434 0.201718
H60   H     H_    0.695427 0.692063 0.281168 0.179389
C83   C     C_3   0.438388 0.650930 0.279164 -0.364650
C84   C     C_3   0.423663 0.443336 0.270058 -0.296240
C85   C     C_3   0.471891 0.328359 0.263437 -0.720651
H61   H     H_    0.482338 0.374281 0.220161 0.224796
H62   H     H_    0.509186 0.342695 0.307588 0.224265
H63   H     H_    0.459869 0.179718 0.257537 0.224245
H64   H     H_    0.413022 0.391798 0.312649 0.214727
H65   H     H_    0.386768 0.421224 0.225467 0.205185
H66   H     H_    0.456391 0.698709 0.241799 0.182461
H67   H     H_    0.471001 0.668478 0.326623 0.225517
C86   C     C_3   0.562739 0.135606 0.718549 -0.365554
C87   C     C_3   0.576109 0.926995 0.718593 -0.289694
C88   C     C_3   0.530712 0.808137 0.730147 -0.724234
H68   H     H_    0.528908 0.833686 0.779706 0.225121
H69   H     H_    0.489494 0.840865 0.693596 0.223186
H70   H     H_    0.540107 0.659026 0.726038 0.225999
H71   H     H_    0.580328 0.888894 0.670998 0.219213
H72   H     H_    0.616317 0.893399 0.757579 0.204672
H73   H     H_    0.547325 0.168673 0.759473 0.180523
H74   H     H_    0.528366 0.169608 0.673778 0.221525
Br5   Br    Br    0.346019 0.113997 0.443128 -0.596003
Br6   Br    Br    0.651094 0.632483 0.558740 -0.613337

loop_
_geom_bond_atom_site_label_1
_geom_bond_atom_site_label_2
_ccdc_geom_bond_type
C86   H74   S    
C68   H32   S    
C40   H16   S    
C82   H54   S    
C37   C39   A    
O12   C64   A    
C69   C70   S    
C7    C29   A    
C33   C35   A    
C11   C13   A    
O13   V3    S    
C80   C81   S    
C30   C68   S    
C74   C75   S    
O1    C3    A    
O2    V1    S    
C25   Br5   S    
O2    C4    A    
O11   V4    S    
C88   H69   S    
C79   H47   S    
C72   C73   S    
C9    C83   S    
C23   C25   A    
C81   H58   S    
C85   H61   S    
C66   C67   S    
O5    C3    A    
C82   H55   S    
C87   C88   S    
N2    N4    A    
O16   V4    S    
C57   C77   S    
C16   C20   A    
C71   H38   S    
C19   C21   A    
C5    C29   A    
C72   H36   S    
C67   H20   S    
O16   C64   A    
H2    C24   S    
C73   H35   S    
C46   N6    A    
C83   H66   S    
C81   C82   S    
H1    C23   S    
C28   H6    S    
C65   C66   S    
O11   C63   A    
C43   C64   S    
C7    C27   A    
C77   H53   S    
C36   H14   S    
O6    V2    S    
O18   V4    S    
C41   C43   A    
O17   V3    S    
C86   H73   S    
N7    C47   A    
C38   C48   S    
C77   C78   S    
C34   H12   S    
C18   C26   A    
C39   H15   S    
C58   C60   A    
C46   C60   S    
C15   C17   A    
C45   C59   S    
C61   O18   A    
C78   H51   S    
C51   C53   A    
C19   C27   A    
C9    C31   A    
C87   H72   S    
C24   C26   A    
C41   Br1   S    
C22   C24   A    
C42   Br2   S    
N1    N3    A    
C3    C32   S    
C75   H44   S    
C2    O7    A    
C4    C31   S    
C6    C30   A    
C80   H59   S    
O20   V3    S    
C79   H48   S    
C10   C86   S    
C81   H57   S    
C49   H17   S    
C55   Br3   S    
C82   H56   S    
C35   H13   S    
C65   H24   S    
C66   H22   S    
N4    C46   A    
C88   H68   S    
C71   H39   S    
C75   C76   S    
N6    N8    A    
C50   C52   A    
C67   H21   S    
N5    N7    A    
C12   H10   S    
C27   H5    S    
C83   H67   S    
C34   C44   A    
C5    H3    S    
C34   C36   A    
C37   C47   S    
C16   C18   A    
O4    V2    S    
O14   C62   A    
C70   H27   S    
C52   C74   S    
O14   V4    S    
C84   H65   S    
C53   C55   A    
C29   C65   S    
C52   C54   A    
C7    C62   S    
C69   H30   S    
O6    C4    A    
C57   C59   A    
C45   N5    A    
O1    V2    S    
C5    C21   A    
C78   H50   S    
C56   C58   A    
C74   H46   S    
N3    C45   A    
C66   H23   S    
C87   H71   S    
C76   H42   S    
O4    C2    A    
N8    C48   A    
C58   C80   S    
C33   H11   S    
C68   C69   S    
C8    C28   A    
C15   C19   A    
C20   C28   A    
C18   C32   A    
C75   H43   S    
C70   H26   S    
C80   H60   S    
C79   H49   S    
O3    V1    S    
C84   C85   S    
C13   H7    S    
C85   H63   S    
C68   H31   S    
C39   C41   A    
O15   C63   A    
C44   C63   S    
C49   C51   A    
C65   H25   S    
C6    H4    S    
C35   C37   A    
O12   V3    S    
N2    C48   A    
O3    C1    A    
O15   V3    S    
C56   Br4   S    
C73   H33   S    
C11   H9    S    
C12   C14   A    
C10   C32   A    
C74   H45   S    
C9    C11   A    
C71   C72   S    
C10   C12   A    
O13   C61   A    
C36   C38   A    
C8    C61   S    
C8    C30   A    
C78   C79   S    
C13   C15   A    
C76   H41   S    
C6    C22   A    
C88   H70   S    
C17   C25   A    
C1    O8    A    
C21   C23   A    
O8    V2    S    
C76   H40   S    
C20   C22   A    
C14   C16   A    
C73   H34   S    
C54   C56   A    
C40   C42   A    
C14   H8    S    
C69   H29   S    
C72   H37   S    
C17   C31   A    
O5    V1    S    
C26   Br6   S    
C77   H52   S    
O19   V4    S    
C50   H18   S    
C51   C71   S    
O7    V1    S    
C86   C87   S    
C50   C60   A    
C70   H28   S    
C1    C54   S    
C49   C59   A    
C84   H64   S    
C83   C84   S    
C85   H62   S    
C55   C57   A    
O9    V2    S    
O10   V1    S    
C42   C44   A    
C67   H19   S    
N1    C47   A    
C62   O17   A    
C33   C43   A    
C2    C53   S    
C38   C40   A    
