data_mof_unit_38200.cif
_audit_creation_date              2013-03-05T15:44:05-0500
_audit_creation_method            fapswitch 2.2
_symmetry_space_group_name_H-M    P1
_symmetry_Int_Tables_number       1
_space_group_crystal_system       triclinic
_cell_length_a                    30.419461
_cell_length_b                    22.255555
_cell_length_c                    18.147115
_cell_angle_alpha                 90.011653
_cell_angle_beta                  123.215048
_cell_angle_gamma                 89.968619
_cell_volume                      10278.4104285

loop_
_atom_site_label
_atom_site_type_symbol
_atom_site_description
_atom_site_fract_x
_atom_site_fract_y
_atom_site_fract_z
_atom_type_partial_charge
C1    C     C_R   0.542703 0.583857 0.740106 -0.205087
C2    C     C_R   0.467254 0.391506 0.290656 -0.171607
C3    C     C_R   0.457253 0.583742 0.259805 -0.205499
C4    C     C_R   0.532808 0.391477 0.709360 -0.173340
C5    C     C_R   0.042686 0.083916 0.740060 -0.200149
C6    C     C_R   0.967283 0.891482 0.290726 -0.177888
C7    C     C_R   0.957165 0.083574 0.259639 -0.207749
C8    C     C_R   0.032766 0.891478 0.709297 -0.178379
H1    H     H_    0.516151 0.581334 0.762151 0.125222
H2    H     H_    0.498146 0.379860 0.280776 0.140955
H3    H     H_    0.483805 0.581118 0.237765 0.126288
H4    H     H_    0.501869 0.379794 0.719090 0.132776
H5    H     H_    0.016179 0.081369 0.762195 0.124448
H6    H     H_    0.998218 0.879827 0.280950 0.131115
H7    H     H_    0.983705 0.080867 0.237584 0.124348
H8    H     H_    0.001835 0.879820 0.719058 0.130949
N1    N     N_R   0.532970 0.559900 0.665210 -0.060649
N2    N     N_R   0.467030 0.440100 0.334790 -0.065804
N3    N     N_R   0.467030 0.559900 0.334790 -0.060536
N4    N     N_R   0.532970 0.440100 0.665210 -0.065328
N5    N     N_R   0.032970 0.059900 0.665210 -0.060872
N6    N     N_R   0.967030 0.940100 0.334790 -0.064691
N7    N     N_R   0.967030 0.059900 0.334790 -0.060423
N8    N     N_R   0.032970 0.940100 0.665210 -0.065073
C9    C     C_R   0.623881 0.612087 0.572392 -0.090205
C10   C     C_R   0.353301 0.425816 0.430056 0.023483
C11   C     C_R   0.376126 0.612122 0.427604 -0.083190
C12   C     C_R   0.646675 0.425639 0.569721 0.028401
C13   C     C_R   0.123890 0.112081 0.572372 -0.081995
C14   C     C_R   0.853299 0.925824 0.430056 0.023100
C15   C     C_R   0.876581 0.112480 0.427829 -0.083403
C16   C     C_R   0.146733 0.925947 0.569908 0.024809
H9    H     H_    0.650357 0.625053 0.639520 0.165987
H10   H     H_    0.319409 0.437461 0.366572 0.174267
H11   H     H_    0.349674 0.625118 0.360485 0.165502
H12   H     H_    0.680696 0.436954 0.633216 0.166020
H13   H     H_    0.150392 0.125041 0.639492 0.165422
H14   H     H_    0.819409 0.937470 0.366569 0.173894
H15   H     H_    0.850523 0.125902 0.360784 0.157653
H16   H     H_    0.180604 0.937651 0.633375 0.173815
N9    N     N_R   0.597900 0.559930 0.545530 -0.046408
N10   N     N_R   0.402100 0.440070 0.454470 -0.059499
N11   N     N_R   0.402100 0.559930 0.454470 -0.046336
N12   N     N_R   0.597900 0.440070 0.545530 -0.059096
N13   N     N_R   0.097900 0.059930 0.545530 -0.046571
N14   N     N_R   0.902100 0.940070 0.454470 -0.059250
N15   N     N_R   0.902100 0.059930 0.454470 -0.045191
N16   N     N_R   0.097900 0.940070 0.545530 -0.059315
C17   C     C_R   0.574425 0.612107 0.425710 -0.109494
C18   C     C_R   0.403201 0.421506 0.575091 -0.126304
C19   C     C_R   0.425558 0.612131 0.574270 -0.110804
C20   C     C_R   0.596610 0.421219 0.424716 -0.125810
C21   C     C_R   0.074403 0.112109 0.425689 -0.111347
C22   C     C_R   0.903197 0.921510 0.575088 -0.126441
C23   C     C_R   0.925870 0.112183 0.574452 -0.111447
C24   C     C_R   0.096826 0.921584 0.424900 -0.125999
H17   H     H_    0.555100 0.624712 0.357551 0.099334
H18   H     H_    0.415410 0.424774 0.643165 0.098674
H19   H     H_    0.444855 0.624741 0.642416 0.098729
H20   H     H_    0.584229 0.424240 0.356541 0.110764
H21   H     H_    0.055036 0.124716 0.357518 0.098983
H22   H     H_    0.915403 0.924777 0.643161 0.097124
H23   H     H_    0.945335 0.124668 0.642638 0.105082
H24   H     H_    0.084599 0.924879 0.356819 0.096785
N17   N     N_R   0.567170 0.559950 0.454460 -0.049340
N18   N     N_R   0.432830 0.440050 0.545540 -0.050852
N19   N     N_R   0.432830 0.559950 0.545540 -0.049197
N20   N     N_R   0.567170 0.440050 0.454460 -0.052146
N21   N     N_R   0.067170 0.059950 0.454460 -0.049169
N22   N     N_R   0.932830 0.940050 0.545540 -0.050486
N23   N     N_R   0.932830 0.059950 0.545540 -0.049286
N24   N     N_R   0.067170 0.940050 0.454460 -0.050489
C25   C     C_R   0.383520 0.583779 0.257134 0.299947
C26   C     C_R   0.606513 0.391909 0.710671 0.378354
C27   C     C_R   0.616447 0.583853 0.742793 0.304885
C28   C     C_R   0.393531 0.391938 0.289310 0.371856
C29   C     C_R   0.883464 0.083615 0.257047 0.305648
C30   C     C_R   0.106486 0.891892 0.710629 0.372429
C31   C     C_R   0.116415 0.083982 0.742716 0.301372
C32   C     C_R   0.893544 0.891917 0.289339 0.372479
N25   N     N_R   0.421470 0.559970 0.334770 -0.090998
N26   N     N_R   0.578530 0.440030 0.665230 -0.092520
N27   N     N_R   0.578530 0.559970 0.665230 -0.090406
N28   N     N_R   0.421470 0.440030 0.334770 -0.092566
N29   N     N_R   0.921470 0.059970 0.334770 -0.090815
N30   N     N_R   0.078530 0.940030 0.665230 -0.092581
N31   N     N_R   0.078530 0.059970 0.665230 -0.091129
N32   N     N_R   0.921470 0.940030 0.334770 -0.092271
C33   C     C_R   0.594657 0.600366 0.790678 -0.066813
C34   C     C_R   0.421181 0.359724 0.261135 -0.095073
C35   C     C_R   0.405259 0.600168 0.209144 -0.065199
C36   C     C_R   0.578917 0.359634 0.738872 -0.095076
C37   C     C_R   0.094582 0.100583 0.790498 -0.058989
C38   C     C_R   0.921211 0.859682 0.261204 -0.093254
C39   C     C_R   0.905114 0.099858 0.208865 -0.066563
C40   C     C_R   0.078855 0.859642 0.738786 -0.092828
C41   C     C_R   0.608965 0.646772 0.498798 0.032872
C42   C     C_R   0.352462 0.412569 0.503395 0.017055
C43   C     C_R   0.391036 0.646820 0.501178 0.032304
C44   C     C_R   0.647337 0.412121 0.496251 0.018953
C45   C     C_R   0.108960 0.146767 0.498771 0.033060
C46   C     C_R   0.852459 0.912574 0.503391 0.016689
C47   C     C_R   0.891686 0.147148 0.501581 0.031180
C48   C     C_R   0.147592 0.912752 0.496571 0.016790
Ni1   Ni    Ni4+2 0.483030 0.500000 0.604430 0.203389
Ni2   Ni    Ni4+2 0.516970 0.500000 0.395570 0.205727
Ni3   Ni    Ni4+2 0.983030 0.000000 0.604430 0.202757
Ni4   Ni    Ni4+2 0.016970 0.000000 0.395570 0.201714
Ni5   Ni    Ni4+2 0.587400 0.500000 0.604430 0.303125
Ni6   Ni    Ni4+2 0.412600 0.500000 0.395570 0.306305
Ni7   Ni    Ni4+2 0.087400 0.000000 0.604430 0.306302
Ni8   Ni    Ni4+2 0.912600 0.000000 0.395570 0.305815
C49   C     C_R   0.690899 0.388250 0.416394 -0.163418
C50   C     C_R   0.335526 0.735960 0.420617 -0.167185
C51   C     C_R   0.257065 0.389210 0.423030 -0.130248
C52   C     C_R   0.664495 0.735865 0.579298 -0.169380
C53   C     C_R   0.243047 0.889599 0.576882 -0.130215
C54   C     C_R   0.886976 0.235503 0.581325 -0.149930
C55   C     C_R   0.757072 0.889168 0.423012 -0.131470
C56   C     C_R   0.164501 0.235842 0.579276 -0.163648
C57   C     C_R   0.694515 0.397953 0.495905 0.080511
C58   C     C_R   0.371921 0.707680 0.500809 0.089247
C59   C     C_R   0.304988 0.399540 0.503374 0.079058
C60   C     C_R   0.628110 0.707578 0.499130 0.088959
C61   C     C_R   0.195082 0.899853 0.496555 0.079439
C62   C     C_R   0.873506 0.208474 0.501761 0.081809
C63   C     C_R   0.804983 0.899535 0.503360 0.079297
C64   C     C_R   0.128114 0.207566 0.499102 0.089170
C65   C     C_R   0.742435 0.387816 0.576028 -0.160568
C66   C     C_R   0.385413 0.734889 0.580077 -0.186394
C67   C     C_R   0.308268 0.390750 0.582670 -0.181781
C68   C     C_R   0.614663 0.734706 0.419842 -0.185726
C69   C     C_R   0.191782 0.891058 0.417240 -0.182941
C70   C     C_R   0.837680 0.237284 0.421885 -0.179096
C71   C     C_R   0.808248 0.890775 0.582649 -0.182966
C72   C     C_R   0.114677 0.234697 0.419821 -0.186984
C73   C     C_R   0.783896 0.360450 0.577460 0.099386
C74   C     C_R   0.356450 0.783493 0.579462 0.110569
C75   C     C_R   0.267203 0.362588 0.582316 0.107660
C76   C     C_R   0.643656 0.783216 0.420422 0.110056
C77   C     C_R   0.232860 0.862897 0.417569 0.108811
C78   C     C_R   0.807343 0.284748 0.420195 0.100527
C79   C     C_R   0.767179 0.862621 0.582294 0.108900
C80   C     C_R   0.143665 0.283222 0.420419 0.110669
C81   C     C_R   0.777825 0.343567 0.497640 0.019677
C82   C     C_R   0.313951 0.805560 0.498502 0.021105
C83   C     C_R   0.221765 0.345264 0.501510 0.015578
C84   C     C_R   0.686125 0.805304 0.501367 0.020864
C85   C     C_R   0.278331 0.845591 0.498368 0.015431
C86   C     C_R   0.815535 0.306020 0.499849 0.014014
C87   C     C_R   0.721754 0.845265 0.501492 0.015278
C88   C     C_R   0.186140 0.305290 0.501374 0.021329
C89   C     C_R   0.731783 0.359494 0.415911 -0.043999
C90   C     C_R   0.304413 0.783323 0.417925 -0.044055
C91   C     C_R   0.214747 0.362883 0.420893 -0.042112
C92   C     C_R   0.695615 0.783169 0.581955 -0.044042
C93   C     C_R   0.285378 0.863270 0.578990 -0.042443
C94   C     C_R   0.858589 0.284904 0.581558 -0.032125
C95   C     C_R   0.714757 0.862834 0.420872 -0.042528
C96   C     C_R   0.195641 0.283125 0.581954 -0.044651
C97   C     C_R   0.829687 0.345559 0.658134 -0.296419
C98   C     C_R   0.366696 0.806740 0.658981 -0.312456
C99   C     C_R   0.273317 0.346142 0.661820 -0.297598
C100  C     C_R   0.633476 0.806329 0.340886 -0.311518
C101  C     C_R   0.226720 0.846402 0.338057 -0.300168
C102  C     C_R   0.765281 0.306381 0.339582 -0.281543
C103  C     C_R   0.773271 0.846222 0.661797 -0.300964
C104  C     C_R   0.133462 0.306386 0.340891 -0.313068
C105  C     C_R   0.261821 0.806293 0.337154 0.345238
C106  C     C_R   0.726853 0.342922 0.336355 0.346708
C107  C     C_R   0.738162 0.806181 0.662708 0.345084
C108  C     C_R   0.168183 0.347074 0.340079 0.342063
C109  C     C_R   0.867794 0.308517 0.661231 0.340043
C110  C     C_R   0.331980 0.847493 0.659791 0.342902
C111  C     C_R   0.238213 0.306089 0.662719 0.344957
C112  C     C_R   0.668218 0.846972 0.340062 0.343996
H25   H     H_    0.655073 0.399764 0.355173 0.164913
H26   H     H_    0.328952 0.718453 0.360052 0.175654
H27   H     H_    0.254242 0.395647 0.361754 0.177065
H28   H     H_    0.671051 0.718408 0.639872 0.176163
H29   H     H_    0.245892 0.896068 0.638174 0.176885
H30   H     H_    0.915736 0.214482 0.642918 0.153904
H31   H     H_    0.754260 0.895587 0.361740 0.176996
H32   H     H_    0.171040 0.218393 0.639843 0.175936
H33   H     H_    0.746765 0.396512 0.638269 0.143843
H34   H     H_    0.415523 0.715752 0.642642 0.114486
H35   H     H_    0.344291 0.400505 0.645061 0.118651
H36   H     H_    0.584569 0.715563 0.357289 0.114882
H37   H     H_    0.155730 0.900777 0.354858 0.117139
H38   H     H_    0.829221 0.219458 0.359986 0.140831
H39   H     H_    0.844262 0.900557 0.645040 0.117389
H40   H     H_    0.084588 0.215553 0.357265 0.114668
H41   H     H_    0.834946 0.361081 0.719116 0.188464
H42   H     H_    0.400860 0.791534 0.720793 0.180298
H43   H     H_    0.307745 0.360590 0.723847 0.175157
H44   H     H_    0.599352 0.791090 0.279070 0.180527
H45   H     H_    0.192270 0.860844 0.276033 0.173448
H46   H     H_    0.759739 0.290738 0.278430 0.186580
H47   H     H_    0.807683 0.860703 0.723822 0.173592
H48   H     H_    0.099324 0.291170 0.279076 0.180793
C113  C     C_R   0.380404 0.626509 0.120907 0.140856
C114  C     C_R   0.596027 0.302423 0.787755 0.143386
C115  C     C_R   0.619398 0.627102 0.878622 0.141435
C116  C     C_R   0.404000 0.302790 0.211806 0.134254
C117  C     C_R   0.880105 0.125796 0.120302 0.139660
C118  C     C_R   0.095990 0.802558 0.787871 0.136565
C119  C     C_R   0.119219 0.127580 0.878224 0.122411
C120  C     C_R   0.904064 0.802702 0.211953 0.136183
C121  C     C_R   0.385107 0.701965 0.029806 -0.177151
C122  C     C_R   0.580831 0.199614 0.813342 -0.172431
C123  C     C_R   0.614558 0.703362 0.968648 -0.174312
C124  C     C_R   0.418688 0.199423 0.187709 -0.170571
C125  C     C_R   0.884710 0.200391 0.028050 -0.174723
C126  C     C_R   0.081022 0.699542 0.812926 -0.174183
C127  C     C_R   0.114301 0.204217 0.967698 -0.154932
C128  C     C_R   0.918867 0.699418 0.187669 -0.176840
C129  C     C_R   0.410027 0.664968 0.103156 -0.161747
C130  C     C_R   0.561086 0.256408 0.775554 -0.137037
C131  C     C_R   0.589705 0.665939 0.895788 -0.161288
C132  C     C_R   0.438742 0.256142 0.225318 -0.131783
C133  C     C_R   0.909680 0.163801 0.101856 -0.168162
C134  C     C_R   0.061137 0.756294 0.775143 -0.142284
C135  C     C_R   0.089491 0.166677 0.894969 -0.142615
C136  C     C_R   0.938854 0.756146 0.225327 -0.141455
C137  C     C_R   0.326779 0.619043 0.058076 -0.163800
C138  C     C_R   0.649712 0.291474 0.840097 -0.160630
C139  C     C_R   0.673003 0.619701 0.941625 -0.158446
C140  C     C_R   0.350275 0.292669 0.158151 -0.149359
C141  C     C_R   0.826418 0.118361 0.057734 -0.168821
C142  C     C_R   0.149692 0.791962 0.840808 -0.152667
C143  C     C_R   0.172773 0.120113 0.941413 -0.163029
C144  C     C_R   0.850347 0.792462 0.158419 -0.153186
C145  C     C_R   0.300013 0.660608 0.989163 0.068086
C146  C     C_R   0.669079 0.233220 0.863595 0.081911
C147  C     C_R   0.699701 0.661583 0.010078 0.068204
C148  C     C_R   0.330411 0.234620 0.134818 0.090062
C149  C     C_R   0.799625 0.159599 0.988347 0.062213
C150  C     C_R   0.169279 0.733796 0.864286 0.090170
C151  C     C_R   0.199450 0.162084 0.009725 0.070812
C152  C     C_R   0.830567 0.734379 0.135026 0.090982
C153  C     C_R   0.330271 0.703551 0.977285 0.152440
C154  C     C_R   0.635035 0.187547 0.856932 0.152980
C155  C     C_R   0.669391 0.704915 0.021267 0.151955
C156  C     C_R   0.364319 0.188156 0.143065 0.151073
C157  C     C_R   0.829871 0.202102 0.975738 0.163203
C158  C     C_R   0.135302 0.687804 0.856990 0.153877
C159  C     C_R   0.169135 0.205613 0.020581 0.134770
C160  C     C_R   0.864520 0.688032 0.143097 0.157705
C161  C     C_R   0.244435 0.666394 0.940505 0.070658
C162  C     C_R   0.721839 0.220125 0.894750 0.056038
C163  C     C_R   0.755286 0.667216 0.058923 0.074151
C164  C     C_R   0.277399 0.222405 0.102788 0.055537
C165  C     C_R   0.744057 0.165566 0.939873 0.067822
C166  C     C_R   0.222144 0.721061 0.895807 0.054689
C167  C     C_R   0.255044 0.167589 0.058726 0.072823
C168  C     C_R   0.777591 0.722019 0.103094 0.054205
C169  C     C_R   0.752448 0.259547 0.879597 -0.155720
C170  C     C_R   0.210574 0.621482 0.937819 -0.117936
C171  C     C_R   0.246665 0.262933 0.116170 -0.143839
C172  C     C_R   0.789147 0.621944 0.062373 -0.120062
C173  C     C_R   0.252790 0.760945 0.881379 -0.145144
C174  C     C_R   0.710149 0.120985 0.937803 -0.127171
C175  C     C_R   0.746855 0.762379 0.116711 -0.144957
C176  C     C_R   0.288871 0.122179 0.062397 -0.120092
C177  C     C_R   0.805312 0.249112 0.916586 -0.193160
C178  C     C_R   0.156370 0.631458 0.893541 -0.170780
C179  C     C_R   0.193665 0.253200 0.078518 -0.171098
C180  C     C_R   0.843383 0.631655 0.106938 -0.178633
C181  C     C_R   0.305713 0.750821 0.918674 -0.181398
C182  C     C_R   0.655982 0.131214 0.893759 -0.178895
C183  C     C_R   0.693899 0.752477 0.079266 -0.179148
C184  C     C_R   0.343121 0.131779 0.107022 -0.169068
H49   H     H_    0.827784 0.281024 0.904902 0.166849
H50   H     H_    0.131157 0.595536 0.889673 0.152133
H51   H     H_    0.171130 0.285983 0.088738 0.195441
H52   H     H_    0.868587 0.595464 0.111433 0.146826
H53   H     H_    0.328203 0.783127 0.907663 0.194072
H54   H     H_    0.630721 0.095532 0.890387 0.152255
H55   H     H_    0.671359 0.785125 0.089690 0.194338
H56   H     H_    0.368290 0.095496 0.111661 0.151129
H57   H     H_    0.676558 0.328796 0.860461 0.154815
H58   H     H_    0.305920 0.584958 0.069004 0.158857
H59   H     H_    0.323851 0.330497 0.137310 0.154483
H60   H     H_    0.693900 0.585391 0.931101 0.157312
H61   H     H_    0.176347 0.829499 0.861354 0.154957
H62   H     H_    0.805540 0.084578 0.069120 0.162302
H63   H     H_    0.823855 0.830218 0.137624 0.154108
H64   H     H_    0.193659 0.085664 0.931099 0.158679
H65   H     H_    0.519062 0.263956 0.736100 0.133197
H66   H     H_    0.452008 0.669900 0.149258 0.126390
H67   H     H_    0.480819 0.263112 0.265860 0.139469
H68   H     H_    0.547732 0.670835 0.849529 0.125656
H69   H     H_    0.019087 0.763604 0.735206 0.132812
H70   H     H_    0.951687 0.168706 0.147703 0.127640
H71   H     H_    0.980923 0.763197 0.265774 0.133614
H72   H     H_    0.047542 0.171650 0.848493 0.152547
H73   H     H_    0.408384 0.733798 0.019909 0.152775
H74   H     H_    0.553781 0.164715 0.805550 0.143465
H75   H     H_    0.591239 0.735491 0.978044 0.152427
H76   H     H_    0.445599 0.163941 0.196686 0.144838
H77   H     H_    0.907977 0.231874 0.017600 0.155826
H78   H     H_    0.054036 0.664410 0.804658 0.141855
H79   H     H_    0.090972 0.236524 0.976793 0.170168
H80   H     H_    0.945817 0.664020 0.196527 0.141634
H81   H     H_    0.736070 0.298598 0.838323 0.216831
H82   H     H_    0.224831 0.577512 0.966141 0.148011
H83   H     H_    0.263007 0.302337 0.156575 0.218976
H84   H     H_    0.774857 0.577895 0.034489 0.144444
H85   H     H_    0.236418 0.800140 0.840449 0.219613
H86   H     H_    0.724340 0.077078 0.966461 0.149681
H87   H     H_    0.763171 0.801768 0.157168 0.219517
H88   H     H_    0.274542 0.078115 0.034619 0.146657
N33   N     N_R   0.328713 0.580058 0.223849 0.205454
O1    O     O_R   0.298877 0.627038 0.187832 -0.376849
O2    O     O_R   0.311316 0.535101 0.246546 -0.371937
N34   N     N_R   0.654843 0.374768 0.721646 0.188744
O3    O     O_R   0.697331 0.405090 0.774922 -0.421718
O4    O     O_R   0.657744 0.324815 0.687229 -0.444961
N35   N     N_R   0.671265 0.579956 0.776205 0.204325
O5    O     O_R   0.701147 0.626879 0.812147 -0.381385
O6    O     O_R   0.688663 0.534810 0.753776 -0.385918
N36   N     N_R   0.344886 0.375149 0.277383 0.188587
O7    O     O_R   0.302783 0.406263 0.224654 -0.400731
O8    O     O_R   0.341317 0.324932 0.310494 -0.445484
N37   N     N_R   0.828687 0.079985 0.224016 0.205361
O9    O     O_R   0.798893 0.127012 0.188105 -0.425251
O10   O     O_R   0.811353 0.035153 0.247048 -0.375314
N38   N     N_R   0.154942 0.874874 0.721967 0.188460
O11   O     O_R   0.197272 0.905518 0.774980 -0.401702
O12   O     O_R   0.158110 0.824824 0.688037 -0.445602
N39   N     N_R   0.171247 0.080141 0.776196 0.205312
O13   O     O_R   0.201102 0.127074 0.812210 -0.374456
O14   O     O_R   0.188704 0.035021 0.753830 -0.372902
N40   N     N_R   0.844926 0.875094 0.277486 0.188665
O15   O     O_R   0.802781 0.906123 0.224678 -0.402396
O16   O     O_R   0.841425 0.824913 0.310748 -0.445043
N41   N     N_R   0.250894 0.785975 0.253644 0.236224
O17   O     O_R   0.240250 0.825105 0.192746 -0.377862
O18   O     O_R   0.239863 0.729698 0.231783 -0.344352
N42   N     N_R   0.681634 0.358788 0.251778 0.235157
O19   O     O_R   0.688012 0.379953 0.191414 -0.377580
O20   O     O_R   0.635367 0.339691 0.228805 -0.395950
N43   N     N_R   0.749012 0.786010 0.746224 0.236227
O21   O     O_R   0.759524 0.825247 0.806941 -0.377598
O22   O     O_R   0.760085 0.729760 0.768298 -0.350131
N44   N     N_R   0.156479 0.370145 0.257091 0.241566
O23   O     O_R   0.130801 0.337325 0.186337 -0.398562
O24   O     O_R   0.164191 0.426670 0.249346 -0.355111
N45   N     N_R   0.914284 0.293808 0.745318 0.235424
O25   O     O_R   0.912207 0.289713 0.814895 -0.398593
O26   O     O_R   0.959993 0.293302 0.755126 -0.399585
N46   N     N_R   0.343727 0.870661 0.742764 0.241822
O27   O     O_R   0.369521 0.837927 0.813607 -0.403102
O28   O     O_R   0.335927 0.927192 0.750378 -0.353985
N47   N     N_R   0.249109 0.285826 0.746228 0.237265
O29   O     O_R   0.259716 0.324991 0.807072 -0.373421
O30   O     O_R   0.260142 0.229547 0.768147 -0.342363
N48   N     N_R   0.656577 0.869903 0.257053 0.241779
O31   O     O_R   0.631097 0.836912 0.186450 -0.403433
O32   O     O_R   0.664156 0.926436 0.249089 -0.356936

loop_
_geom_bond_atom_site_label_1
_geom_bond_atom_site_label_2
_geom_bond_distance
_ccdc_geom_bond_type
N36   O8    1.301443 A    
C127  C159  1.396639 A    
N14   Ni8   1.843507 S    
C49   H25   1.077502 S    
C84   C87   1.401421 A    
C107  N43   1.435101 S    
C139  H60   1.075183 S    
C146  C162  1.409191 A    
C31   N31   1.347573 A    
N41   O17   1.301004 A    
C69   H37   1.082001 S    
C113  C137  1.396833 A    
C179  H51   1.084124 S    
C72   H40   1.081608 S    
C173  H85   1.074786 S    
C174  H86   1.079585 S    
C41   C60   1.472266 S    
C65   H33   1.080498 S    
N22   Ni3   1.862226 S    
C131  H68   1.082794 S    
C45   C64   1.472234 S    
C110  N46   1.439144 S    
C14   H14   1.075126 S    
C26   C36   1.397836 A    
C2    C34   1.389224 A    
C47   C62   1.473028 S    
C126  C134  1.405857 A    
C172  H84   1.079518 S    
C166  C173  1.412083 A    
C30   C40   1.397853 A    
C24   N24   1.341710 A    
C32   N40   1.423302 S    
C16   C48   1.376961 A    
C142  C150  1.390546 A    
C3    N3    1.333560 A    
N11   Ni6   1.842937 S    
C121  H73   1.084194 S    
C4    H4    1.080223 S    
C83   C91   1.413361 A    
C5    H5    1.081505 S    
C109  N45   1.439127 S    
C162  C165  1.412402 A    
C183  H55   1.084121 S    
C21   N21   1.339746 A    
C8    H8    1.080223 S    
C68   H36   1.081605 S    
C25   N25   1.347653 A    
C34   C116  1.472305 S    
C54   H30   1.077983 S    
C101  C105  1.398315 A    
C51   C59   1.405518 A    
N13   N21   1.382963 A    
C38   C120  1.472601 S    
N42   O19   1.301013 A    
C122  C154  1.409714 A    
C9    N9    1.337297 A    
C171  H83   1.074567 S    
N19   Ni1   1.861337 S    
C103  C107  1.398364 A    
C124  C132  1.405605 A    
C11   H11   1.068108 S    
C53   C93   1.395772 A    
C12   N12   1.335370 A    
C13   N13   1.337280 A    
N34   O3    1.300872 A    
C35   C113  1.467250 S    
C128  C136  1.405662 A    
C163  C172  1.417134 A    
N47   O29   1.300994 A    
C22   N22   1.341772 A    
C11   C43   1.386078 A    
N46   O27   1.301450 A    
C14   C46   1.377010 A    
C149  C157  1.423158 A    
C74   C98   1.397986 A    
N8    Ni3   1.861243 S    
C137  H58   1.075103 S    
C147  C155  1.423159 A    
C120  C144  1.388173 A    
C150  C166  1.409033 A    
C52   H28   1.076566 S    
C151  C167  1.420694 A    
C143  H64   1.075254 S    
C54   C94   1.399076 A    
C144  H63   1.078941 S    
C141  C149  1.402649 A    
C66   C74   1.390900 A    
C129  H66   1.082780 S    
C53   C61   1.405519 A    
C73   C81   1.407203 A    
C156  C184  1.398703 A    
C157  C177  1.387805 A    
N42   O20   1.301181 A    
C28   N36   1.423300 S    
N13   Ni7   1.843507 S    
C128  C160  1.409600 A    
C26   N34   1.423100 S    
C121  C129  1.385173 A    
C137  C145  1.402390 A    
C32   N32   1.334642 A    
C73   C97   1.399616 A    
C182  H54   1.083498 S    
C163  C168  1.412495 A    
N14   N22   1.382962 A    
C3    H3    1.081484 S    
C17   C41   1.389974 A    
C4    N4    1.348185 A    
N3    Ni2   1.861240 S    
C112  N48   1.438999 S    
C65   C73   1.387673 A    
N25   Ni6   1.843545 S    
C62   C70   1.403156 A    
C55   C95   1.395695 A    
C56   C96   1.399150 A    
C50   C90   1.399120 A    
C23   N23   1.338892 A    
C67   H35   1.082007 S    
N35   O6    1.300202 A    
C119  C135  1.402639 A    
N45   O25   1.301518 A    
N4    N26   1.385710 A    
C117  C141  1.397285 A    
C175  H87   1.074626 S    
C161  C170  1.417203 A    
N29   Ni8   1.843545 S    
C99   C111  1.398328 A    
C30   N38   1.423265 S    
C151  C159  1.423247 A    
C176  H88   1.079515 S    
N33   O2    1.300146 A    
C78   C102  1.399266 A    
C17   H17   1.075884 S    
C60   C68   1.399072 A    
N37   O10   1.300158 A    
C70   H38   1.081030 S    
C20   H20   1.080032 S    
C21   H21   1.075978 S    
N24   Ni4   1.861338 S    
C50   H26   1.076524 S    
C23   H23   1.075302 S    
C89   C106  1.416140 A    
C24   H24   1.080117 S    
C172  C180  1.400442 A    
C173  C181  1.380780 A    
C81   C86   1.401562 A    
C93   C110  1.416097 A    
C159  C179  1.387357 A    
C175  C183  1.380721 A    
C29   N29   1.347616 A    
C184  H56   1.083517 S    
N9    Ni5   1.843507 S    
C148  C164  1.409162 A    
N40   O16   1.301462 A    
C152  C168  1.409174 A    
C52   C92   1.399222 A    
C97   H41   1.084225 S    
N26   Ni5   1.843545 S    
C111  N47   1.435142 S    
C18   C42   1.383742 A    
C121  C153  1.396532 A    
N40   O15   1.300805 A    
C19   N19   1.339861 A    
C6    C38   1.389402 A    
C20   C44   1.382911 A    
C87   C95   1.413371 A    
C125  C157  1.396577 A    
N2    Ni2   1.862112 S    
C6    H6    1.080215 S    
N39   O14   1.300194 A    
N44   O24   1.301474 A    
C180  H52   1.083533 S    
C181  H53   1.084101 S    
C55   H31   1.076975 S    
N48   O32   1.301503 A    
C56   H32   1.076559 S    
C79   C103  1.398679 A    
C146  C154  1.408615 A    
C164  C167  1.412410 A    
C140  H59   1.078986 S    
C177  H49   1.084475 S    
N47   O30   1.301202 A    
C141  H62   1.075016 S    
C102  C106  1.398308 A    
C95   C112  1.416055 A    
N43   O22   1.301178 A    
C96   C111  1.416823 A    
N18   Ni1   1.862226 S    
C170  C178  1.400663 A    
C36   C114  1.474099 S    
C10   N10   1.334330 A    
C9    C41   1.386177 A    
C127  H79   1.084225 S    
C79   C87   1.410406 A    
C14   N14   1.334329 A    
N38   O11   1.300849 A    
C125  H77   1.084198 S    
C139  C147  1.402360 A    
C100  H44   1.084185 S    
C76   C100  1.397931 A    
C123  C131  1.385104 A    
C1    N1    1.333514 A    
C138  C146  1.390650 A    
C114  C130  1.403839 A    
C75   C99   1.398674 A    
N30   Ni7   1.843545 S    
N10   Ni6   1.843507 S    
N2    N28   1.385714 A    
C80   C88   1.410582 A    
C118  C134  1.403711 A    
C7    N7    1.333896 A    
C142  H61   1.078787 S    
C7    H7    1.081478 S    
C8    N8    1.347902 A    
C153  C181  1.387501 A    
C67   C75   1.394769 A    
C27   C33   1.400042 A    
C49   C57   1.402386 A    
N11   N19   1.382962 A    
C103  H47   1.084401 S    
C4    C36   1.390147 A    
N3    N25   1.385712 A    
C169  H81   1.074942 S    
C9    H9    1.068241 S    
C37   C119  1.466298 S    
N23   Ni3   1.861337 S    
C28   N28   1.334535 A    
C88   C96   1.415037 A    
C145  C161  1.420896 A    
C114  C138  1.388800 A    
C116  C132  1.403498 A    
C149  C165  1.421088 A    
C63   C71   1.400619 A    
C64   C72   1.399074 A    
N31   Ni7   1.843005 S    
C6    N6    1.347823 A    
C3    C35   1.373623 A    
C44   C57   1.472578 S    
C125  C133  1.385347 A    
C91   C108  1.416105 A    
C48   C61   1.472885 S    
C21   C45   1.389951 A    
N46   O28   1.301472 A    
N6    N32   1.385714 A    
C162  C169  1.412053 A    
N12   Ni5   1.842940 S    
N36   O7    1.300800 A    
C161  C166  1.412394 A    
C176  C184  1.400360 A    
C15   N15   1.338737 A    
C16   N16   1.334445 A    
C26   N26   1.334865 A    
N41   O18   1.301194 A    
C18   H18   1.080123 S    
C123  C155  1.396513 A    
C1    H1    1.081482 S    
C24   C48   1.383588 A    
C22   H22   1.080121 S    
C90   C105  1.416837 A    
C123  H75   1.084207 S    
C5    N5    1.333459 A    
N39   O13   1.301315 A    
C122  H74   1.083269 S    
C101  H45   1.084396 S    
C174  C182  1.400888 A    
C82   C85   1.401376 A    
C97   C109  1.397888 A    
C94   C109  1.414681 A    
C5    C37   1.372948 A    
C99   H43   1.084398 S    
C135  H72   1.082917 S    
C150  C158  1.408778 A    
C136  H71   1.082656 S    
C169  C177  1.381136 A    
C71   H39   1.082005 S    
C43   C58   1.472276 S    
C98   C110  1.397859 A    
C132  H67   1.082661 S    
C133  H70   1.082733 S    
C120  C136  1.403557 A    
N16   N24   1.382963 A    
C32   C38   1.397692 A    
C106  N42   1.434994 S    
N4    Ni1   1.861243 S    
C86   C94   1.416617 A    
C59   C67   1.400608 A    
C77   C101  1.398654 A    
C22   C46   1.383737 A    
C57   C65   1.402717 A    
C124  H76   1.083281 S    
C128  H80   1.083294 S    
C56   C64   1.405013 A    
C68   C76   1.390819 A    
C69   C77   1.394721 A    
C105  N41   1.435142 S    
C78   C86   1.407430 A    
C138  H57   1.078604 S    
C72   C80   1.390876 A    
C27   N27   1.347523 A    
N33   O1    1.301337 A    
C178  H50   1.083502 S    
N6    Ni4   1.862112 S    
N7    Ni4   1.861240 S    
C134  H69   1.082631 S    
C100  C112  1.397739 A    
C31   N39   1.431133 S    
N37   O9    1.301401 A    
C155  C183  1.387384 A    
C171  C179  1.380746 A    
C130  H65   1.082616 S    
N35   O5    1.301327 A    
N32   Ni8   1.843008 S    
C11   N11   1.337305 A    
C104  C108  1.397813 A    
C108  N44   1.439126 S    
C167  C176  1.417188 A    
C12   H12   1.075116 S    
C168  C175  1.412157 A    
C13   H13   1.068186 S    
C152  C160  1.408993 A    
C84   C92   1.415045 A    
C85   C93   1.413357 A    
C164  C171  1.412203 A    
C28   C34   1.397577 A    
C126  H78   1.083272 S    
C165  C174  1.417171 A    
C39   C117  1.468113 S    
N43   O21   1.301052 A    
N5    N31   1.385712 A    
C118  C142  1.388308 A    
C8    C40   1.389633 A    
C147  C163  1.420776 A    
C119  C143  1.396293 A    
C76   C84   1.410572 A    
C102  H46   1.084474 S    
C77   C85   1.410392 A    
C75   C83   1.410414 A    
C17   N17   1.339779 A    
C80   C104  1.397966 A    
C154  C182  1.399089 A    
C74   C82   1.410576 A    
C31   C37   1.399992 A    
C53   H29   1.076961 S    
C70   C78   1.391539 A    
N15   Ni8   1.842937 S    
C23   C47   1.388721 A    
C143  C151  1.402162 A    
C115  C139  1.396614 A    
C170  H82   1.079543 S    
C10   H10   1.075108 S    
C52   C60   1.405051 A    
C82   C90   1.415031 A    
N27   Ni5   1.843005 S    
C116  C140  1.388050 A    
C20   N20   1.340939 A    
C81   C89   1.418049 A    
C12   C44   1.377591 A    
N45   O26   1.301535 A    
N20   Ni2   1.861338 S    
N21   Ni4   1.862224 S    
C19   C43   1.389855 A    
C42   C59   1.472897 S    
C13   C45   1.386222 A    
C25   C35   1.400050 A    
N38   O12   1.301452 A    
C46   C63   1.472902 S    
N9    N17   1.382963 A    
C29   C39   1.400044 A    
N28   Ni6   1.843008 S    
N1    N27   1.385712 A    
C15   C47   1.387058 A    
C25   N33   1.431112 S    
N1    Ni1   1.862112 S    
C40   C118  1.473176 S    
N15   N23   1.382962 A    
C98   H42   1.084165 S    
C126  C158  1.409653 A    
C18   N18   1.341738 A    
N5    Ni3   1.862112 S    
C10   C42   1.377039 A    
C145  C153  1.423184 A    
C33   C115  1.466862 S    
N34   O4    1.301478 A    
N12   N20   1.382963 A    
C19   H19   1.075826 S    
C2    H2    1.080141 S    
N17   Ni2   1.862224 S    
N10   N18   1.382962 A    
C61   C69   1.400607 A    
C1    C33   1.373478 A    
C51   C91   1.395740 A    
C29   N37   1.431168 S    
C49   C89   1.402625 A    
C2    N2    1.347845 A    
C127  C135  1.385093 A    
C27   N35   1.431096 S    
C66   H34   1.081607 S    
C160  C180  1.398772 A    
C7    C39   1.374243 A    
C92   C107  1.416832 A    
C122  C130  1.406029 A    
C115  C131  1.402601 A    
C148  C156  1.409054 A    
C83   C88   1.401407 A    
C113  C129  1.402647 A    
C124  C156  1.409598 A    
C158  C178  1.398914 A    
C30   N30   1.334722 A    
N44   O23   1.301451 A    
N8    N30   1.385710 A    
C117  C133  1.402770 A    
C71   C79   1.394797 A    
C15   H15   1.068246 S    
C16   H16   1.075179 S    
N48   O31   1.301425 A    
C104  H48   1.084174 S    
C140  C148  1.390618 A    
C50   C58   1.405020 A    
N16   Ni7   1.842940 S    
N7    N29   1.385712 A    
C144  C152  1.390688 A    
C54   C62   1.402228 A    
C58   C66   1.399101 A    
C51   H27   1.076951 S    
C55   C63   1.405499 A    
