data_mof_unit_50803.cif
_audit_creation_date              2012-12-10T18:20:33-0500
_audit_creation_method            fapswitch 2.2
_symmetry_space_group_name_H-M    P1
_symmetry_Int_Tables_number       1
_space_group_crystal_system       triclinic
_cell_length_a                    14.095327
_cell_length_b                    13.577028
_cell_length_c                    14.87147
_cell_angle_alpha                 88.699489
_cell_angle_beta                  91.230515
_cell_angle_gamma                 81.134854
_cell_volume                      2810.37092677

loop_
_atom_site_label
_atom_site_type_symbol
_atom_type_description
_atom_site_fract_x
_atom_site_fract_y
_atom_site_fract_z
_atom_type_partial_charge
C1    C     C_R   0.499253 0.498886 0.327046 0.890047
C2    C     C_R   0.500637 0.501950 0.673119 0.884344
C3    C     C_R   0.479722 0.509274 0.952798 0.012452
C4    C     C_R   0.478437 0.505387 0.046568 0.009051
C5    C     C_R   0.465002 0.424182 0.905604 0.103522
C6    C     C_R   0.485829 0.592683 0.093606 0.105690
C7    C     C_R   0.485943 0.688502 0.953908 0.089170
C8    C     C_R   0.440247 0.335312 0.044258 0.092904
C9    C     C_R   0.484413 0.683645 0.047784 -0.239668
C10   C     C_R   0.440625 0.340752 0.950450 -0.242218
C11   C     C_R   0.809273 0.443654 0.563797 0.488105
C12   C     C_R   0.190667 0.556617 0.436412 0.490090
C13   C     C_R   0.788415 0.556356 0.437321 -0.155474
C14   C     C_R   0.211489 0.444264 0.563163 -0.132153
C15   C     C_R   0.888439 0.557816 0.436034 0.027986
C16   C     C_R   0.111358 0.443418 0.564924 0.024997
C17   C     C_R   0.949387 0.500930 0.500752 0.026684
C18   C     C_R   0.050384 0.500397 0.500265 0.023170
C19   C     C_R   0.909577 0.444122 0.565714 0.003570
C20   C     C_R   0.090217 0.556995 0.435132 0.003366
C21   C     C_R   0.928857 0.614566 0.371478 -0.230354
C22   C     C_R   0.070864 0.387108 0.629803 -0.228591
C23   C     C_R   0.518481 0.313895 0.500245 0.897132
C24   C     C_R   0.481525 0.686053 0.500505 0.890648
C25   C     C_R   0.028446 0.614193 0.370931 -0.141646
C26   C     C_R   0.971270 0.387408 0.630269 -0.150325
C27   C     C_1   0.465780 0.790369 0.503787 -0.208883
C28   C     C_1   0.533956 0.209643 0.495684 -0.215587
C29   C     C_2   0.458056 0.982894 0.507681 0.082961
C30   C     C_2   0.539517 0.017831 0.485203 0.091602
C31   C     C_1   0.541338 0.121684 0.490609 -0.045169
C32   C     C_1   0.457673 0.878559 0.506339 -0.042193
C33   C     C_R   0.469567 0.425464 0.813311 -0.280733
C34   C     C_R   0.489048 0.589034 0.186293 -0.278711
C35   C     C_R   0.500627 0.505120 0.769036 -0.069036
C36   C     C_R   0.496192 0.497707 0.231388 -0.058951
C37   C     C_R   0.521706 0.589445 0.814740 0.012525
C38   C     C_R   0.494945 0.407820 0.186355 0.024836
C39   C     C_R   0.496596 0.597668 0.906281 0.055311
C40   C     C_R   0.471211 0.414069 0.093302 0.057061
H1    H     H_    0.453188 0.362271 0.775617 0.140210
H2    H     H_    0.489957 0.656645 0.223776 0.133028
H3    H     H_    0.478656 0.751729 0.085399 0.143349
H4    H     H_    0.419126 0.280638 0.911901 0.143547
H5    H     H_    0.741002 0.600058 0.388071 0.157034
H6    H     H_    0.258890 0.400757 0.612525 0.153728
H7    H     H_    0.883489 0.659218 0.321251 0.142427
H8    H     H_    0.116192 0.342645 0.680187 0.146222
H9    H     H_    0.056752 0.659078 0.319949 0.192686
H10   H     H_    0.942922 0.342667 0.681338 0.192544
N1    N     N_R   0.750030 0.500040 0.500070 -0.150229
N2    N     N_R   0.249970 0.499960 0.499930 -0.151779
O1    O     O_R   0.580280 0.500020 0.367860 -0.628565
O2    O     O_R   0.419720 0.499980 0.632140 -0.617812
O3    O     O_R   0.419730 0.500030 0.367840 -0.612245
O4    O     O_R   0.580270 0.499970 0.632160 -0.622783
O5    O     O_R   0.591830 0.359650 0.500030 -0.632243
O6    O     O_R   0.408170 0.640350 0.499970 -0.633371
O7    O     O_R   0.431280 0.359660 0.500010 -0.609407
O8    O     O_R   0.568720 0.640340 0.499990 -0.614669
Zn1   Zn    Zn3+2 0.607200 0.499990 0.500020 0.925200
Zn2   Zn    Zn3+2 0.392800 0.500010 0.499980 0.943139
C41   C     C_3   0.630076 0.952014 0.456002 -0.410842
C42   C     C_3   0.690634 0.905856 0.537699 -0.335276
C43   C     C_3   0.779396 0.836056 0.508452 -0.867375
H11   H     H_    0.757744 0.773716 0.469881 0.264567
H12   H     H_    0.824796 0.877249 0.465936 0.262477
H13   H     H_    0.822431 0.804492 0.568662 0.254736
H14   H     H_    0.713760 0.966083 0.578329 0.224734
H15   H     H_    0.647420 0.862775 0.580908 0.228274
H16   H     H_    0.611473 0.892453 0.411835 0.201415
H17   H     H_    0.673606 0.997110 0.414963 0.201700
C44   C     C_3   0.368736 0.048220 0.540132 -0.399600
C45   C     C_3   0.377222 0.065465 0.641367 -0.333597
C46   C     C_3   0.290789 0.136474 0.673589 -0.894694
H18   H     H_    0.285852 0.210154 0.638347 0.260254
H19   H     H_    0.223530 0.105358 0.660623 0.266697
H20   H     H_    0.298835 0.147118 0.747030 0.243202
H21   H     H_    0.381924 0.993040 0.678868 0.222565
H22   H     H_    0.443406 0.097709 0.656768 0.226291
H23   H     H_    0.356229 0.120679 0.502094 0.210409
H24   H     H_    0.304678 0.011624 0.526518 0.203123
C47   C     C_3   0.585025 0.656715 0.769423 -0.443219
C48   C     C_3   0.690659 0.606672 0.771158 -0.283487
C49   C     C_3   0.750313 0.661351 0.708163 -0.864536
H25   H     H_    0.722931 0.659684 0.637698 0.283396
H26   H     H_    0.747286 0.740102 0.728122 0.249904
H27   H     H_    0.826302 0.624316 0.711503 0.250051
H28   H     H_    0.720679 0.607230 0.840875 0.206336
H29   H     H_    0.697621 0.527631 0.751504 0.270359
H30   H     H_    0.558225 0.676402 0.699527 0.205038
H31   H     H_    0.585072 0.727950 0.802344 0.214415
C50   C     C_3   0.540216 0.310478 0.234020 -0.450187
C51   C     C_3   0.650174 0.302324 0.238586 -0.324848
C52   C     C_3   0.696637 0.206698 0.288068 -0.879293
H32   H     H_    0.673948 0.206953 0.359026 0.274687
H33   H     H_    0.676247 0.140318 0.254755 0.253690
H34   H     H_    0.775997 0.201604 0.287511 0.251137
H35   H     H_    0.677730 0.302376 0.169073 0.220807
H36   H     H_    0.672332 0.366788 0.273396 0.247503
H37   H     H_    0.511224 0.305500 0.302525 0.198522
H38   H     H_    0.525313 0.243973 0.199546 0.226386
C53   C     C_3   0.454284 0.790511 0.909466 -0.422176
C54   C     C_3   0.526071 0.862956 0.927689 -0.340441
C55   C     C_3   0.506101 0.954882 0.865168 -0.913661
H39   H     H_    0.517648 0.933108 0.794214 0.255143
H40   H     H_    0.431052 0.992850 0.872070 0.264589
H41   H     H_    0.555759 0.007918 0.882772 0.251312
H42   H     H_    0.520225 0.887620 0.998319 0.214908
H43   H     H_    0.601140 0.825962 0.918989 0.221306
H44   H     H_    0.438848 0.784947 0.836428 0.202025
H45   H     H_    0.384022 0.822786 0.937407 0.201459
C56   C     C_3   0.387982 0.256446 0.086031 -0.421047
C57   C     C_3   0.439530 0.149888 0.070356 -0.356530
C58   C     C_3   0.401219 0.073951 0.131372 -0.882230
H46   H     H_    0.414914 0.089438 0.203142 0.259578
H47   H     H_    0.322823 0.076815 0.119055 0.266190
H48   H     H_    0.438060 0.997781 0.117268 0.243126
H49   H     H_    0.428071 0.130161 0.999267 0.221683
H50   H     H_    0.518227 0.144278 0.082553 0.223004
H51   H     H_    0.374907 0.269477 0.158418 0.208305
H52   H     H_    0.314887 0.264269 0.054383 0.199525
O9    O     O_3   0.773360 0.385001 0.627288 -0.810647
H53   H     H_    0.709501 0.374014 0.606615 0.383229
O10   O     O_3   0.226696 0.614637 0.372459 -0.794141
H54   H     H_    0.290473 0.625937 0.393162 0.382230

loop_
_geom_bond_atom_site_label_1
_geom_bond_atom_site_label_2
_ccdc_geom_bond_type
C2    C35   S    
O6    Zn2   S    
C22   H8    S    
C50   C51   S    
C44   C45   S    
C52   H32   S    
N1    Zn1   S    
C24   C27   S    
C6    C9    A    
C57   C58   S    
C52   H34   S    
O9    H53   S    
C14   H6    S    
C49   H25   S    
C23   O7    A    
C47   H31   S    
C55   H40   S    
C11   C19   A    
O8    Zn1   S    
C35   C37   A    
C29   C32   S    
C26   H10   S    
C54   H42   S    
C7    C53   S    
C29   C44   S    
C20   C25   A    
C58   H46   S    
O3    Zn2   S    
C53   H44   S    
C19   C26   A    
C1    O1    A    
C33   C35   A    
C13   N1    A    
O1    Zn1   S    
C14   N2    A    
C56   H52   S    
C4    C40   A    
C34   H2    S    
C43   H12   S    
C5    C33   A    
C42   H15   S    
C18   C20   A    
C57   H49   S    
C43   H13   S    
C3    C39   A    
C38   C40   A    
C45   H22   S    
C30   C41   S    
C48   H29   S    
C44   H23   S    
C54   C55   S    
C12   N2    A    
C49   H26   S    
C55   H41   S    
C9    H3    S    
C45   C46   S    
C10   H4    S    
C48   C49   S    
C4    C6    A    
C2    O2    A    
C50   H37   S    
C12   O10   S    
O2    Zn2   S    
C58   H47   S    
C42   H14   S    
C6    C34   A    
C53   H45   S    
C46   H18   S    
C29   C30   D    
C47   C48   S    
C51   H36   S    
C24   O8    A    
C58   H48   S    
C12   C20   A    
C17   C18   A    
C16   C18   A    
C23   C28   S    
C46   H19   S    
C8    C56   S    
C8    C10   A    
C41   H16   S    
C45   H21   S    
C13   C15   A    
O10   H54   S    
C14   C16   A    
C48   H28   S    
C3    C4    A    
C44   H24   S    
C13   H5    S    
C56   C57   S    
C49   H27   S    
C23   O5    A    
C21   C25   A    
O7    Zn2   S    
C16   C22   A    
C27   C32   T    
C28   C31   T    
C11   O9    S    
C3    C5    A    
C50   H38   S    
C52   H33   S    
O5    Zn1   S    
C47   H30   S    
C55   H39   S    
C33   H1    S    
C42   C43   S    
C36   C38   A    
C1    O3    A    
C5    C10   A    
C37   C39   A    
C2    O4    A    
C54   H43   S    
C30   C31   S    
C51   H35   S    
C38   C50   S    
C17   C19   A    
C34   C36   A    
C51   C52   S    
C46   H20   S    
C25   H9    S    
C11   N1    A    
C41   C42   S    
C7    C9    A    
C15   C21   A    
C56   H51   S    
C41   H17   S    
C24   O6    A    
C43   H11   S    
C22   C26   A    
C53   C54   S    
C7    C39   A    
O4    Zn1   S    
C37   C47   S    
N2    Zn2   S    
C8    C40   A    
C15   C17   A    
C57   H50   S    
C1    C36   S    
C21   H7    S    
