data_mof_unit_28133.cif
_audit_creation_date              2012-12-11T15:50:28-0500
_audit_creation_method            fapswitch 2.2
_symmetry_space_group_name_H-M    P1
_symmetry_Int_Tables_number       1
_space_group_crystal_system       triclinic
_cell_length_a                    18.989922
_cell_length_b                    11.003383
_cell_length_c                    18.727646
_cell_angle_alpha                 90.096221
_cell_angle_beta                  91.006183
_cell_angle_gamma                 89.700026
_cell_volume                      3912.54307516

loop_
_atom_site_label
_atom_site_type_symbol
_atom_type_description
_atom_site_fract_x
_atom_site_fract_y
_atom_site_fract_z
_atom_type_partial_charge
C1    C     C_R   0.272599 0.042903 0.853469 0.542207
C2    C     C_R   0.727805 0.042887 0.146559 0.546479
C3    C     C_R   0.772599 0.542903 0.853468 0.542208
C4    C     C_R   0.227805 0.542886 0.146559 0.546479
C5    C     C_3   0.467831 0.709453 0.985975 -0.077673
C6    C     C_3   0.427281 0.773043 0.046558 -0.134375
C7    C     C_3   0.967831 0.209452 0.985975 -0.077673
C8    C     C_3   0.927282 0.273044 0.046558 -0.134375
C9    C     C_R   0.247175 0.588005 0.076321 -0.003263
C10   C     C_R   0.755445 0.587912 0.924295 -0.000682
C11   C     C_R   0.747176 0.088006 0.076322 -0.003264
C12   C     C_R   0.255445 0.087911 0.924295 -0.000682
C13   C     C_R   0.307013 0.547941 0.040215 0.035906
C14   C     C_R   0.692630 0.561057 0.958256 0.044261
C15   C     C_R   0.807014 0.047942 0.040215 0.035907
C16   C     C_R   0.192630 0.061055 0.958257 0.044261
C17   C     C_R   0.310906 0.557658 0.966116 -0.013029
C18   C     C_R   0.687884 0.569786 0.032162 -0.027559
C19   C     C_R   0.810906 0.057658 0.966116 -0.013029
C20   C     C_R   0.187884 0.069784 0.032163 -0.027558
C21   C     C_R   0.194978 0.646198 0.962895 -0.188545
C22   C     C_R   0.808564 0.632459 0.039726 -0.186493
C23   C     C_R   0.694978 0.146200 0.962896 -0.188546
C24   C     C_R   0.308564 0.132458 0.039727 -0.186493
C25   C     C_R   0.194391 0.647721 0.036544 -0.179944
C26   C     C_R   0.811235 0.634948 0.966070 -0.188887
C27   C     C_R   0.694392 0.147723 0.036545 -0.179945
C28   C     C_R   0.311235 0.134947 0.966070 -0.188888
C29   C     C_3   0.340188 0.425805 0.040677 0.030458
C30   C     C_3   0.650920 0.447693 0.955739 0.032149
C31   C     C_3   0.840188 0.925805 0.040677 0.030458
C32   C     C_3   0.150921 0.947691 0.955739 0.032149
C33   C     C_3   0.344347 0.435299 0.960134 -0.248495
C34   C     C_3   0.643112 0.459506 0.035985 -0.237600
C35   C     C_3   0.844347 0.935300 0.960134 -0.248496
C36   C     C_3   0.143113 0.959503 0.035985 -0.237601
C37   C     C_R   0.253154 0.600748 0.926222 0.000612
C38   C     C_R   0.747083 0.598369 0.074289 0.000509
C39   C     C_R   0.753154 0.100749 0.926222 0.000613
C40   C     C_R   0.247083 0.098368 0.074289 0.000509
C41   C     C_R   0.489178 0.826332 0.418557 0.015014
C42   C     C_R   0.449495 0.823777 0.562794 0.009624
C43   C     C_R   0.989178 0.326332 0.418557 0.015014
C44   C     C_R   0.949495 0.323777 0.562794 0.009624
C45   C     C_R   0.437518 0.816726 0.861918 0.559335
C46   C     C_R   0.528239 0.821929 0.145372 0.546883
C47   C     C_R   0.937519 0.316726 0.861918 0.559333
C48   C     C_R   0.028239 0.321929 0.145371 0.546883
C49   C     C_R   0.481889 0.717186 0.455973 0.034095
C50   C     C_R   0.463226 0.716052 0.526334 0.023870
C51   C     C_R   0.981889 0.217186 0.455973 0.034095
C52   C     C_R   0.963226 0.216052 0.526334 0.023870
C53   C     C_R   0.443988 0.931838 0.522622 -0.165479
C54   C     C_R   0.464979 0.933693 0.450682 -0.167720
C55   C     C_R   0.943988 0.431838 0.522622 -0.165478
C56   C     C_R   0.964979 0.433693 0.450682 -0.167720
C57   C     C_3   0.533986 0.616150 0.466986 -0.270381
C58   C     C_3   0.513337 0.614770 0.544392 -0.270303
C59   C     C_3   0.033986 0.116150 0.466986 -0.270381
C60   C     C_3   0.013337 0.114770 0.544392 -0.270303
C61   C     C_R   0.250282 0.605624 0.418419 0.015424
C62   C     C_R   0.755886 0.573393 0.572663 0.010960
C63   C     C_R   0.750282 0.105624 0.418419 0.015425
C64   C     C_R   0.255886 0.073393 0.572663 0.010960
C65   C     C_R   0.200340 0.673670 0.455845 0.017887
C66   C     C_R   0.808500 0.633581 0.537502 0.008553
C67   C     C_R   0.700340 0.173670 0.455845 0.017887
C68   C     C_R   0.308500 0.133581 0.537502 0.008553
C69   C     C_R   0.203892 0.677553 0.528266 0.052699
C70   C     C_R   0.811160 0.636231 0.465145 0.041566
C71   C     C_R   0.703892 0.177553 0.528266 0.052699
C72   C     C_R   0.311160 0.136231 0.465146 0.041566
C73   C     C_R   0.315142 0.572750 0.528685 -0.171293
C74   C     C_R   0.706977 0.510481 0.458013 -0.171447
C75   C     C_R   0.815142 0.072750 0.528685 -0.171293
C76   C     C_R   0.206977 0.010481 0.458013 -0.171447
C77   C     C_R   0.312343 0.569176 0.454099 -0.170014
C78   C     C_R   0.706727 0.505142 0.532430 -0.161877
C79   C     C_R   0.812343 0.069176 0.454099 -0.170014
C80   C     C_R   0.206727 0.005142 0.532430 -0.161877
C81   C     C_3   0.120720 0.674651 0.456679 -0.246806
C82   C     C_3   0.835745 0.758164 0.549195 -0.261923
C83   C     C_3   0.620720 0.174651 0.456679 -0.246806
C84   C     C_3   0.335745 0.258164 0.549196 -0.261923
C85   C     C_3   0.126008 0.680375 0.537616 -0.146331
C86   C     C_3   0.839688 0.764190 0.468617 -0.121344
C87   C     C_3   0.626008 0.180375 0.537616 -0.146331
C88   C     C_3   0.339687 0.264191 0.468618 -0.121344
C89   C     C_R   0.261131 0.637615 0.852251 0.535920
C90   C     C_R   0.738916 0.637342 0.147914 0.539419
C91   C     C_R   0.761131 0.137616 0.852251 0.535920
C92   C     C_R   0.238917 0.137341 0.147914 0.539419
C93   C     C_R   0.257297 0.618429 0.566365 0.014416
C94   C     C_R   0.756054 0.585057 0.424466 0.014361
C95   C     C_R   0.757297 0.118429 0.566365 0.014416
C96   C     C_R   0.256054 0.085057 0.424466 0.014361
C97   C     C_R   0.271398 0.044388 0.645664 0.543697
C98   C     C_R   0.729117 0.048958 0.352418 0.544054
C99   C     C_R   0.771398 0.544388 0.645664 0.543697
C100  C     C_R   0.229117 0.548958 0.352418 0.544055
C101  C     C_R   0.437509 0.819067 0.639703 0.562639
C102  C     C_R   0.528831 0.823128 0.352342 0.538588
C103  C     C_R   0.937508 0.319067 0.639703 0.562638
C104  C     C_R   0.028831 0.323128 0.352342 0.538588
C105  C     C_R   0.261441 0.641700 0.641642 0.532764
C106  C     C_R   0.740970 0.636021 0.355499 0.538644
C107  C     C_R   0.761441 0.141700 0.641642 0.532764
C108  C     C_R   0.240970 0.136021 0.355499 0.538644
C109  C     C_3   0.484589 0.941375 0.025961 0.002390
C110  C     C_3   0.525000 0.877588 0.966274 0.018729
C111  C     C_3   0.984590 0.441375 0.025960 0.002389
C112  C     C_3   0.025001 0.377587 0.966273 0.018729
C113  C     C_3   0.414667 0.885500 0.997811 -0.152029
C114  C     C_3   0.537126 0.765900 0.013641 -0.083062
C115  C     C_3   0.914668 0.385501 0.997811 -0.152028
C116  C     C_3   0.037126 0.265899 0.013641 -0.083061
C117  C     C_3   0.456340 0.821977 0.938455 0.039474
C118  C     C_3   0.496431 0.829798 0.073460 0.043473
C119  C     C_3   0.956340 0.321977 0.938455 0.039473
C120  C     C_3   0.996432 0.329798 0.073460 0.043473
Cr1   Cr    Cr6+3 0.229640 0.835880 0.747370 1.038192
Cr2   Cr    Cr6+3 0.770360 0.835880 0.252630 1.040172
Cr3   Cr    Cr6+3 0.729640 0.335880 0.747370 1.038193
Cr4   Cr    Cr6+3 0.270360 0.335880 0.252630 1.040171
Cr5   Cr    Cr6+3 0.387390 0.989720 0.750850 1.014005
Cr6   Cr    Cr6+3 0.612610 0.989720 0.249150 1.011721
Cr7   Cr    Cr6+3 0.887390 0.489720 0.750850 1.014005
Cr8   Cr    Cr6+3 0.112610 0.489720 0.249150 1.011721
Cr9   Cr    Cr6+3 0.385770 0.677220 0.749340 1.035114
Cr10  Cr    Cr6+3 0.614230 0.677220 0.250660 1.038196
Cr11  Cr    Cr6+3 0.885770 0.177220 0.749340 1.035114
Cr12  Cr    Cr6+3 0.114230 0.177220 0.250660 1.038196
H1    H     H_    0.361710 0.924283 0.989366 0.123890
H2    H     H_    0.588290 0.720159 0.020955 0.141417
H3    H     H_    0.861711 0.424285 0.989365 0.123890
H4    H     H_    0.088291 0.220157 0.020955 0.141417
H5    H     H_    0.429104 0.015730 0.548232 0.140189
H6    H     H_    0.466888 0.018691 0.422038 0.124512
H7    H     H_    0.929104 0.515730 0.548232 0.140189
H8    H     H_    0.966888 0.518691 0.422038 0.124512
H9    H     H_    0.088867 0.147158 0.459398 0.158687
H10   H     H_    0.986175 0.029814 0.559771 0.129715
H11   H     H_    0.588867 0.647158 0.459398 0.158687
H12   H     H_    0.486176 0.529814 0.559771 0.129714
H13   H     H_    0.518974 0.532353 0.437404 0.132805
H14   H     H_    0.556903 0.643182 0.581138 0.161163
H15   H     H_    0.018974 0.032353 0.437404 0.132805
H16   H     H_    0.056903 0.143182 0.581138 0.161163
H17   H     H_    0.360810 0.536219 0.556592 0.138172
H18   H     H_    0.665510 0.465842 0.427614 0.127471
H19   H     H_    0.860810 0.036219 0.556592 0.138171
H20   H     H_    0.165510 0.965842 0.427614 0.127471
H21   H     H_    0.354603 0.525972 0.425414 0.134546
H22   H     H_    0.667926 0.449756 0.558281 0.135006
H23   H     H_    0.854603 0.025972 0.425415 0.134546
H24   H     H_    0.167926 0.949756 0.558281 0.135006
H25   H     H_    0.096221 0.589614 0.436277 0.172481
H26   H     H_    0.887498 0.758042 0.577947 0.148674
H27   H     H_    0.596221 0.089614 0.436277 0.172481
H28   H     H_    0.387498 0.258043 0.577947 0.148674
H29   H     H_    0.098220 0.759084 0.432814 0.112988
H30   H     H_    0.795337 0.820051 0.571783 0.124967
H31   H     H_    0.598220 0.259084 0.432814 0.112987
H32   H     H_    0.295337 0.320051 0.571784 0.124966
H33   H     H_    0.106933 0.767766 0.560085 0.143164
H34   H     H_    0.802409 0.831436 0.445169 0.178461
H35   H     H_    0.606934 0.267766 0.560085 0.143164
H36   H     H_    0.302409 0.331436 0.445169 0.178460
H37   H     H_    0.460891 0.614095 0.969141 0.199569
H38   H     H_    0.387931 0.733248 0.082548 0.148909
H39   H     H_    0.960891 0.114095 0.969141 0.199568
H40   H     H_    0.887931 0.233250 0.082548 0.148908
H41   H     H_    0.149110 0.681592 0.934618 0.162529
H42   H     H_    0.854251 0.662957 0.069626 0.171376
H43   H     H_    0.649111 0.181594 0.934619 0.162529
H44   H     H_    0.354251 0.162956 0.069626 0.171376
H45   H     H_    0.148374 0.684916 0.061601 0.148717
H46   H     H_    0.860913 0.660498 0.943020 0.164787
H47   H     H_    0.648376 0.184920 0.061602 0.148718
H48   H     H_    0.360913 0.160498 0.943020 0.164786
H49   H     H_    0.802414 0.857624 0.059311 0.164795
H50   H     H_    0.184661 0.871668 0.939028 0.156791
H51   H     H_    0.302414 0.357623 0.059311 0.164795
H52   H     H_    0.684660 0.371670 0.939028 0.156791
H53   H     H_    0.398730 0.439317 0.939594 0.198729
H54   H     H_    0.588814 0.482033 0.052944 0.214754
H55   H     H_    0.898730 0.939317 0.939594 0.198729
H56   H     H_    0.088815 0.982029 0.052945 0.214754
H57   H     H_    0.309464 0.370840 0.930902 0.121672
H58   H     H_    0.669586 0.386843 0.067431 0.117080
H59   H     H_    0.809464 0.870841 0.930902 0.121673
H60   H     H_    0.169587 0.886840 0.067431 0.117081
O1    O     O_R   0.214300 0.709080 0.827500 -0.515634
O2    O     O_R   0.785700 0.709080 0.172500 -0.514877
O3    O     O_R   0.714300 0.209080 0.827500 -0.515634
O4    O     O_R   0.285700 0.209080 0.172500 -0.514877
O5    O     O_R   0.445900 0.919370 0.676500 -0.503591
O6    O     O_R   0.554100 0.919370 0.323500 -0.513072
O7    O     O_R   0.945900 0.419370 0.676500 -0.503592
O8    O     O_R   0.054100 0.419370 0.323500 -0.513071
O9    O     O_R   0.456660 0.717710 0.669820 -0.508292
O10   O     O_R   0.543340 0.717710 0.330180 -0.514402
O11   O     O_R   0.956660 0.217710 0.669820 -0.508292
O12   O     O_R   0.043340 0.217710 0.330180 -0.514402
O13   O     O_R   0.320590 0.625770 0.672930 -0.523496
O14   O     O_R   0.679410 0.625770 0.327070 -0.510993
O15   O     O_R   0.820590 0.125770 0.672930 -0.523496
O16   O     O_R   0.179410 0.125770 0.327070 -0.510993
O17   O     O_3   0.334270 0.834280 0.749190 -0.303414
O18   O     O_3   0.665730 0.834280 0.250810 -0.259053
O19   O     O_3   0.834270 0.334280 0.749190 -0.303413
O20   O     O_3   0.165730 0.334280 0.250810 -0.259053
O21   O     O_R   0.236190 0.958390 0.823150 -0.477978
O22   O     O_R   0.763810 0.958390 0.176850 -0.478135
O23   O     O_R   0.736190 0.458390 0.823150 -0.477978
O24   O     O_R   0.263810 0.458390 0.176850 -0.478135
O25   O     O_R   0.332090 0.075280 0.831290 -0.532400
O26   O     O_R   0.667910 0.075280 0.168710 -0.529501
O27   O     O_R   0.832090 0.575280 0.831290 -0.532400
O28   O     O_R   0.167910 0.575280 0.168710 -0.529503
O29   O     O_R   0.446280 0.918040 0.826620 -0.496302
O30   O     O_R   0.553720 0.918040 0.173380 -0.509749
O31   O     O_R   0.946280 0.418040 0.826620 -0.496304
O32   O     O_R   0.053720 0.418040 0.173380 -0.509751
O33   O     O_R   0.457080 0.716270 0.831760 -0.473877
O34   O     O_R   0.542920 0.716270 0.168240 -0.489727
O35   O     O_R   0.957080 0.216270 0.831760 -0.473879
O36   O     O_R   0.042920 0.216270 0.168240 -0.489726
O37   O     O_R   0.320980 0.624440 0.823040 -0.509040
O38   O     O_R   0.679020 0.624440 0.176960 -0.495869
O39   O     O_R   0.820980 0.124440 0.823040 -0.509039
O40   O     O_R   0.179020 0.124440 0.176960 -0.495869
O41   O     O_R   0.213880 0.710510 0.665560 -0.519104
O42   O     O_R   0.786120 0.710510 0.334440 -0.526820
O43   O     O_R   0.713880 0.210510 0.665560 -0.519104
O44   O     O_R   0.286120 0.210510 0.334440 -0.526820
O45   O     O_R   0.235800 0.959720 0.673040 -0.503246
O46   O     O_R   0.764200 0.959720 0.326960 -0.510615
O47   O     O_R   0.735800 0.459720 0.673040 -0.503246
O48   O     O_R   0.264200 0.459720 0.326960 -0.510615
O49   O     O_R   0.331670 0.076720 0.669350 -0.526942
O50   O     O_R   0.668330 0.076720 0.330650 -0.525618
O51   O     O_R   0.831670 0.576720 0.669350 -0.526942
O52   O     O_R   0.168330 0.576720 0.330650 -0.525618
C121  C     C_3   0.096761 0.568562 0.575447 -0.392471
H61   H     H_    0.109140 0.483020 0.546465 0.141301
H62   H     H_    0.118203 0.561496 0.630683 0.170011
H63   H     H_    0.039216 0.579941 0.579566 0.139399
C122  C     C_3   0.915180 0.774684 0.441769 -0.405866
H64   H     H_    0.916432 0.757485 0.383413 0.168311
H65   H     H_    0.935167 0.867445 0.452562 0.111860
H66   H     H_    0.951022 0.709507 0.469488 0.125392
C123  C     C_3   0.596761 0.068562 0.575447 -0.392471
H67   H     H_    0.609140 0.983020 0.546465 0.141301
H68   H     H_    0.618203 0.061496 0.630683 0.170011
H69   H     H_    0.539215 0.079941 0.579566 0.139400
C124  C     C_3   0.415180 0.274685 0.441769 -0.405865
H70   H     H_    0.416431 0.257487 0.383413 0.168311
H71   H     H_    0.435167 0.367446 0.452563 0.111860
H72   H     H_    0.451022 0.209507 0.469488 0.125392
C125  C     C_3   0.494190 0.071925 0.049960 -0.364222
H73   H     H_    0.478888 0.135093 0.006206 0.152013
H74   H     H_    0.462236 0.089570 0.097831 0.151698
H75   H     H_    0.549900 0.085672 0.064824 0.159895
C126  C     C_3   0.582847 0.928824 0.920496 -0.373475
H76   H     H_    0.631565 0.936022 0.953482 0.129025
H77   H     H_    0.593263 0.866191 0.875344 0.166277
H78   H     H_    0.566779 0.019100 0.899382 0.154649
C127  C     C_3   0.994193 0.571925 0.049960 -0.364225
H79   H     H_    0.978900 0.635093 0.006203 0.152016
H80   H     H_    0.962232 0.589574 0.097826 0.151696
H81   H     H_    0.049902 0.585665 0.064833 0.159902
C128  C     C_3   0.082847 0.428821 0.920493 -0.373468
H82   H     H_    0.066780 0.519100 0.899383 0.154646
H83   H     H_    0.131569 0.436009 0.953476 0.129024
H84   H     H_    0.093258 0.366192 0.875335 0.166278
Br1   Br    Br    0.431255 0.425395 0.089318 -0.577841
Br2   Br    Br    0.564144 0.465498 0.900883 -0.550129
Br3   Br    Br    0.931255 0.925394 0.089318 -0.577841
Br4   Br    Br    0.064144 0.965496 0.900884 -0.550130

loop_
_geom_bond_atom_site_label_1
_geom_bond_atom_site_label_2
_ccdc_geom_bond_type
C57   H13   S    
C73   C93   A    
Cr8   O32   S    
C75   C95   A    
C48   C120  S    
C53   H5    S    
C104  O12   A    
C16   C20   A    
C63   C98   S    
C69   C93   A    
C7    H39   S    
C5    C6    S    
C20   C40   A    
C71   C95   A    
C92   O40   A    
C29   Br1   S    
C22   C38   A    
C29   C33   S    
C128  H84   S    
C55   H7    S    
C33   H57   S    
C34   H54   S    
C9    C13   A    
C72   C88   S    
C11   C15   A    
C87   H35   S    
C12   C16   A    
C88   H36   S    
C107  O15   A    
Cr10  O10   S    
C96   C108  S    
C59   C60   S    
C113  H1    S    
C121  H61   S    
C31   H49   S    
Cr2   O2    S    
C41   C49   A    
C109  C118  S    
C9    C25   A    
C51   C52   A    
C7    C119  S    
C112  C128  S    
C30   C34   S    
C105  O41   A    
C36   H56   S    
Cr1   O21   S    
C66   C82   S    
C91   O3    A    
C11   C27   A    
C68   C72   A    
C89   O1    A    
C45   O33   A    
C28   H48   S    
C88   C124  S    
C98   O46   A    
C64   C97   S    
Cr2   O42   S    
C2    O22   A    
C21   H41   S    
C127  H80   S    
Cr8   O52   S    
Cr9   O17   S    
C24   H44   S    
C97   O45   A    
C125  H74   S    
C47   O31   A    
C84   C88   S    
C92   O4    A    
C106  O14   A    
C82   H30   S    
C38   C90   S    
C46   O30   A    
C85   H33   S    
C18   C38   A    
C19   C35   S    
C76   C96   A    
C44   C55   A    
C66   C70   A    
C56   H8    S    
C98   O50   A    
C79   H23   S    
C62   C99   S    
C72   C96   A    
C61   C65   A    
Cr10  O34   S    
C121  H63   S    
C2    O26   A    
C76   H20   S    
C101  O9    A    
C60   H16   S    
C75   C79   A    
C110  C126  S    
Cr6   O26   S    
C59   H15   S    
C67   C83   S    
C4    O24   A    
C111  C112  S    
C108  O16   A    
Cr11  O15   S    
C7    C8    S    
C53   C54   A    
C122  H64   S    
C32   C36   S    
C42   C53   A    
C125  H73   S    
C82   H26   S    
C101  O5    A    
C49   C57   S    
C41   C102  S    
C124  H70   S    
C43   C104  S    
C52   C60   S    
C77   H21   S    
C61   C77   A    
Cr6   O50   S    
Cr2   O18   S    
Cr8   O28   S    
C100  O52   A    
Cr9   O9    S    
Cr6   O6    S    
C86   C122  S    
C85   C121  S    
C104  O8    A    
C1    C12   S    
C2    C11   S    
C44   C103  S    
Cr3   O47   S    
C30   Br2   S    
C62   C66   A    
C34   H58   S    
Cr7   O51   S    
C10   C14   A    
Cr5   O17   S    
C17   C37   A    
C48   O32   A    
C116  C120  S    
C91   O39   A    
Cr4   O44   S    
C7    C116  S    
Cr10  O14   S    
Cr4   O4    S    
C114  H2    S    
C126  H77   S    
C42   C50   A    
C113  C117  S    
C35   H55   S    
C115  C119  S    
Cr11  O19   S    
C61   C100  S    
C42   C101  S    
C112  C116  S    
C69   C85   S    
C6    H38   S    
Cr11  O39   S    
C48   O36   A    
C21   C25   A    
C122  H66   S    
C35   H59   S    
C106  O42   A    
C36   H60   S    
C62   C78   A    
C76   C80   A    
Cr7   O7    S    
C125  H75   S    
C1    O25   A    
C15   C31   S    
Cr5   O29   S    
C16   C32   S    
C13   C17   A    
C124  H72   S    
C45   O29   A    
C57   C58   S    
Cr2   O46   S    
C115  H3    S    
C128  H83   S    
C100  O48   A    
C58   H12   S    
C47   O35   A    
C59   H9    S    
C49   C50   A    
Cr9   O33   S    
C90   O38   A    
C4    C9    S    
C81   C85   S    
C83   C87   S    
C55   C56   A    
C108  O44   A    
Cr3   O23   S    
C74   C94   A    
C86   H34   S    
C84   H28   S    
Cr7   O27   S    
C15   C19   A    
C12   C28   A    
C13   C29   S    
C70   C94   A    
C27   H47   S    
Cr12  O36   S    
Cr4   O48   S    
C25   H45   S    
C23   H43   S    
Cr10  O38   S    
C45   C117  S    
C46   C118  S    
C39   C91   S    
C73   C77   A    
C107  O43   A    
C60   H10   S    
C4    O28   A    
Cr11  O11   S    
C99   O47   A    
C127  H79   S    
C64   C80   A    
Cr3   O3    S    
C17   C33   S    
C110  C117  S    
Cr1   O1    S    
C3    O23   A    
Cr12  O12   S    
C81   H25   S    
C68   C84   S    
C24   C28   A    
C78   H22   S    
Cr4   O20   S    
C82   C86   S    
Cr2   O22   S    
C50   C58   S    
Cr8   O8    S    
C123  H69   S    
Cr9   O13   S    
C65   C81   S    
C90   O2    A    
Cr6   O30   S    
C95   C107  S    
C71   C87   S    
Cr1   O41   S    
C121  H62   S    
C1    O21   A    
C31   C35   S    
C111  C127  S    
C109  C125  S    
C64   C68   A    
C83   H31   S    
C73   H17   S    
C81   H29   S    
C112  C119  S    
C105  O13   A    
C116  H4    S    
C37   C89   S    
C102  O10   A    
C109  C110  S    
Cr8   O20   S    
C43   C51   A    
C123  H67   S    
C65   C69   A    
C67   C71   A    
C99   O51   A    
C97   O49   A    
C20   C36   S    
Cr11  O35   S    
C87   C123  S    
C21   C37   A    
C3    O27   A    
C22   C26   A    
C127  H81   S    
C5    H37   S    
C33   H53   S    
C8    H40   S    
Cr5   O25   S    
C5    C114  S    
C14   C18   A    
Cr12  O20   S    
C63   C79   A    
C32   H50   S    
C102  O6    A    
C23   C39   A    
Cr9   O37   S    
C8    C115  S    
C93   C105  S    
Cr3   O19   S    
Cr5   O49   S    
C23   C27   A    
C31   Br3   S    
C126  H76   S    
C74   C78   A    
C32   Br4   S    
Cr7   O31   S    
C10   C26   A    
C47   C119  S    
Cr5   O5    S    
C14   C30   S    
Cr12  O40   S    
C22   H42   S    
C80   H24   S    
C26   H46   S    
C63   C67   A    
C122  H65   S    
C57   H11   S    
Cr6   O18   S    
C75   H19   S    
C123  H68   S    
C5    C117  S    
C111  C120  S    
C124  H71   S    
C6    C113  S    
C128  H82   S    
C46   O34   A    
C103  O7    A    
C40   C92   S    
C18   C34   S    
C114  C118  S    
C19   C39   A    
Cr7   O19   S    
Cr12  O16   S    
Cr1   O17   S    
Cr3   O43   S    
Cr10  O18   S    
C51   C59   S    
C70   C86   S    
C8    C120  S    
Cr4   O24   S    
C110  C114  S    
C94   C106  S    
C29   H51   S    
C30   H52   S    
C84   H32   S    
C58   H14   S    
C109  C113  S    
C3    C10   S    
C44   C52   A    
C54   H6    S    
Cr1   O45   S    
C24   C40   A    
C126  H78   S    
C103  O11   A    
C41   C54   A    
C43   C56   A    
C83   H27   S    
C74   H18   S    
C111  C115  S    
C89   O37   A    
C6    C118  S    
