data_mof_unit_7849.cif
_audit_creation_date              2012-10-26T19:50:39-0400
_audit_creation_method            fapswitch 2.2
_symmetry_space_group_name_H-M    P1
_symmetry_Int_Tables_number       1
_space_group_crystal_system       triclinic
_cell_length_a                    13.916258
_cell_length_b                    15.110832
_cell_length_c                    15.815548
_cell_angle_alpha                 90.963845
_cell_angle_beta                  70.295415
_cell_angle_gamma                 90.798631
_cell_volume                      3130.48180896

loop_
_atom_site_label
_atom_site_type_symbol
_atom_type_description
_atom_site_fract_x
_atom_site_fract_y
_atom_site_fract_z
_atom_type_partial_charge
C1    C     C_R   0.500504 0.670048 0.500079 0.552802
C2    C     C_R   0.555978 0.188950 0.544047 -0.139597
C3    C     C_R   0.501414 0.766572 0.499804 -0.082871
C4    C     C_R   0.499626 0.233537 0.499870 -0.079075
C5    C     C_R   0.593900 0.813070 0.466346 -0.151979
C6    C     C_R   0.446698 0.185798 0.452913 -0.154558
C7    C     C_R   0.594576 0.905222 0.462981 0.253991
C8    C     C_R   0.450494 0.093270 0.448698 0.254321
C9    C     C_R   0.502052 0.951514 0.497634 0.074006
C10   C     C_R   0.502570 0.048661 0.497421 0.074080
C11   C     C_R   0.919223 0.462781 0.423734 0.106568
C12   C     C_R   0.499569 0.329997 0.500087 0.552645
C13   C     C_R   0.100377 0.579319 0.524670 0.101646
C14   C     C_R   0.815161 0.461026 0.429879 0.047941
C15   C     C_R   0.200100 0.573619 0.529396 0.018526
C16   C     C_R   0.438124 0.501231 0.672169 0.546189
C17   C     C_R   0.562025 0.500691 0.327771 0.544902
C18   C     C_R   0.767975 0.542886 0.566094 0.263685
C19   C     C_R   0.217949 0.428870 0.468130 0.274111
C20   C     C_R   0.868938 0.540636 0.566260 -0.143236
C21   C     C_R   0.115259 0.428173 0.472672 -0.172792
C22   C     C_R   0.947239 0.502638 0.494603 0.015473
C23   C     C_R   0.394100 0.569201 0.088006 -0.121808
C24   C     C_R   0.055579 0.504255 0.496730 0.018404
C25   C     C_R   0.402361 0.511544 0.770185 -0.000856
C26   C     C_R   0.599589 0.502810 0.229227 -0.003713
C27   C     C_R   0.278968 0.565445 0.908166 -0.126094
C28   C     C_R   0.734913 0.484492 0.086623 -0.115806
C29   C     C_R   0.305509 0.544799 0.817131 -0.158060
C30   C     C_R   0.702241 0.487236 0.179999 -0.161081
C31   C     C_R   0.470794 0.496237 0.815515 -0.132109
C32   C     C_R   0.531132 0.519667 0.184197 -0.139653
C33   C     C_R   0.448598 0.521393 0.906075 -0.008386
C34   C     C_R   0.625416 0.493717 0.903626 -0.124258
C35   C     C_R   0.562307 0.518771 0.089859 -0.011564
C36   C     C_R   0.349785 0.554991 0.953170 0.059353
C37   C     C_R   0.665479 0.497687 0.040759 0.069385
C38   C     C_R   0.522169 0.515238 0.950359 -0.023994
C39   C     C_R   0.492327 0.534161 0.043753 -0.030620
C40   C     C_3   0.161561 0.555349 0.138602 -0.019529
C41   C     C_3   0.057048 0.597535 0.179082 -0.371658
C42   C     C_3   0.842099 0.521916 0.825162 -0.017262
C43   C     C_3   0.957772 0.521794 0.799420 -0.372925
C44   C     C_3   0.986464 0.340537 0.317762 -0.329530
C45   C     C_R   0.323474 0.578962 0.044025 0.254305
C46   C     C_3   0.045319 0.710543 0.469862 -0.300277
C47   C     C_3   0.708321 0.686943 0.627314 -0.285845
C48   C     C_3   0.306201 0.352361 0.330008 -0.302410
C49   C     C_3   0.287127 0.965520 0.653100 -0.017175
C50   C     C_3   0.178207 0.999412 0.686419 -0.358953
C51   C     C_3   0.555470 0.035677 0.675595 -0.012342
C52   C     C_3   0.623351 0.997593 0.723555 -0.359381
C53   C     C_3   0.711164 0.954702 0.333957 -0.011788
C54   C     C_3   0.803376 0.015322 0.296175 -0.364629
C55   C     C_3   0.435662 0.069150 0.309485 -0.018380
C56   C     C_R   0.697985 0.489355 0.946997 0.260238
C57   C     C_3   0.414262 0.993556 0.253501 -0.362834
C58   C     C_R   0.408904 0.904737 0.532182 0.247748
C59   C     C_R   0.555922 0.096783 0.545037 0.241565
C60   C     C_R   0.409215 0.812582 0.531253 -0.137095
Cu1   Cu    Cu3+1 0.403570 0.500010 0.500000 0.958293
Cu2   Cu    Cu3+1 0.596430 0.499990 0.500000 0.954984
H1    H     H_    0.793716 0.431620 0.376022 0.130964
H2    H     H_    0.814451 0.470212 0.050650 0.158028
H3    H     H_    0.370841 0.593671 0.156293 0.118799
H4    H     H_    0.653061 0.481234 0.832641 0.089855
H5    H     H_    0.337059 0.777249 0.556231 0.135133
H6    H     H_    0.598898 0.225572 0.579121 0.147187
H7    H     H_    0.665527 0.778087 0.440303 0.134257
H8    H     H_    0.404931 0.220313 0.417521 0.136273
H9    H     H_    0.185793 0.530439 0.194098 0.124679
H10   H     H_    0.154314 0.498596 0.095082 0.124224
H11   H     H_    0.033625 0.627076 0.125267 0.152263
H12   H     H_    0.231618 0.630228 0.553828 0.120529
H13   H     H_    0.999457 0.546828 0.213679 0.131131
H14   H     H_    0.059541 0.650068 0.228297 0.154223
H15   H     H_    0.815984 0.591819 0.839257 0.120118
H16   H     H_    0.822753 0.495455 0.766898 0.127200
H17   H     H_    0.986945 0.453391 0.782586 0.165337
H18   H     H_    0.992496 0.564190 0.739943 0.101214
H19   H     H_    0.980392 0.547949 0.856099 0.146582
H20   H     H_    0.067738 0.455185 0.329805 0.249453
H21   H     H_    0.050697 0.324531 0.255414 0.131665
H22   H     H_    0.914253 0.328014 0.304203 0.145065
H23   H     H_    0.886013 0.570869 0.622101 0.125879
H24   H     H_    0.990008 0.296267 0.371941 0.146875
H25   H     H_    0.068651 0.699960 0.591770 0.237348
H26   H     H_    0.998315 0.770688 0.493273 0.146350
H27   H     H_    0.010961 0.670401 0.427750 0.160891
H28   H     H_    0.123979 0.731048 0.428611 0.149929
H29   H     H_    0.687035 0.570767 0.697869 0.212085
H30   H     H_    0.776882 0.707699 0.643917 0.116095
H31   H     H_    0.640377 0.719913 0.675153 0.139284
H32   H     H_    0.717380 0.708781 0.558387 0.171471
H33   H     H_    0.248387 0.296581 0.455425 0.227126
H34   H     H_    0.083899 0.368392 0.453464 0.117822
H35   H     H_    0.237904 0.335930 0.311158 0.108466
H36   H     H_    0.364570 0.300716 0.301556 0.123143
H37   H     H_    0.338220 0.416767 0.300255 0.164360
H38   H     H_    0.337075 0.017730 0.666965 0.112376
H39   H     H_    0.289801 0.904726 0.691271 0.110850
H40   H     H_    0.125819 0.948615 0.674099 0.154430
H41   H     H_    0.154305 0.014015 0.759613 0.089182
H42   H     H_    0.173210 0.060952 0.650732 0.168907
H43   H     H_    0.495960 0.985270 0.677259 0.108338
H44   H     H_    0.518814 0.096565 0.712646 0.114822
H45   H     H_    0.452635 0.530110 0.224468 0.113012
H46   H     H_    0.683764 0.046306 0.723808 0.160476
H47   H     H_    0.576938 0.982055 0.794009 0.088183
H48   H     H_    0.659677 0.935867 0.688939 0.161877
H49   H     H_    0.647158 0.982252 0.315398 0.121156
H50   H     H_    0.730671 0.887829 0.302649 0.122703
H51   H     H_    0.869349 0.989279 0.312270 0.162296
H52   H     H_    0.824103 0.019110 0.222092 0.086943
H53   H     H_    0.785387 0.082862 0.325682 0.162661
H54   H     H_    0.519523 0.082838 0.283882 0.106200
H55   H     H_    0.394350 0.128566 0.300069 0.125057
H56   H     H_    0.541181 0.464490 0.777729 0.119446
H57   H     H_    0.331024 0.979172 0.275600 0.169363
H58   H     H_    0.440990 0.011934 0.181535 0.090566
H59   H     H_    0.455046 0.933227 0.261354 0.153673
H60   H     H_    0.756851 0.474958 0.213584 0.121558
H61   H     H_    0.251357 0.557106 0.783078 0.123334
H62   H     H_    0.203535 0.591549 0.942634 0.148504
N1    N     N_R   0.741310 0.499980 0.500000 -0.225898
N2    N     N_R   0.258690 0.500020 0.500000 -0.216348
N3    N     N_2   0.994212 0.432329 0.342647 -0.554290
N4    N     N_2   0.047417 0.661013 0.546710 -0.545085
N5    N     N_2   0.694438 0.591935 0.634348 -0.450799
N6    N     N_2   0.279417 0.355823 0.426759 -0.454818
O1    O     O_R   0.418570 0.628550 0.499990 -0.518124
O2    O     O_3   0.798948 0.466928 0.900335 -0.570401
O3    O     O_3   0.316484 0.948227 0.559974 -0.515216
O4    O     O_3   0.615512 0.054520 0.586202 -0.514392
O5    O     O_3   0.686241 0.950269 0.427987 -0.517354
O6    O     O_3   0.400169 0.044779 0.400818 -0.516984
O7    O     O_R   0.581430 0.371450 0.500010 -0.508985
O8    O     O_R   0.581440 0.628540 0.499990 -0.482315
O9    O     O_R   0.418560 0.371460 0.500010 -0.459427
O10   O     O_R   0.372890 0.500010 0.629830 -0.507728
O11   O     O_R   0.627110 0.499990 0.370170 -0.518961
O12   O     O_R   0.535760 0.500000 0.629840 -0.472380
O13   O     O_R   0.464240 0.500000 0.370160 -0.490958
O14   O     O_3   0.231366 0.619527 0.088573 -0.567788

loop_
_geom_bond_atom_site_label_1
_geom_bond_atom_site_label_2
_ccdc_geom_bond_type
C25   C31   A    
C44   N3    S    
C34   C56   A    
C23   C45   A    
C40   H9    S    
C27   C29   A    
C47   H30   S    
C35   C39   A    
C53   O5    S    
C16   O12   A    
C44   H21   S    
C34   H4    S    
C46   H27   S    
C53   C54   S    
C26   C32   A    
C48   H35   S    
C14   N1    A    
C47   N5    S    
C17   C26   S    
C52   H47   S    
C46   N4    S    
C35   C37   A    
C2    H6    S    
C18   N1    A    
C49   H39   S    
C38   C39   A    
C11   C14   A    
C23   C39   A    
C8    O6    S    
C55   H54   S    
C58   C60   A    
C55   O6    S    
C54   H51   S    
C29   H61   S    
C33   C36   A    
C17   O11   A    
C9    C58   A    
C5    H7    S    
C37   C56   A    
Cu1   O13   S    
C30   H60   S    
C60   H5    S    
C32   H45   S    
C45   O14   S    
C31   C33   A    
Cu1   N2    S    
C4    C12   S    
C9    C10   S    
C57   H57   S    
C3    C60   A    
C53   H49   S    
C19   N6    S    
C50   H41   S    
C26   C30   A    
C20   H23   S    
C13   N4    S    
C48   N6    S    
C16   O10   A    
Cu2   O12   S    
C44   H24   S    
H25   N4    S    
C46   H26   S    
C58   O3    S    
C25   C29   A    
C51   C52   S    
C32   C35   A    
C4    C6    A    
C5    C7    A    
C2    C59   A    
Cu1   O9    S    
C6    C8    A    
C3    C5    A    
C43   H18   S    
C57   H59   S    
C15   N2    A    
C13   C24   A    
C1    C3    S    
C2    C4    A    
C31   H56   S    
C7    O5    S    
H33   N6    S    
C50   H42   S    
C13   C15   A    
C52   H48   S    
C51   H43   S    
C54   H53   S    
C47   H31   S    
C12   O9    A    
C36   C45   A    
Cu2   O8    S    
C56   O2    S    
C41   H13   S    
C57   H58   S    
C46   H28   S    
C11   N3    S    
C28   H2    S    
C53   H50   S    
C40   C41   S    
C20   C22   A    
C50   H40   S    
C55   C57   S    
C43   H19   S    
C22   C24   S    
C42   C43   S    
Cu2   O11   S    
C55   H55   S    
C16   C25   S    
C6    H8    S    
C48   H37   S    
C49   O3    S    
C40   H10   S    
C19   C21   A    
C34   C38   A    
C44   H22   S    
Cu2   N1    S    
C27   H62   S    
Cu1   O10   S    
C42   H16   S    
H29   N5    S    
C21   H34   S    
C27   C36   A    
C19   N2    A    
C48   H36   S    
C11   C22   A    
C33   C38   A    
C17   O13   A    
C23   H3    S    
C40   O14   S    
C10   C59   A    
C49   H38   S    
C28   C37   A    
C51   H44   S    
C1    O1    A    
C14   H1    S    
C54   H52   S    
C28   C30   A    
C51   O4    S    
C47   H32   S    
C18   C20   A    
Cu2   O7    S    
Cu1   Cu2   S    
H20   N3    S    
Cu1   O1    S    
C41   H11   S    
C7    C9    A    
C15   H12   S    
C52   H46   S    
C42   H15   S    
C8    C10   A    
C49   C50   S    
C21   C24   A    
C12   O7    A    
C18   N5    S    
C42   O2    S    
C43   H17   S    
C1    O8    A    
C41   H14   S    
C59   O4    S    
