data_mof_unit_62678.cif
_audit_creation_date              2012-10-26T21:12:16-0400
_audit_creation_method            fapswitch 2.2
_symmetry_space_group_name_H-M    P1
_symmetry_Int_Tables_number       1
_space_group_crystal_system       triclinic
_cell_length_a                    19.32851
_cell_length_b                    18.225343
_cell_length_c                    10.927814
_cell_angle_alpha                 89.980389
_cell_angle_beta                  91.220503
_cell_angle_gamma                 90.143679
_cell_volume                      3848.64147676

loop_
_atom_site_label
_atom_site_type_symbol
_atom_type_description
_atom_site_fract_x
_atom_site_fract_y
_atom_site_fract_z
_atom_type_partial_charge
C1    C     C_R   0.367758 0.500002 0.501156 0.572279
C2    C     C_R   0.964271 0.441116 0.548249 0.281243
C3    C     C_R   0.462688 0.720715 0.584357 0.070846
C4    C     C_R   0.537554 0.721172 0.416259 0.067814
C5    C     C_R   0.462345 0.797802 0.586801 -0.121893
C6    C     C_R   0.538249 0.798288 0.414931 -0.122018
C7    C     C_R   0.500378 0.838267 0.501150 0.022194
C8    C     C_R   0.559410 0.961258 0.467597 -0.083384
C9    C     C_R   0.441705 0.960924 0.536347 -0.084573
C10   C     C_R   0.559752 0.038461 0.467191 0.088910
C11   C     C_R   0.441468 0.038114 0.537342 0.090347
C12   C     C_R   0.632288 0.500078 0.501678 0.572496
C13   C     C_R   0.500607 0.078169 0.502281 0.040620
C14   C     C_R   0.499155 0.500034 0.265166 0.557463
C15   C     C_R   0.500999 0.500023 0.734817 0.588451
C16   C     C_R   0.500507 0.921104 0.501714 -0.011483
C17   C     C_R   0.457531 0.199475 0.420999 -0.087249
C18   C     C_R   0.543306 0.200497 0.581292 -0.092032
C19   C     C_R   0.457184 0.276655 0.421373 0.227634
C20   C     C_R   0.543349 0.277692 0.579121 0.225188
C21   C     C_R   0.500440 0.160433 0.501665 0.013159
C22   C     C_2   0.498349 0.439787 0.933032 -0.123479
C23   C     C_R   0.707714 0.499790 0.499683 0.004236
C24   C     C_2   0.502227 0.439825 0.066999 -0.131407
C25   C     C_2   0.504982 0.501187 0.866899 -0.078356
C26   C     C_2   0.495308 0.501172 0.133041 -0.099074
C27   C     C_R   0.748031 0.538119 0.587938 0.085570
C28   C     C_R   0.254606 0.529098 0.596865 0.078224
C29   C     C_R   0.820781 0.536344 0.581272 0.154412
C30   C     C_R   0.181637 0.528140 0.590304 0.166547
C31   C     C_R   0.851780 0.496404 0.486623 0.047093
C32   C     C_R   0.147790 0.497579 0.486489 0.040383
C33   C     C_R   0.811008 0.458664 0.400259 -0.139870
C34   C     C_R   0.292301 0.499972 0.499110 0.009091
C35   C     C_R   0.186153 0.469792 0.389998 -0.139874
C36   C     C_R   0.739505 0.459790 0.407437 -0.149787
C37   C     C_R   0.257821 0.471064 0.396293 -0.131995
C38   C     C_3   0.094160 0.331774 0.558348 0.006502
C39   C     C_3   0.126874 0.276585 0.647300 -0.244455
C40   C     C_3   0.153851 0.209382 0.580202 -0.451329
C41   C     C_3   0.904268 0.333291 0.572195 0.006404
C42   C     C_3   0.834183 0.313539 0.625887 -0.246814
C43   C     C_3   0.801780 0.247190 0.561486 -0.445706
C44   C     C_R   0.962184 0.542664 0.401561 0.082596
C45   C     C_R   0.034942 0.543518 0.402477 0.082323
C46   C     C_R   0.071924 0.493435 0.477170 -0.036827
C47   C     C_R   0.927282 0.492779 0.477063 -0.032833
C48   C     C_R   0.036615 0.440576 0.546712 0.276904
Cu1   Cu    Cu3+1 0.500000 0.573360 0.500000 1.004580
Cu2   Cu    Cu3+1 0.500000 0.426640 0.500000 1.039265
H1    H     H_    0.491019 0.387070 0.888197 0.179825
H2    H     H_    0.484961 0.554016 0.091439 0.114434
H3    H     H_    0.834819 0.428000 0.327508 0.133069
H4    H     H_    0.160265 0.446765 0.309838 0.142917
H5    H     H_    0.708712 0.430087 0.339769 0.142161
H6    H     H_    0.286495 0.450322 0.319797 0.161897
H7    H     H_    0.433161 0.690520 0.650662 0.153246
H8    H     H_    0.567088 0.691323 0.349736 0.136185
H9    H     H_    0.133462 0.347425 0.490385 0.137609
H10   H     H_    0.049856 0.304949 0.509134 0.109453
H11   H     H_    0.170597 0.303201 0.698170 0.199842
H12   H     H_    0.509776 0.387189 0.111919 0.178760
H13   H     H_    0.087737 0.258848 0.714396 0.187659
H14   H     H_    0.110834 0.181245 0.529945 0.157692
H15   H     H_    0.177087 0.170399 0.647421 0.190871
H16   H     H_    0.194184 0.225760 0.514459 0.181267
H17   H     H_    0.940596 0.287328 0.590732 0.149489
H18   H     H_    0.897831 0.339010 0.470840 0.100705
H19   H     H_    0.841085 0.301178 0.724961 0.196405
H20   H     H_    0.798417 0.360888 0.616317 0.199423
H21   H     H_    0.791706 0.259618 0.463234 0.170401
H22   H     H_    0.751871 0.233263 0.604348 0.195840
H23   H     H_    0.433196 0.825263 0.656657 0.114507
H24   H     H_    0.836668 0.199044 0.569484 0.165759
H25   H     H_    0.567569 0.826159 0.345549 0.112068
H26   H     H_    0.605959 0.932781 0.441963 0.147964
H27   H     H_    0.395112 0.932200 0.561775 0.146948
H28   H     H_    0.423909 0.169775 0.357666 0.155471
H29   H     H_    0.577288 0.171619 0.644897 0.151810
H30   H     H_    0.515159 0.554136 0.908381 0.117291
I1    I     I_    0.651062 0.091370 0.407310 -0.380954
I2    I     I_    0.089740 0.623476 0.298248 -0.205665
I3    I     I_    0.350283 0.090474 0.597915 -0.379858
I4    I     I_    0.386195 0.322801 0.292833 -0.353723
I5    I     I_    0.615826 0.325551 0.704602 -0.354983
I6    I     I_    0.698918 0.593857 0.734700 -0.249016
I7    I     I_    0.308416 0.571054 0.754976 -0.301043
I8    I     I_    0.884775 0.593633 0.711713 -0.146004
I9    I     I_    0.121872 0.574302 0.733517 -0.142790
I10   I     I_    0.903852 0.619136 0.292535 -0.209364
N1    N     N_R   0.500000 0.683620 0.500000 -0.227219
N2    N     N_R   0.500000 0.316380 0.500000 -0.212218
O1    O     O_R   0.400190 0.561980 0.499980 -0.486675
O2    O     O_3   0.930230 0.397097 0.631127 -0.510778
O3    O     O_R   0.599810 0.561980 0.500020 -0.484383
O4    O     O_R   0.400190 0.438070 0.500040 -0.473518
O5    O     O_R   0.599810 0.438070 0.499960 -0.480180
O6    O     O_R   0.500000 0.561940 0.321950 -0.513461
O7    O     O_R   0.500000 0.561940 0.678050 -0.495155
O8    O     O_R   0.500010 0.438030 0.322010 -0.483013
O9    O     O_R   0.499990 0.438030 0.677990 -0.476471
O10   O     O_3   0.072457 0.393745 0.624881 -0.512829

loop_
_geom_bond_atom_site_label_1
_geom_bond_atom_site_label_2
_ccdc_geom_bond_type
C43   H22   S    
C27   C29   A    
C25   H30   S    
C41   C42   S    
C45   I2    S    
C8    H26   S    
C6    H25   S    
C41   H17   S    
C45   C46   A    
C18   C21   A    
C20   N2    A    
C12   C23   S    
C35   C37   A    
C9    C16   A    
C24   C26   D    
C38   C39   S    
C15   C25   S    
C34   C37   A    
C42   H20   S    
C33   C36   A    
C3    N1    A    
C29   I8    S    
C19   N2    A    
Cu1   O6    S    
C37   H6    S    
C18   H29   S    
C22   C25   D    
C24   H12   S    
C31   C33   A    
C12   O3    A    
C23   C27   A    
C44   C47   A    
C38   O10   S    
C4    N1    A    
C43   H24   S    
C28   C34   A    
C8    C16   A    
C31   C47   S    
C35   H4    S    
Cu1   N1    S    
C30   I9    S    
C1    C34   S    
C14   O6    A    
C41   H18   S    
C33   H3    S    
C39   H11   S    
C46   C48   A    
C32   C35   A    
C2    O2    S    
C4    C6    A    
C39   C40   S    
C5    C7    A    
C11   I3    S    
C42   H19   S    
C15   O9    A    
C27   I6    S    
C26   H2    S    
Cu1   O7    S    
C41   O2    S    
C48   O10   S    
C20   I5    S    
C14   C26   S    
C28   I7    S    
C13   C21   S    
C9    H27   S    
Cu1   O3    S    
C9    C11   A    
C12   O5    A    
C38   H10   S    
C3    H7    S    
Cu2   N2    S    
C7    C16   S    
C23   C36   A    
C40   H15   S    
C22   C24   S    
C42   C43   S    
C19   I4    S    
C44   I10   S    
C44   C45   A    
C1    O1    A    
Cu2   O5    S    
C43   H21   S    
C32   C46   S    
C15   O7    A    
C3    C5    A    
C10   C13   A    
C14   O8    A    
C6    C7    A    
C2    C47   A    
C39   H13   S    
C10   I1    S    
Cu2   O8    S    
C40   H14   S    
C2    C48   A    
C28   C30   A    
C29   C31   A    
C36   H5    S    
C30   C32   A    
C11   C13   A    
Cu2   O4    S    
C1    O4    A    
C17   H28   S    
C17   C19   A    
C18   C20   A    
C5    H23   S    
C17   C21   A    
C38   H9    S    
Cu2   O9    S    
C8    C10   A    
Cu1   Cu2   S    
C4    H8    S    
C40   H16   S    
Cu1   O1    S    
C22   H1    S    
