data_mof_unit_24599.cif
_audit_creation_date              2012-12-11T15:52:42-0500
_audit_creation_method            fapswitch 2.2
_symmetry_space_group_name_H-M    P1
_symmetry_Int_Tables_number       1
_space_group_crystal_system       triclinic
_cell_length_a                    6.927089
_cell_length_b                    14.546391
_cell_length_c                    16.019592
_cell_angle_alpha                 90.223706
_cell_angle_beta                  89.996002
_cell_angle_gamma                 90.1023
_cell_volume                      1614.18561264

loop_
_atom_site_label
_atom_site_type_symbol
_atom_type_description
_atom_site_fract_x
_atom_site_fract_y
_atom_site_fract_z
_atom_type_partial_charge
O1    O     O_R   0.494400 0.415640 0.412830 -0.534260
O2    O     O_R   0.823920 0.405510 0.586560 -0.547354
O3    O     O_R   0.994250 0.584360 0.587170 -0.544633
C1    C     C_R   0.654802 0.383147 0.615334 0.681939
O4    O     O_R   0.824110 0.404610 0.413450 -0.543369
O5    O     O_R   0.994440 0.583460 0.412820 -0.532494
C2    C     C_R   0.654998 0.382287 0.384259 0.736420
O6    O     O_R   0.494210 0.416540 0.587180 -0.544996
O7    O     O_3   0.660810 0.558680 0.500000 -0.362233
V1    V     V_3+5 0.935650 0.489110 0.500000 1.441303
O8    O     O_R   0.324150 0.594490 0.413440 -0.518721
C3    C     C_R   0.155976 0.614968 0.382936 0.743686
O9    O     O_R   0.323970 0.595390 0.586550 -0.546919
C4    C     C_R   0.155156 0.618334 0.614950 0.677009
V2    V     V_3+5 0.435660 0.510890 0.500000 1.463204
O10   O     O_3   0.160630 0.441320 0.500000 -0.376749
C5    C     C_3   0.081651 0.639732 0.767600 -0.344862
H1    H     H_    0.940265 0.605168 0.757193 0.164246
H2    H     H_    0.186084 0.584024 0.782069 0.169874
C6    C     C_3   0.068215 0.709355 0.841991 0.420770
H3    H     H_    0.851048 0.733789 0.654088 0.139049
H4    H     H_    0.828785 0.834052 0.762066 0.145355
C7    C     C_3   0.995799 0.764734 0.665525 -0.331795
C8    C     C_3   0.342942 0.734706 0.701614 -0.321036
C9    C     C_3   0.144441 0.688035 0.685742 -0.007854
H5    H     H_    0.393641 0.769390 0.643782 0.160585
H6    H     H_    0.452728 0.682025 0.718224 0.176069
C10   C     C_3   0.121009 0.809082 0.811072 -0.061174
C11   C     C_3   0.979756 0.835030 0.738624 0.096248
C12   C     C_3   0.329012 0.805948 0.773032 -0.318818
H7    H     H_    0.437320 0.788826 0.821608 0.213987
H8    H     H_    0.370945 0.874729 0.748958 0.193492
H9    H     H_    0.039160 0.799792 0.606849 0.179799
C13   C     C_R   0.966578 0.798817 0.236046 -0.115670
H10   H     H_    0.836265 0.839286 0.229938 0.126241
C14   C     C_R   0.980315 0.735531 0.301507 -0.139697
H11   H     H_    0.860043 0.729322 0.344326 0.156948
C15   C     C_R   0.147170 0.681661 0.312374 -0.115193
C16   C     C_R   0.300628 0.692249 0.254501 0.262006
C17   C     C_R   0.287386 0.757514 0.190515 -0.124984
H12   H     H_    0.406435 0.764536 0.147115 0.176183
C18   C     C_R   0.121012 0.811368 0.180469 -0.093147
C19   C     C_R   0.812169 0.273883 0.715782 -0.131801
H13   H     H_    0.952896 0.292364 0.691610 0.119432
C20   C     C_R   0.801291 0.209109 0.779951 -0.098294
H14   H     H_    0.934111 0.179567 0.803191 0.136358
C21   C     C_R   0.621714 0.182885 0.813516 -0.046799
C22   C     C_R   0.453269 0.222953 0.781000 -0.122747
H15   H     H_    0.312530 0.204410 0.805127 0.125918
C23   C     C_R   0.464149 0.287738 0.716841 -0.131837
H16   H     H_    0.331315 0.317223 0.693560 0.119136
C24   C     C_R   0.643748 0.314099 0.683380 -0.049501
C25   C     C_R   0.812083 0.274051 0.281504 -0.134110
H17   H     H_    0.952851 0.292282 0.305904 0.117154
C26   C     C_R   0.801083 0.210147 0.215998 -0.139100
H18   H     H_    0.933899 0.180994 0.192149 0.115422
C27   C     C_R   0.621511 0.184122 0.181976 -0.043463
C28   C     C_R   0.453265 0.223930 0.215335 -0.141042
H19   H     H_    0.312504 0.205710 0.190923 0.116597
C29   C     C_R   0.464271 0.287852 0.280835 -0.117905
H20   H     H_    0.331476 0.317048 0.304664 0.122115
C30   C     C_R   0.643826 0.313747 0.314950 -0.044343
O11   O     O_R   0.771300 0.080930 0.910090 -0.538543
O12   O     O_R   0.441270 0.092800 0.083770 -0.549666
O13   O     O_R   0.271080 0.913920 0.084380 -0.544725
C31   C     C_R   0.610368 0.115312 0.112868 0.668268
O14   O     O_R   0.441580 0.091910 0.910670 -0.545270
O15   O     O_R   0.271390 0.913020 0.910040 -0.534038
C32   C     C_R   0.610682 0.114110 0.881773 0.705824
O16   O     O_R   0.770990 0.081830 0.084440 -0.550028
O17   O     O_3   0.604750 0.938760 0.997250 -0.350057
V3    V     V_3+5 0.329850 0.008280 0.997210 1.466558
O18   O     O_R   0.941680 0.901940 0.910610 -0.519671
C33   C     C_R   0.110606 0.879337 0.881879 0.805377
O19   O     O_R   0.941370 0.902830 0.083720 -0.533897
C34   C     C_R   0.110229 0.880431 0.112455 0.728893
V4    V     V_3+5 0.829860 0.986420 0.997150 1.512022
O20   O     O_3   0.104830 0.056030 0.997180 -0.382674
Br1   Br    Br    0.018624 0.960495 0.698196 -0.616686
Br2   Br    Br    0.526479 0.615622 0.254180 -0.526989
Br3   Br    Br    0.240286 0.670265 0.932060 -0.459382
Br4   Br    Br    0.808456 0.702205 0.889952 -0.504961

loop_
_geom_bond_atom_site_label_1
_geom_bond_atom_site_label_2
_ccdc_geom_bond_type
C26   H18   S    
H4    C11   S    
C6    Br4   S    
O18   C33   A    
C13   C18   A    
C8    H6    S    
C27   C31   S    
O19   C34   A    
C10   C33   S    
C31   O16   A    
C25   H17   S    
C10   C11   S    
O13   C34   A    
C1    C24   S    
C7    C11   S    
C14   H11   S    
C8    H5    S    
O14   V3    S    
O5    C3    A    
C15   C16   A    
C19   C24   A    
O15   C33   A    
V2    O10   S    
C5    C6    S    
C29   C30   A    
C13   H10   S    
C20   C21   A    
C21   C32   S    
V3    O20   S    
O8    V2    S    
O11   C32   A    
C7    H9    S    
C23   C24   A    
O1    V2    S    
O7    V1    S    
C1    O6    A    
C22   C23   A    
O9    C4    A    
O16   V4    S    
O4    V1    S    
C23   H16   S    
C25   C26   A    
H3    C7    S    
C8    C9    S    
C16   C17   A    
O4    C2    A    
C6    C10   S    
C28   H19   S    
V4    O20   S    
C29   H20   S    
O14   C32   A    
O12   C31   A    
O2    C1    A    
C19   H13   S    
C2    C30   S    
O19   V4    S    
C25   C30   A    
C21   C22   A    
C11   Br1   S    
O15   V3    S    
C5    H1    S    
C19   C20   A    
O3    C4    A    
C22   H15   S    
O6    V2    S    
O9    V2    S    
C14   C15   A    
O2    V1    S    
O17   V4    S    
O11   V4    S    
C17   H12   S    
O1    C2    A    
O5    V1    S    
O8    C3    A    
O13   V3    S    
C18   C34   S    
C5    C9    S    
C16   Br2   S    
C26   C27   A    
O7    V2    S    
C10   C12   S    
O3    V1    S    
V1    O10   S    
C12   H8    S    
C27   C28   A    
C12   H7    S    
C17   C18   A    
C5    H2    S    
C13   C14   A    
O12   V3    S    
C4    C9    S    
C3    C15   S    
C8    C12   S    
C20   H14   S    
O17   V3    S    
C7    C9    S    
O18   V4    S    
C6    Br3   S    
C28   C29   A    
