data_mof_unit_56635.cif
_audit_creation_date              2013-03-05T15:47:03-0500
_audit_creation_method            fapswitch 2.2
_symmetry_space_group_name_H-M    P1
_symmetry_Int_Tables_number       1
_space_group_crystal_system       triclinic
_cell_length_a                    8.330453
_cell_length_b                    17.384586
_cell_length_c                    19.215564
_cell_angle_alpha                 98.866568
_cell_angle_beta                  94.698573
_cell_angle_gamma                 97.536045
_cell_volume                      2710.96551388

loop_
_atom_site_label
_atom_site_type_symbol
_atom_site_description
_atom_site_fract_x
_atom_site_fract_y
_atom_site_fract_z
_atom_type_partial_charge
P1    P     P_3+3 0.992230 0.679190 0.566750 0.449401
O1    O     O_2   0.166667 0.691630 0.546720 -0.400406
O2    O     O_3   0.893830 0.593690 0.541700 -0.393129
O3    O     O_3   0.390350 0.644650 0.417800 -0.336821
O4    O     O_2   0.284013 0.777745 0.467239 -0.409120
O5    O     O_3   0.999170 0.691223 0.659619 -0.605135
O6    O     O_3   0.459290 0.796246 0.366212 -0.620449
C1    C     C_3   0.580927 0.793000 0.259246 -0.055157
H1    H     H_    0.507420 0.831086 0.232054 0.104669
P2    P     P_3+3 0.339610 0.439630 0.337240 0.494356
P3    P     P_3+3 0.928147 0.605804 0.288417 0.484469
O7    O     O_2   0.171750 0.463380 0.328050 -0.395860
O8    O     O_3   0.965290 0.605410 0.380210 -0.400033
O9    O     O_2   0.053353 0.558609 0.252898 -0.398614
O10   O     O_3   0.323884 0.336314 0.319262 -0.639119
O11   O     O_3   0.980866 0.702177 0.272958 -0.483148
C2    C     C_3   0.967173 0.754595 0.335015 0.606118
H2    H     H_    0.044609 0.742646 0.380487 0.143182
H3    H     H_    0.838852 0.749771 0.347668 -0.005900
C3    C     C_3   0.026657 0.838555 0.325528 -0.975930
H4    H     H_    0.962210 0.852842 0.277542 0.251364
C4    C     C_3   0.669586 0.241545 0.311773 0.370474
H5    H     H_    0.594823 0.216721 0.350414 0.111705
H6    H     H_    0.583265 0.259671 0.272377 0.127783
C5    C     C_3   0.749973 0.175804 0.273850 -1.025157
H7    H     H_    0.833219 0.154365 0.312001 0.261192
H8    H     H_    0.655250 0.125929 0.249053 0.234828
H9    H     H_    0.818401 0.196843 0.231774 0.277126
Ba1   Ba    Ba6+2 0.162080 0.538580 0.468810 1.572520
C6    C     C_3   0.141571 0.738030 0.696113 1.179713
H10   H     H_    0.249184 0.710028 0.682789 -0.015808
C7    C     C_3   0.166858 0.821514 0.678581 -1.091274
H11   H     H_    0.250089 0.860882 0.721282 0.232023
C8    C     C_3   0.168928 0.296235 0.290242 1.081747
H12   H     H_    0.075798 0.311615 0.325931 0.035662
C9    C     C_3   0.121457 0.314622 0.216500 -0.985947
H13   H     H_    0.073687 0.371393 0.219418 0.228724
H14   H     H_    0.023806 0.268845 0.187237 0.229106
H15   H     H_    0.228180 0.314853 0.185645 0.259915
P4    P     P_3+3 0.818060 0.320800 0.433200 0.429596
O12   O     O_2   0.643630 0.308330 0.453260 -0.364136
O13   O     O_3   0.916470 0.406310 0.458240 -0.438453
O14   O     O_3   0.419940 0.355340 0.582140 -0.316953
O15   O     O_3   0.786986 0.307950 0.340088 -0.593185
P5    P     P_3+3 0.873987 0.398738 0.711839 0.506260
O16   O     O_3   0.383960 0.539280 0.585630 -0.369976
O17   O     O_3   0.845010 0.394580 0.619730 -0.386433
O18   O     O_2   0.742592 0.443379 0.744701 -0.323063
O19   O     O_3   0.823692 0.303618 0.730579 -0.483965
Ba2   Ba    Ba6+2 0.648090 0.461410 0.531130 1.601215
P6    P     P_3+3 0.436300 0.747601 0.439304 0.467816
C10   C     C_3   0.469041 0.745471 0.302766 0.971588
H16   H     H_    0.523755 0.692556 0.312907 -0.026715
O20   O     O_3   0.426330 0.460710 0.414310 -0.331713
C11   C     C_3   0.582689 0.701325 0.652462 0.292963
H17   H     H_    0.686284 0.671670 0.635479 0.127525
C12   C     C_3   0.647732 0.786346 0.685738 0.151741
H18   H     H_    0.714682 0.815549 0.647037 0.024927
H19   H     H_    0.541861 0.817114 0.698474 0.067622
P7    P     P_3+3 0.465677 0.563186 0.674955 0.484145
O21   O     O_2   0.638540 0.536570 0.671920 -0.314239
O22   O     O_3   0.503614 0.664929 0.702797 -0.607792
H20   H     H_    0.004442 0.880294 0.372377 0.220082
C13   C     C_3   0.855031 0.249087 0.673154 0.514576
H21   H     H_    0.774432 0.251697 0.624765 0.150462
H22   H     H_    0.984445 0.260695 0.662604 0.007389
C14   C     C_3   0.819647 0.166305 0.690414 -0.945493
H23   H     H_    0.688923 0.151743 0.697329 0.322357
H24   H     H_    0.850201 0.122875 0.646640 0.213674
H25   H     H_    0.892544 0.161759 0.740177 0.241712
P8    P     P_3+3 0.376656 0.252122 0.569049 0.480569
C15   C     C_3   0.375447 0.242905 0.703983 1.348449
H26   H     H_    0.317188 0.296364 0.697708 -0.924260
O23   O     O_2   0.480960 0.218793 0.512236 -0.394455
O24   O     O_3   0.450753 0.215990 0.643708 -0.560664
H27   H     H_    0.181932 0.199011 0.762317 0.058600
C16   C     C_3   0.243822 0.177262 0.715598 0.064799
H28   H     H_    0.153278 0.163108 0.668318 0.039160
C17   C     C_2   0.733786 0.725877 0.499835 -0.456948
C18   C     C_3   0.609515 0.781622 0.508369 0.145759
C19   C     C_2   0.683178 0.865811 0.506317 -0.206840
C20   C     C_2   0.846819 0.886782 0.513376 0.121105
C21   C     C_2   0.951397 0.824396 0.524044 -0.348988
C22   C     C_1   0.885675 0.750751 0.526157 0.303110
C23   C     C_R   0.097227 0.138360 0.527083 -0.312344
C24   C     C_R   0.164022 0.217694 0.534489 0.216633
C25   C     C_R   0.919058 0.247278 0.474295 0.286711
C26   C     C_R   0.848237 0.167677 0.468660 -0.324509
C27   C     C_R   0.935824 0.112124 0.496037 0.149423
C28   C     C_2   0.927625 0.969817 0.514851 -0.203950
C29   C     C_2   0.854995 0.028319 0.491665 -0.161401
C30   C     C_R   0.074284 0.271651 0.509388 -0.424989
H29   H     H_    0.729537 0.014908 0.468286 0.138301
H30   H     H_    0.081902 0.840510 0.529595 0.184401
H31   H     H_    0.054621 0.981254 0.535467 0.140281
H32   H     H_    0.601450 0.909059 0.502981 0.140651
H33   H     H_    0.726236 0.148941 0.442479 0.155533
C31   C     C_R   0.609490 0.533638 0.297152 0.212078
C32   C     C_R   0.458408 0.489033 0.273101 0.200702
C33   C     C_R   0.407173 0.477184 0.200148 -0.335338
C34   C     C_R   0.509212 0.507103 0.152125 0.084991
C35   C     C_R   0.665925 0.548016 0.178192 -0.290883
C36   C     C_R   0.717026 0.560569 0.250895 0.141628
C37   C     C_R   0.458581 0.568245 0.044445 -0.319100
C38   C     C_R   0.401050 0.564870 0.973548 -0.124300
C39   C     C_R   0.334434 0.493003 0.931180 0.218653
C40   C     C_R   0.317797 0.424957 0.962633 -0.416846
C41   C     C_R   0.375343 0.427075 0.034997 0.642581
C42   C     C_R   0.448164 0.500088 0.075732 0.032250
C43   C     C_R   0.126689 0.452506 0.824597 -0.350885
C44   C     C_R   0.078988 0.446219 0.751964 0.275327
C45   C     C_R   0.344421 0.513224 0.735637 0.167573
C46   C     C_R   0.395269 0.519379 0.808933 0.431803
C47   C     C_R   0.284551 0.488762 0.853881 -0.116293
C48   C     C_R   0.187859 0.476525 0.708350 -0.460722
H34   H     H_    0.407161 0.618931 0.952001 0.108931
H35   H     H_    0.510065 0.624790 0.075431 0.166700
H36   H     H_    0.286448 0.447558 0.180686 0.183787
H37   H     H_    0.041164 0.428978 0.858233 0.181541
H38   H     H_    0.148873 0.473049 0.652660 0.186594
O25   O     O_3   0.309028 0.724070 0.267704 -0.608427
C49   C     C_3   0.306703 0.677937 0.200303 -0.091242
H39   H     H_    0.379148 0.629575 0.202729 0.126251
H40   H     H_    0.348895 0.714671 0.161158 0.111325
H41   H     H_    0.179852 0.652028 0.180224 0.195526
O26   O     O_3   0.128100 0.746053 0.769822 -0.619884
C50   C     C_3   0.127032 0.672950 0.792990 -0.221955
H42   H     H_    0.241143 0.649145 0.783148 0.094820
H43   H     H_    0.019555 0.629965 0.767762 0.170430
H44   H     H_    0.119780 0.681889 0.850991 0.157193
H45   H     H_    0.226789 0.822819 0.629374 0.219189
H46   H     H_    0.049395 0.844784 0.673796 0.253650
O27   O     O_3   0.175578 0.214298 0.280882 -0.638607
C51   C     C_3   0.200817 0.188728 0.346530 -0.268377
H47   H     H_    0.306662 0.224233 0.381114 0.177461
H48   H     H_    0.225780 0.127090 0.336591 0.177592
H49   H     H_    0.089731 0.189015 0.373912 0.126582
O28   O     O_3   0.653942 0.741127 0.211623 -0.616373
C52   C     C_3   0.705714 0.778723 0.155680 -0.177780
H50   H     H_    0.780270 0.837150 0.175175 0.133583
H51   H     H_    0.599304 0.785280 0.119355 0.115372
H52   H     H_    0.782225 0.741337 0.124886 0.165952
H53   H     H_    0.494166 0.700522 0.605839 0.015541
O29   O     O_3   0.753752 0.787208 0.747183 -0.545019
C53   C     C_3   0.798821 0.865350 0.782510 -0.113978
H54   H     H_    0.855235 0.904099 0.747364 0.102032
H55   H     H_    0.890718 0.865692 0.827778 0.168150
H56   H     H_    0.692251 0.889295 0.804125 0.115456
H57   H     H_    0.678119 0.832774 0.295617 0.108188
O30   O     O_3   0.496479 0.257566 0.762593 -0.592916
C54   C     C_3   0.466785 0.319680 0.813817 -0.088331
H58   H     H_    0.340811 0.309880 0.828729 0.077283
H59   H     H_    0.489374 0.376053 0.793817 0.206277
H60   H     H_    0.552171 0.323433 0.862040 0.173268
O31   O     O_3   0.315003 0.110240 0.726842 -0.555391
C55   C     C_3   0.191378 0.048564 0.732560 -0.152936
H61   H     H_    0.249555 0.998466 0.746442 0.162495
H62   H     H_    0.114426 0.028071 0.681246 0.128959
H63   H     H_    0.114728 0.066013 0.775461 0.121906
H64   H     H_    0.172971 0.098805 0.546361 0.154041
H65   H     H_    0.694733 0.664266 0.478041 0.203727
H66   H     H_    0.129475 0.332332 0.513641 0.181986
O32   O     O_3   0.558298 0.540689 0.834449 -0.606928
C56   C     C_3   0.603941 0.623168 0.845725 -0.078348
H67   H     H_    0.500828 0.657694 0.842476 0.094541
H68   H     H_    0.690605 0.638692 0.807524 0.211511
H69   H     H_    0.670501 0.641770 0.899351 0.118005
H70   H     H_    0.262729 0.370579 0.929623 0.140633
O33   O     O_3   0.375701 0.360299 0.067310 -0.629941
C57   C     C_3   0.266906 0.294296 0.031712 -0.268792
H71   H     H_    0.314247 0.268097 0.982425 0.157375
H72   H     H_    0.142188 0.309106 0.021086 0.146599
H73   H     H_    0.258174 0.248643 0.066211 0.184795
H74   H     H_    0.747463 0.569732 0.142186 0.167327
O34   O     O_3   0.658081 0.546718 0.367469 -0.669324
C58   C     C_3   0.743737 0.485436 0.379841 0.152629
H75   H     H_    0.834914 0.471522 0.342247 0.095285
H76   H     H_    0.663491 0.429774 0.378362 0.137997
H77   H     H_    0.808631 0.507269 0.432046 0.232024
H78   H     H_    0.159199 0.845985 0.320212 0.294079

loop_
_geom_bond_atom_site_label_1
_geom_bond_atom_site_label_2
_geom_bond_distance
_ccdc_geom_bond_type
C6    C7    1.531794 S    
C11   H17   1.108162 S    
C6    O26   1.416808 S    
O26   C50   1.409065 S    
O7    Ba1   2.829257 S    
C52   H51   1.111600 S    
O33   C57   1.410540 S    
C38   H34   1.080826 S    
O32   C56   1.412526 S    
C55   H63   1.113216 S    
C25   C26   1.415609 A    
C51   H49   1.101547 S    
C53   H54   1.113515 S    
C12   H18   1.109903 S    
C28   H31   1.080551 S    
C3    H78   1.109672 S    
C23   C24   1.399016 A    
C5    H9    1.106527 S    
C14   H24   1.109988 S    
C34   C35   1.414413 A    
C39   C47   1.497133 S    
O1    Ba1   2.838687 S    
P4    C25   1.857280 S    
C1    O28   1.414669 S    
C9    H13   1.106875 S    
O6    C10   1.405480 S    
P1    O1    1.530155 D    
P2    O10   1.761274 S    
C6    H10   1.104465 S    
Ba1   O13   2.840589 S    
C52   H52   1.109361 S    
C12   H19   1.114716 S    
C29   H29   1.084119 S    
C57   H71   1.111422 S    
C34   C42   1.494840 S    
C31   C36   1.400182 A    
C11   O22   1.397676 S    
C2    C3    1.521953 S    
C41   C42   1.416262 A    
P7    O22   1.746017 S    
C8    H12   1.108477 S    
C10   O25   1.419392 S    
C54   H60   1.109082 S    
O2    Ba1   2.921289 S    
P6    C18   1.847600 S    
C37   C38   1.396447 A    
C2    H3    1.110949 S    
C43   C44   1.403029 A    
C58   H77   1.087458 S    
C4    O15   1.417126 S    
C21   C22   1.332799 D    
C1    H1    1.116664 S    
C4    C5    1.519729 S    
C54   H58   1.108977 S    
C23   H64   1.078098 S    
C30   H66   1.082105 S    
C27   C29   1.509550 S    
C43   C47   1.412560 A    
O10   C8    1.410354 S    
C48   H38   1.082704 S    
O3    Ba1   2.814226 S    
P4    O13   1.583872 S    
O19   C13   1.405031 S    
C41   O33   1.398551 S    
C37   C42   1.405026 A    
C56   H67   1.113560 S    
C35   C36   1.401689 A    
C17   H65   1.084626 S    
C15   O24   1.408169 S    
C45   C46   1.420725 A    
C53   H55   1.109434 S    
O2    Ba2   2.841367 S    
O16   Ba2   2.914194 S    
C19   C20   1.354151 D    
O17   Ba2   2.755258 S    
Ba1   Ba2   4.555364 S    
P5    O17   1.755595 S    
C11   H53   1.109871 S    
O3    P6    1.756957 S    
C14   H23   1.108786 S    
C13   C14   1.523120 S    
H27   C16   1.112218 S    
C19   H32   1.083914 S    
C23   C27   1.412662 A    
C15   H26   1.121191 S    
C51   H48   1.108968 S    
C8    O27   1.416957 S    
C5    H7    1.107249 S    
C16   H28   1.106795 S    
C21   H30   1.078745 S    
C9    H15   1.108195 S    
P1    O5    1.759693 S    
P7    O21   1.572065 D    
P1    C22   1.849155 S    
C13   H22   1.111491 S    
C50   H43   1.112101 S    
C15   C16   1.531272 S    
P7    C45   1.846468 S    
C46   O32   1.387450 S    
P8    C24   1.828534 S    
P3    O11   1.752110 S    
O34   C58   1.396555 S    
P5    O19   1.751072 S    
C40   C41   1.426554 A    
P1    Ba1   3.382969 S    
C2    H2    1.105213 S    
Ba2   O20   2.785347 S    
C39   C40   1.405351 A    
C3    H4    1.106629 S    
O25   C49   1.411584 S    
P2    O7    1.513440 D    
O13   Ba2   2.922145 S    
C58   H75   1.114219 S    
O5    C6    1.412717 S    
C20   C21   1.504773 S    
C15   O30   1.417028 S    
C11   C12   1.526077 S    
O27   C51   1.409614 S    
C4    H6    1.110520 S    
C33   H36   1.076887 S    
C49   H40   1.108904 S    
C50   H42   1.104153 S    
O12   Ba2   2.839002 S    
C7    H46   1.109122 S    
C53   H56   1.112654 S    
C10   H16   1.114737 S    
C46   C47   1.422478 A    
P5    O18   1.544051 D    
O8    Ba1   2.754609 S    
C1    C10   1.545808 S    
C40   H70   1.077124 S    
P4    O12   1.530332 D    
O14   P8    1.757675 S    
C12   O29   1.412277 S    
O16   P7    1.759752 S    
C4    H5    1.108841 S    
C56   H69   1.109285 S    
C26   H33   1.082124 S    
C18   C19   1.518681 S    
C43   H37   1.083127 S    
P8    O23   1.541097 D    
P3    C36   1.867111 S    
C52   H50   1.112167 S    
P5    C44   1.846782 S    
O14   Ba2   2.813611 S    
C35   H74   1.082982 S    
C51   H47   1.111256 S    
C5    H8    1.110434 S    
C38   C39   1.400819 A    
C37   H35   1.082557 S    
C20   C28   1.505694 S    
C32   C33   1.407006 A    
Ba1   O16   2.785943 S    
O29   C53   1.409748 S    
C14   H25   1.109112 S    
C7    H11   1.109775 S    
C49   H41   1.105988 S    
C56   H68   1.108899 S    
C1    H57   1.110661 S    
C50   H44   1.109085 S    
O6    P6    1.758474 S    
C24   C30   1.391306 A    
C16   O31   1.411985 S    
C9    H14   1.108406 S    
P8    O24   1.751612 S    
C31   O34   1.353809 S    
P3    O8    1.766875 S    
P2    Ba1   3.387802 S    
C28   C29   1.362294 D    
C17   C22   1.314543 D    
C57   H72   1.113121 S    
C3    H20   1.110114 S    
P4    Ba2   3.383434 S    
C13   H21   1.111811 S    
C55   H62   1.112827 S    
C33   C34   1.416024 A    
P3    O9    1.547693 D    
C8    C9    1.532136 S    
C54   H59   1.105954 S    
P2    C32   1.881264 S    
P2    O20   1.561205 S    
O28   C52   1.409745 S    
C17   C18   1.509893 S    
P4    O15   1.761792 S    
C55   H61   1.107106 S    
C26   C27   1.421405 A    
C31   C32   1.391811 A    
Ba1   O20   2.915039 S    
O31   C55   1.409800 S    
Ba2   O21   2.829383 S    
O30   C54   1.406538 S    
O4    P6    1.539933 D    
C44   C48   1.392043 A    
P1    O2    1.583723 S    
C49   H39   1.101729 S    
C25   C30   1.389865 A    
C45   C48   1.396276 A    
C7    H45   1.106699 S    
O11   C2    1.407100 S    
C58   H76   1.096712 S    
C57   H73   1.108865 S    
