data_mof_unit_14763.cif
_audit_creation_date              2012-12-10T19:15:23-0500
_audit_creation_method            fapswitch 2.2
_symmetry_space_group_name_H-M    P1
_symmetry_Int_Tables_number       1
_space_group_crystal_system       triclinic
_cell_length_a                    10.623008
_cell_length_b                    9.75772
_cell_length_c                    23.38621
_cell_angle_alpha                 90.127234
_cell_angle_beta                  89.589545
_cell_angle_gamma                 90.168584
_cell_volume                      2424.05031935

loop_
_atom_site_label
_atom_site_type_symbol
_atom_type_description
_atom_site_fract_x
_atom_site_fract_y
_atom_site_fract_z
_atom_type_partial_charge
C1    C     C_R   0.257884 0.499533 0.499629 0.828940
C2    C     C_R   0.289363 0.433114 0.972419 -0.162457
C3    C     C_R   0.290673 0.432694 0.031901 -0.158131
C4    C     C_R   0.400352 0.469695 0.061355 -0.012220
C5    C     C_R   0.509643 0.507187 0.030670 -0.020896
C6    C     C_R   0.619829 0.545567 0.059884 -0.012656
C7    C     C_R   0.728517 0.581819 0.028877 -0.161624
C8    C     C_R   0.728000 0.579496 0.969354 -0.166720
C9    C     C_R   0.403904 0.469907 0.120981 0.497906
C10   C     C_R   0.618020 0.546875 0.119609 0.499784
C11   C     C_R   0.590187 0.419447 0.239033 -0.125773
C12   C     C_R   0.500501 0.500122 0.389642 0.856816
C13   C     C_R   0.586847 0.416534 0.298354 -0.264621
C14   C     C_R   0.503435 0.501869 0.328005 -0.043532
C15   C     C_R   0.426535 0.593698 0.298660 -0.249972
C16   C     C_R   0.430898 0.597776 0.239428 -0.109645
C17   C     C_R   0.511643 0.509530 0.209543 0.321347
C18   C     C_R   0.497818 0.375837 0.762570 0.533459
C19   C     C_R   0.493585 0.376333 0.702976 -0.331934
C20   C     C_R   0.502596 0.500373 0.672952 -0.101327
C21   C     C_R   0.513758 0.624537 0.702835 -0.226871
C22   C     C_R   0.515155 0.624690 0.762080 -0.183451
C23   C     C_R   0.742496 0.499850 0.499530 0.822166
C24   C     C_R   0.506441 0.501059 0.791891 0.231392
C25   C     C_3   0.071797 0.563789 0.555465 -0.395401
C26   C     C_3   0.071394 0.348931 0.494765 -0.401053
C27   C     C_3   0.927288 0.561482 0.556013 -0.400438
C28   C     C_3   0.928472 0.349473 0.493664 -0.391292
C29   C     C_3   0.073914 0.580806 0.447313 -0.402055
C30   C     C_3   0.121612 0.498278 0.499304 0.189351
C31   C     C_3   0.879046 0.498837 0.499352 0.192685
C32   C     C_3   0.929642 0.584532 0.448389 -0.420472
C33   C     C_3   0.370196 0.079328 0.495620 -0.303746
C34   C     C_3   0.371645 0.918198 0.490471 -0.283544
C35   C     C_3   0.579933 0.080150 0.451511 0.429691
C36   C     C_3   0.588023 0.918271 0.454000 0.445252
C37   C     C_3   0.551908 0.081470 0.552921 -0.382404
C38   C     C_3   0.544455 0.919163 0.554272 -0.372616
C39   C     C_R   0.500456 0.500131 0.610661 0.902535
C40   C     C_R   0.615698 0.538340 0.880232 0.482024
C41   C     C_R   0.399131 0.470104 0.881788 0.570826
C42   C     C_R   0.398023 0.469412 0.941450 -0.037392
C43   C     C_R   0.508740 0.506147 0.970619 -0.023060
C44   C     C_R   0.618523 0.541826 0.939889 -0.012866
H1    H     H_    0.203285 0.404433 0.950852 0.192528
H2    H     H_    0.482181 0.280020 0.680484 0.160208
H3    H     H_    0.520960 0.721474 0.680562 0.160948
H4    H     H_    0.522274 0.720862 0.785020 0.161560
H5    H     H_    0.105349 0.671636 0.559219 0.171035
H6    H     H_    0.107732 0.298810 0.455126 0.164370
H7    H     H_    0.107695 0.506580 0.593098 0.164696
H8    H     H_    0.103437 0.287197 0.531920 0.172909
H9    H     H_    0.892708 0.499943 0.592992 0.163806
H10   H     H_    0.892296 0.284908 0.529459 0.168785
H11   H     H_    0.891389 0.667807 0.561620 0.170295
H12   H     H_    0.895563 0.302798 0.452871 0.172698
H13   H     H_    0.899155 0.692992 0.452958 0.170946
H14   H     H_    0.892242 0.544079 0.407303 0.156447
H15   H     H_    0.205532 0.403754 0.054658 0.192722
H16   H     H_    0.316417 0.107888 0.534926 0.165037
H17   H     H_    0.306899 0.875363 0.523526 0.163569
H18   H     H_    0.651142 0.115501 0.558508 0.147538
H19   H     H_    0.638267 0.876175 0.564925 0.158875
H20   H     H_    0.499437 0.123016 0.590384 0.192929
H21   H     H_    0.480141 0.886749 0.589524 0.186772
H22   H     H_    0.677593 0.115140 0.460819 0.037784
H23   H     H_    0.685460 0.892428 0.468391 -0.014765
H24   H     H_    0.814285 0.611562 0.050450 0.192595
H25   H     H_    0.652770 0.351243 0.215934 0.151379
H26   H     H_    0.649140 0.348309 0.321111 0.176882
H27   H     H_    0.362905 0.661218 0.321599 0.159848
H28   H     H_    0.370914 0.668310 0.216639 0.152518
N1    N     N_R   0.507123 0.503071 0.852736 -0.343582
N2    N     N_R   0.511304 0.508915 0.148645 -0.356823
N3    N     N_3   0.499750 0.138610 0.498760 -0.080961
N4    N     N_3   0.499750 0.861390 0.498760 -0.070843
O1    O     O_R   0.314910 0.616040 0.499990 -0.634069
O2    O     O_R   0.314910 0.383960 0.499990 -0.637448
O3    O     O_R   0.500080 0.616070 0.416130 -0.580634
O4    O     O_R   0.500080 0.383930 0.416130 -0.575509
O5    O     O_R   0.685320 0.616040 0.499970 -0.643091
O6    O     O_R   0.685320 0.383960 0.499970 -0.629174
O7    O     O_R   0.500150 0.616010 0.583820 -0.627812
O8    O     O_R   0.500150 0.383990 0.583820 -0.627787
O9    O     O_2   0.720467 0.568974 0.849796 -0.572753
O10   O     O_2   0.293334 0.438724 0.852859 -0.535618
O11   O     O_2   0.301371 0.430422 0.151230 -0.564108
O12   O     O_2   0.721433 0.586624 0.148547 -0.566118
Zn1   Zn    Zn3+2 0.500150 0.654960 0.499970 0.928395
Zn2   Zn    Zn3+2 0.500150 0.345040 0.499970 0.928582
H29   H     H_    0.111034 0.687638 0.448303 0.170540
H30   H     H_    0.107336 0.532687 0.406765 0.160686
H31   H     H_    0.314014 0.125907 0.461451 0.131976
H32   H     H_    0.332585 0.882285 0.449253 0.158663
O13   O     O_3   0.560264 0.137079 0.395751 -0.631563
C45   C     C_3   0.443432 0.109570 0.368651 0.192506
H33   H     H_    0.376321 0.193056 0.378729 0.116137
H34   H     H_    0.398990 0.013090 0.382113 0.155225
C46   C     C_3   0.460319 0.109219 0.303118 -0.346607
H35   H     H_    0.406488 0.195651 0.284436 0.212877
H36   H     H_    0.560436 0.124765 0.291029 0.231659
C47   C     C_3   0.414223 0.976552 0.275466 -0.909220
H37   H     H_    0.313433 0.958484 0.286056 0.250143
H38   H     H_    0.470955 0.888875 0.290578 0.288372
H39   H     H_    0.424652 0.983676 0.228289 0.265797
O14   O     O_3   0.565087 0.861639 0.399036 -0.629167
C48   C     C_3   0.676091 0.810549 0.372161 0.125658
H40   H     H_    0.646900 0.755133 0.332936 0.175636
H41   H     H_    0.722610 0.733433 0.399461 0.140056
C49   C     C_3   0.769475 0.923427 0.354227 -0.408290
H42   H     H_    0.721865 0.997953 0.326160 0.257896
H43   H     H_    0.805644 0.978676 0.392263 0.197955
C50   C     C_3   0.881530 0.863113 0.321750 -0.946306
H44   H     H_    0.932949 0.789635 0.349176 0.258478
H45   H     H_    0.947168 0.946678 0.309121 0.268614
H46   H     H_    0.849307 0.809581 0.282491 0.288479
H47   H     H_    0.813365 0.607534 0.946573 0.193439
O15   O     O_3   0.482541 0.255124 0.792757 -0.624172
C51   C     C_3   0.594187 0.177521 0.788709 0.052604
H48   H     H_    0.676553 0.238535 0.803810 0.158619
H49   H     H_    0.611101 0.143523 0.743811 0.131912
C52   C     C_3   0.580419 0.050657 0.826490 -0.324082
H50   H     H_    0.564967 0.083174 0.871586 0.235791
H51   H     H_    0.497209 0.990120 0.812593 0.228456
C53   C     C_3   0.697158 0.960131 0.823176 -0.922176
H52   H     H_    0.712261 0.923138 0.778698 0.263952
H53   H     H_    0.684268 0.869971 0.851540 0.285289
H54   H     H_    0.781540 0.018109 0.837348 0.272601

loop_
_geom_bond_atom_site_label_1
_geom_bond_atom_site_label_2
_ccdc_geom_bond_type
C22   H4    S    
C12   O3    A    
C23   O6    A    
C1    O1    A    
C41   C42   A    
O13   C45   S    
C16   H28   S    
C32   H14   S    
C37   H18   S    
C28   H12   S    
C19   H2    S    
C7    C8    A    
C38   N4    S    
O2    Zn2   S    
C41   O10   S    
C10   O12   S    
C29   C30   S    
C18   C24   A    
C39   O8    A    
C38   H19   S    
C29   C32   S    
C26   H6    S    
C5    C6    A    
C27   H11   S    
C24   N1    S    
C13   H26   S    
C15   C16   A    
C45   C46   S    
C11   C13   A    
C40   N1    A    
C47   H39   S    
C18   C19   A    
O15   C51   S    
C36   N4    S    
N3    Zn2   S    
C7    H24   S    
C49   H42   S    
C33   N3    S    
C35   C36   S    
C16   C17   A    
C45   H34   S    
C53   H54   S    
C48   H40   S    
C42   C43   A    
C18   O15   S    
N4    Zn1   S    
C50   H46   S    
O5    Zn1   S    
C37   N3    S    
C21   C22   A    
C1    O2    A    
C48   H41   S    
O8    Zn2   S    
C32   H13   S    
C8    H47   S    
C25   H5    S    
C51   H49   S    
C2    H1    S    
O7    Zn1   S    
C36   H23   S    
C27   C31   S    
C34   H32   S    
C20   C39   S    
C28   H10   S    
C35   H22   S    
C36   O14   S    
C34   H17   S    
C23   C31   S    
C40   O9    S    
C43   C44   A    
C25   H7    S    
C37   C38   S    
C26   H8    S    
C31   C32   S    
C38   H21   S    
O1    Zn1   S    
C45   H33   S    
C27   H9    S    
C33   C34   S    
C52   C53   S    
C47   H38   S    
C49   C50   S    
C8    C44   A    
C46   H36   S    
C12   C14   S    
C26   C30   S    
C33   H16   S    
C17   N2    S    
C48   C49   S    
C22   C24   A    
C9    N2    A    
C52   H51   S    
C3    C4    A    
C29   H29   S    
C37   H20   S    
C50   H44   S    
C51   C52   S    
C25   C30   S    
C11   C17   A    
C23   O5    A    
C28   C31   S    
C35   N3    S    
C4    C5    A    
C33   H31   S    
C6    C10   A    
C51   H48   S    
C11   H25   S    
C6    C7    A    
C35   O13   S    
C25   C27   S    
C15   H27   S    
C26   C28   S    
O6    Zn2   S    
C46   H35   S    
C19   C20   A    
C2    C3    A    
C52   H50   S    
C39   O7    A    
C9    O11   S    
C10   N2    A    
C53   H52   S    
C2    C42   A    
C12   O4    A    
C1    C30   S    
O4    Zn2   S    
C47   H37   S    
C49   H43   S    
O3    Zn1   S    
C41   N1    A    
C40   C44   A    
C46   C47   S    
C20   C21   A    
O14   C48   S    
C53   H53   S    
C14   C15   A    
C5    C43   A    
C21   H3    S    
C4    C9    A    
C13   C14   A    
C29   H30   S    
C34   N4    S    
C50   H45   S    
C3    H15   S    
