data_mof_unit_30615.cif
_audit_creation_date              2012-12-11T15:08:36-0500
_audit_creation_method            fapswitch 2.2
_symmetry_space_group_name_H-M    P1
_symmetry_Int_Tables_number       1
_space_group_crystal_system       triclinic
_cell_length_a                    19.40211
_cell_length_b                    11.558457
_cell_length_c                    18.743448
_cell_angle_alpha                 89.855352
_cell_angle_beta                  89.631101
_cell_angle_gamma                 90.034792
_cell_volume                      4203.27533817

loop_
_atom_site_label
_atom_site_type_symbol
_atom_type_description
_atom_site_fract_x
_atom_site_fract_y
_atom_site_fract_z
_atom_type_partial_charge
C1    C     C_R   0.271906 0.045137 0.853581 0.525461
C2    C     C_R   0.728085 0.045237 0.146443 0.526736
C3    C     C_R   0.771908 0.545134 0.853583 0.525455
C4    C     C_R   0.228086 0.545240 0.146445 0.526731
C5    C     C_3   0.521678 0.721670 0.965292 -0.102907
C6    C     C_3   0.478762 0.721457 0.034858 -0.102285
C7    C     C_3   0.021702 0.221689 0.965281 -0.102910
C8    C     C_3   0.978787 0.221438 0.034847 -0.102276
C9    C     C_3   0.304864 0.515967 0.040273 -0.255356
C10   C     C_3   0.695150 0.515846 0.960023 -0.255553
C11   C     C_3   0.804871 0.015985 0.040275 -0.255352
C12   C     C_3   0.195159 0.015818 0.960028 -0.255561
C13   C     C_3   0.316310 0.540418 0.960213 -0.244584
C14   C     C_3   0.683699 0.540509 0.039999 -0.244166
C15   C     C_3   0.816314 0.040433 0.960215 -0.244576
C16   C     C_3   0.183707 0.040478 0.040005 -0.244172
C17   C     C_3   0.172413 0.549557 0.027238 -0.061467
C18   C     C_3   0.827542 0.549689 0.972915 -0.061141
C19   C     C_3   0.672415 0.049543 0.027235 -0.061465
C20   C     C_3   0.327545 0.049707 0.972910 -0.061136
C21   C     C_3   0.258464 0.707700 0.056570 -0.241899
C22   C     C_3   0.741483 0.707651 0.943064 -0.241560
C23   C     C_3   0.758446 0.207706 0.056571 -0.241890
C24   C     C_3   0.241455 0.207640 0.943067 -0.241562
C25   C     C_3   0.240600 0.580632 0.070480 0.075924
C26   C     C_3   0.759358 0.580570 0.929527 0.076038
C27   C     C_3   0.740598 0.080630 0.070480 0.075934
C28   C     C_3   0.259354 0.080570 0.929527 0.076033
C29   C     C_3   0.255298 0.611814 0.931699 0.052268
C30   C     C_3   0.744735 0.612028 0.068294 0.052477
C31   C     C_3   0.755298 0.111819 0.931699 0.052267
C32   C     C_3   0.244736 0.112019 0.068296 0.052481
C33   C     C_3   0.188241 0.544648 0.946086 -0.241802
C34   C     C_3   0.811788 0.544986 0.054108 -0.241586
C35   C     C_3   0.688245 0.044643 0.946085 -0.241789
C36   C     C_3   0.311797 0.045002 0.054105 -0.241594
C37   C     C_3   0.251500 0.726397 0.974716 -0.210281
C38   C     C_3   0.748534 0.726537 0.024846 -0.210368
C39   C     C_3   0.751493 0.226402 0.974715 -0.210282
C40   C     C_3   0.248516 0.226528 0.024848 -0.210365
C41   C     C_3   0.504389 0.693245 0.459999 -0.221490
C42   C     C_3   0.496207 0.694466 0.540175 -0.220489
C43   C     C_3   0.004392 0.193245 0.460000 -0.221489
C44   C     C_3   0.996210 0.194465 0.540176 -0.220488
C45   C     C_R   0.447610 0.816999 0.861712 0.535657
C46   C     C_R   0.552506 0.817197 0.138269 0.535485
C47   C     C_R   0.947616 0.317000 0.861712 0.535651
C48   C     C_R   0.052512 0.317196 0.138269 0.535493
C49   C     C_3   0.562751 0.891176 0.469823 -0.215632
C50   C     C_3   0.436415 0.891487 0.527822 -0.218933
C51   C     C_3   0.062751 0.391179 0.469823 -0.215634
C52   C     C_3   0.936415 0.391483 0.527822 -0.218930
C53   C     C_3   0.438677 0.870778 0.446243 -0.272074
C54   C     C_3   0.560029 0.875822 0.551946 -0.273501
C55   C     C_3   0.938677 0.370773 0.446244 -0.272074
C56   C     C_3   0.060029 0.375825 0.551946 -0.273503
C57   C     C_3   0.508733 0.818895 0.429833 0.068867
C58   C     C_3   0.490700 0.820890 0.569147 0.066431
C59   C     C_3   0.008734 0.318894 0.429833 0.068866
C60   C     C_3   0.990701 0.320889 0.569148 0.066434
C61   C     C_3   0.171154 0.620693 0.464735 -0.228936
C62   C     C_3   0.826282 0.623796 0.536463 -0.235581
C63   C     C_3   0.671152 0.120686 0.464737 -0.228938
C64   C     C_3   0.326280 0.123807 0.536466 -0.235580
C65   C     C_3   0.184462 0.674622 0.535083 -0.126274
C66   C     C_3   0.816746 0.667693 0.462151 -0.118546
C67   C     C_3   0.684459 0.174614 0.535086 -0.126269
C68   C     C_3   0.316744 0.167699 0.462153 -0.118546
C69   C     C_3   0.251640 0.453348 0.478800 -0.231660
C70   C     C_3   0.746628 0.454517 0.523586 -0.226183
C71   C     C_3   0.751646 0.953350 0.478795 -0.231654
C72   C     C_3   0.246634 0.954516 0.523585 -0.226183
C73   C     C_3   0.299955 0.642039 0.443394 -0.276032
C74   C     C_3   0.698641 0.645019 0.555504 -0.277354
C75   C     C_3   0.799952 0.142052 0.443394 -0.276037
C76   C     C_3   0.198636 0.145005 0.555507 -0.277341
C77   C     C_3   0.237025 0.563919 0.432971 0.043905
C78   C     C_3   0.760847 0.567098 0.567866 0.043713
C79   C     C_3   0.737026 0.063922 0.432970 0.043906
C80   C     C_3   0.260847 0.067097 0.567866 0.043716
C81   C     C_3   0.249519 0.610742 0.568940 0.082939
C82   C     C_3   0.750424 0.607026 0.430472 0.082859
C83   C     C_3   0.749519 0.110737 0.568941 0.082941
C84   C     C_3   0.250424 0.107028 0.430473 0.082855
C85   C     C_3   0.240860 0.478711 0.560597 -0.133968
C86   C     C_3   0.757394 0.475426 0.440970 -0.138858
C87   C     C_3   0.740870 0.978705 0.560594 -0.133967
C88   C     C_3   0.257401 0.975430 0.440969 -0.138858
C89   C     C_R   0.262064 0.642602 0.854740 0.533880
C90   C     C_R   0.737915 0.642813 0.145218 0.533683
C91   C     C_R   0.762065 0.142605 0.854740 0.533876
C92   C     C_R   0.237917 0.142806 0.145220 0.533679
C93   C     C_3   0.314599 0.645800 0.523858 -0.243036
C94   C     C_3   0.685498 0.645934 0.474775 -0.237253
C95   C     C_3   0.814597 0.145808 0.523858 -0.243024
C96   C     C_3   0.185497 0.145930 0.474776 -0.237256
C97   C     C_R   0.274031 0.040061 0.644509 0.544679
C98   C     C_R   0.724323 0.036471 0.356690 0.548916
C99   C     C_R   0.774030 0.540063 0.644509 0.544685
C100  C     C_R   0.224322 0.536466 0.356692 0.548920
C101  C     C_R   0.469676 0.821681 0.646151 0.537111
C102  C     C_R   0.529777 0.821137 0.353217 0.536996
C103  C     C_R   0.969677 0.321681 0.646151 0.537107
C104  C     C_R   0.029777 0.321137 0.353217 0.536997
C105  C     C_R   0.261711 0.647047 0.642573 0.552622
C106  C     C_R   0.738933 0.643932 0.356530 0.547824
C107  C     C_R   0.761708 0.147038 0.642575 0.552616
C108  C     C_R   0.238932 0.143935 0.356531 0.547825
C109  C     C_3   0.478280 0.910680 0.034782 -0.136172
C110  C     C_3   0.521671 0.910907 0.964868 -0.135723
C111  C     C_3   0.978271 0.410660 0.034789 -0.136168
C112  C     C_3   0.021663 0.410926 0.964876 -0.135732
C113  C     C_3   0.431893 0.815607 0.003882 -0.149511
C114  C     C_3   0.568323 0.816238 0.995999 -0.149596
C115  C     C_3   0.931901 0.315572 0.003879 -0.149503
C116  C     C_3   0.068330 0.316273 0.995997 -0.149605
C117  C     C_3   0.475158 0.817250 0.935116 0.056321
C118  C     C_3   0.525060 0.817490 0.064790 0.056277
C119  C     C_3   0.975166 0.317253 0.935114 0.056317
C120  C     C_3   0.025068 0.317486 0.064788 0.056281
Cr1   Cr    Cr6+3 0.229620 0.836040 0.749110 0.973885
Cr2   Cr    Cr6+3 0.770380 0.836040 0.250890 0.971701
Cr3   Cr    Cr6+3 0.729620 0.336040 0.749110 0.973889
Cr4   Cr    Cr6+3 0.270380 0.336040 0.250890 0.971700
Cr5   Cr    Cr6+3 0.387630 0.990680 0.750730 0.962559
Cr6   Cr    Cr6+3 0.612370 0.990680 0.249270 0.961778
Cr7   Cr    Cr6+3 0.887630 0.490680 0.750730 0.962594
Cr8   Cr    Cr6+3 0.112370 0.490680 0.249270 0.961765
Cr9   Cr    Cr6+3 0.386020 0.676590 0.749210 0.966394
Cr10  Cr    Cr6+3 0.613980 0.676590 0.250790 0.964374
Cr11  Cr    Cr6+3 0.886020 0.176590 0.749210 0.966391
Cr12  Cr    Cr6+3 0.113980 0.176590 0.250790 0.964374
H1    H     H_    0.376987 0.815553 0.010655 0.086371
H2    H     H_    0.623193 0.816661 0.988783 0.086518
H3    H     H_    0.876993 0.315489 0.010641 0.086377
H4    H     H_    0.123198 0.316734 0.988765 0.086515
H5    H     H_    0.228143 0.771312 0.086226 0.092348
H6    H     H_    0.771826 0.771248 0.913179 0.092218
H7    H     H_    0.728109 0.271301 0.086225 0.092381
H8    H     H_    0.271772 0.271265 0.913179 0.092181
H9    H     H_    0.310955 0.724443 0.076443 0.104976
H10   H     H_    0.688926 0.724326 0.923287 0.105126
H11   H     H_    0.810932 0.224475 0.076453 0.104959
H12   H     H_    0.188891 0.224276 0.923301 0.105146
H13   H     H_    0.287356 0.791239 0.952984 0.091967
H14   H     H_    0.712707 0.791317 0.046366 0.091708
H15   H     H_    0.787348 0.291248 0.952988 0.091963
H16   H     H_    0.212686 0.291298 0.046374 0.091714
H17   H     H_    0.198658 0.756526 0.965593 0.140427
H18   H     H_    0.801343 0.756911 0.033773 0.139785
H19   H     H_    0.698655 0.256534 0.965579 0.140410
H20   H     H_    0.301326 0.256910 0.033762 0.139791
H21   H     H_    0.145477 0.581411 0.914168 0.126815
H22   H     H_    0.854570 0.582003 0.085822 0.126481
H23   H     H_    0.645479 0.081406 0.914168 0.126824
H24   H     H_    0.354577 0.082036 0.085814 0.126489
H25   H     H_    0.549119 0.641304 0.445803 0.135332
H26   H     H_    0.451650 0.641680 0.554696 0.136234
H27   H     H_    0.049122 0.141306 0.445804 0.135333
H28   H     H_    0.951654 0.141676 0.554697 0.136233
H29   H     H_    0.460443 0.646082 0.435798 0.110646
H30   H     H_    0.540452 0.649226 0.565028 0.112602
H31   H     H_    0.960446 0.146079 0.435800 0.110645
H32   H     H_    0.040457 0.149228 0.565029 0.112600
H33   H     H_    0.614056 0.879369 0.447566 0.107936
H34   H     H_    0.385475 0.880169 0.550922 0.107181
H35   H     H_    0.114055 0.379373 0.447567 0.107939
H36   H     H_    0.885475 0.380162 0.550924 0.107178
H37   H     H_    0.602595 0.820597 0.570963 0.107557
H38   H     H_    0.396795 0.812406 0.429415 0.109798
H39   H     H_    0.102595 0.320603 0.570964 0.107558
H40   H     H_    0.896795 0.312398 0.429416 0.109800
H41   H     H_    0.461043 0.981231 0.070317 0.104306
H42   H     H_    0.538702 0.981826 0.929254 0.104617
H43   H     H_    0.961024 0.481191 0.070334 0.104322
H44   H     H_    0.038686 0.481865 0.929273 0.104581
H45   H     H_    0.432641 0.951087 0.415798 0.093890
H46   H     H_    0.564273 0.960337 0.578671 0.106028
H47   H     H_    0.932638 0.451080 0.415798 0.093890
H48   H     H_    0.064270 0.460342 0.578671 0.106023
H49   H     H_    0.452391 0.982317 0.536973 0.120827
H50   H     H_    0.547176 0.980993 0.457037 0.118285
H51   H     H_    0.952390 0.482313 0.536973 0.120828
H52   H     H_    0.047174 0.480996 0.457037 0.118284
H53   H     H_    0.137229 0.552867 0.477640 0.133071
H54   H     H_    0.861214 0.555166 0.533463 0.128226
H55   H     H_    0.637234 0.052854 0.477645 0.133075
H56   H     H_    0.361219 0.055185 0.533471 0.128234
H57   H     H_    0.140905 0.678516 0.429928 0.131071
H58   H     H_    0.854456 0.685874 0.569474 0.126204
H59   H     H_    0.640899 0.178504 0.429932 0.131072
H60   H     H_    0.354445 0.185896 0.569477 0.126199
H61   H     H_    0.202046 0.758722 0.521870 0.136118
H62   H     H_    0.803563 0.756908 0.468215 0.144261
H63   H     H_    0.702040 0.258719 0.521875 0.136121
H64   H     H_    0.303559 0.256912 0.468216 0.144263
H65   H     H_    0.720261 0.881225 0.461531 0.095203
H66   H     H_    0.278887 0.884347 0.542825 0.096949
H67   H     H_    0.220257 0.381222 0.461537 0.095200
H68   H     H_    0.778882 0.384348 0.542826 0.096953
H69   H     H_    0.687471 0.955448 0.575423 0.126070
H70   H     H_    0.310492 0.949240 0.427011 0.125971
H71   H     H_    0.187457 0.455470 0.575419 0.126082
H72   H     H_    0.810483 0.449228 0.427010 0.125962
H73   H     H_    0.345236 0.607035 0.413934 0.111090
H74   H     H_    0.653119 0.610518 0.584828 0.111103
H75   H     H_    0.845234 0.107057 0.413932 0.111086
H76   H     H_    0.153115 0.110480 0.584824 0.111105
H77   H     H_    0.291199 0.729638 0.423661 0.115990
H78   H     H_    0.706740 0.733162 0.574198 0.116297
H79   H     H_    0.791190 0.229652 0.423665 0.115993
H80   H     H_    0.206720 0.233144 0.574213 0.116279
H81   H     H_    0.539731 0.643518 0.936495 0.116357
H82   H     H_    0.460855 0.643106 0.063832 0.116679
H83   H     H_    0.039769 0.143554 0.936476 0.116360
H84   H     H_    0.960893 0.143069 0.063813 0.116679
H85   H     H_    0.334897 0.728733 0.539373 0.108552
H86   H     H_    0.664921 0.727520 0.456874 0.110589
H87   H     H_    0.834890 0.228740 0.539377 0.108553
H88   H     H_    0.164918 0.227517 0.456879 0.110589
H89   H     H_    0.355430 0.581988 0.533705 0.116664
H90   H     H_    0.644689 0.581837 0.466031 0.116979
H91   H     H_    0.855433 0.082004 0.533699 0.116661
H92   H     H_    0.144690 0.081830 0.466026 0.116977
H93   H     H_    0.306484 0.431190 0.469203 0.114492
H94   H     H_    0.691873 0.431629 0.534232 0.122109
H95   H     H_    0.806489 0.931194 0.469191 0.114493
H96   H     H_    0.191879 0.931626 0.534228 0.122107
H97   H     H_    0.298648 0.425364 0.049345 0.125946
H98   H     H_    0.701535 0.425316 0.951474 0.125208
H99   H     H_    0.798671 0.925377 0.049351 0.125943
H100  H     H_    0.201564 0.925296 0.951478 0.125216
H101  H     H_    0.352079 0.539705 0.070290 0.112909
H102  H     H_    0.647922 0.539184 0.929871 0.112910
H103  H     H_    0.852082 0.039748 0.070292 0.112911
H104  H     H_    0.147924 0.039126 0.929877 0.112902
H105  H     H_    0.365339 0.589146 0.952843 0.147697
H106  H     H_    0.634699 0.589243 0.047143 0.147729
H107  H     H_    0.865341 0.089166 0.952843 0.147702
H108  H     H_    0.134702 0.089195 0.047150 0.147730
H109  H     H_    0.320854 0.458344 0.930072 0.105157
H110  H     H_    0.679052 0.458499 0.070470 0.105130
H111  H     H_    0.820861 0.958357 0.930076 0.105161
H112  H     H_    0.179072 0.958467 0.070476 0.105116
H113  H     H_    0.661606 0.960151 0.043355 0.102269
H114  H     H_    0.338315 0.960277 0.957212 0.102206
H115  H     H_    0.161602 0.460171 0.043364 0.102284
H116  H     H_    0.838309 0.460255 0.957221 0.102191
H117  H     H_    0.694311 0.953642 0.928071 0.091511
H118  H     H_    0.305827 0.953993 0.072479 0.091520
H119  H     H_    0.194305 0.453646 0.928075 0.091506
H120  H     H_    0.805805 0.453977 0.072479 0.091520
O1    O     O_R   0.214130 0.708570 0.829890 -0.534394
O2    O     O_R   0.785870 0.708570 0.170110 -0.535099
O3    O     O_R   0.714130 0.208570 0.829890 -0.534393
O4    O     O_R   0.285870 0.208570 0.170110 -0.535097
O5    O     O_R   0.446360 0.919990 0.675230 -0.509471
O6    O     O_R   0.553640 0.919990 0.324770 -0.510262
O7    O     O_R   0.946360 0.419990 0.675230 -0.509470
O8    O     O_R   0.053640 0.419990 0.324770 -0.510266
O9    O     O_R   0.457170 0.717300 0.668380 -0.534006
O10   O     O_R   0.542830 0.717300 0.331620 -0.534652
O11   O     O_R   0.957170 0.217300 0.668380 -0.534005
O12   O     O_R   0.042830 0.217300 0.331620 -0.534650
O13   O     O_R   0.320870 0.624890 0.673130 -0.516077
O14   O     O_R   0.679130 0.624890 0.326870 -0.516932
O15   O     O_R   0.820870 0.124890 0.673130 -0.516077
O16   O     O_R   0.179130 0.124890 0.326870 -0.516933
O17   O     O_3   0.334430 0.834430 0.749680 -0.278608
O18   O     O_3   0.665570 0.834430 0.250320 -0.278512
O19   O     O_3   0.834430 0.334430 0.749680 -0.278604
O20   O     O_3   0.165570 0.334430 0.250320 -0.278515
O21   O     O_R   0.236050 0.959150 0.825270 -0.514069
O22   O     O_R   0.763950 0.959150 0.174730 -0.513836
O23   O     O_R   0.736050 0.459150 0.825270 -0.514068
O24   O     O_R   0.263950 0.459150 0.174730 -0.513835
O25   O     O_R   0.332100 0.076650 0.832310 -0.541037
O26   O     O_R   0.667900 0.076650 0.167690 -0.539977
O27   O     O_R   0.832100 0.576650 0.832310 -0.541035
O28   O     O_R   0.167900 0.576650 0.167690 -0.539960
O29   O     O_R   0.446500 0.918620 0.826240 -0.523909
O30   O     O_R   0.553500 0.918620 0.173760 -0.524367
O31   O     O_R   0.946500 0.418620 0.826240 -0.523911
O32   O     O_R   0.053500 0.418620 0.173760 -0.524358
O33   O     O_R   0.457310 0.715830 0.831280 -0.524929
O34   O     O_R   0.542690 0.715830 0.168720 -0.525294
O35   O     O_R   0.957310 0.215830 0.831280 -0.524926
O36   O     O_R   0.042690 0.215830 0.168720 -0.525295
O37   O     O_R   0.321000 0.623520 0.824130 -0.524898
O38   O     O_R   0.679000 0.623520 0.175870 -0.525143
O39   O     O_R   0.821000 0.123520 0.824130 -0.524920
O40   O     O_R   0.179000 0.123520 0.175870 -0.525144
O41   O     O_R   0.213990 0.710040 0.667000 -0.558019
O42   O     O_R   0.786010 0.710040 0.333000 -0.546794
O43   O     O_R   0.713990 0.210040 0.667000 -0.558014
O44   O     O_R   0.286010 0.210040 0.333000 -0.546796
O45   O     O_R   0.235920 0.960520 0.674260 -0.514891
O46   O     O_R   0.764080 0.960520 0.325740 -0.522700
O47   O     O_R   0.735920 0.460520 0.674260 -0.514891
O48   O     O_R   0.264080 0.460520 0.325740 -0.522700
O49   O     O_R   0.331960 0.078120 0.669410 -0.547271
O50   O     O_R   0.668040 0.078120 0.330590 -0.545940
O51   O     O_R   0.831960 0.578120 0.669410 -0.547233
O52   O     O_R   0.168040 0.578120 0.330590 -0.545949
C121  C     C_3   0.601663 0.116009 0.044215 -0.216775
C122  C     C_3   0.597414 0.239855 0.075505 -0.290955
C123  C     C_3   0.524730 0.269111 0.102150 -0.469238
H121  H     H_    0.487062 0.268797 0.058320 0.148512
H122  H     H_    0.507878 0.206418 0.143788 0.152949
H123  H     H_    0.524703 0.357013 0.125999 0.137907
H124  H     H_    0.629297 0.250974 0.123134 0.192737
H125  H     H_    0.611773 0.304460 0.034398 0.136621
H126  H     H_    0.569707 0.120007 0.996138 0.111309
H127  H     H_    0.572347 0.060652 0.081358 0.193267
C124  C     C_3   0.398305 0.116144 0.955583 -0.216834
C125  C     C_3   0.402534 0.240127 0.924140 -0.291395
C126  C     C_3   0.475267 0.269744 0.897675 -0.468888
H128  H     H_    0.512807 0.269334 0.941622 0.148305
H129  H     H_    0.492259 0.207288 0.856185 0.155049
H130  H     H_    0.475322 0.357773 0.873737 0.138067
H131  H     H_    0.370705 0.251328 0.876426 0.192732
H132  H     H_    0.388140 0.304484 0.965143 0.136792
H133  H     H_    0.430398 0.119952 0.003551 0.111333
H134  H     H_    0.427459 0.060919 0.918414 0.193389
C127  C     C_3   0.101662 0.616035 0.044216 -0.216769
C128  C     C_3   0.097424 0.739867 0.075528 -0.290918
C129  C     C_3   0.024760 0.769077 0.102256 -0.469170
H135  H     H_    0.987017 0.768570 0.058489 0.148450
H136  H     H_    0.008009 0.706462 0.143989 0.152968
H137  H     H_    0.024722 0.857046 0.126016 0.137898
H138  H     H_    0.129346 0.750993 0.123127 0.192736
H139  H     H_    0.111739 0.804487 0.034412 0.136570
H140  H     H_    0.069714 0.620076 0.996131 0.111343
H141  H     H_    0.072335 0.560664 0.081342 0.193256
C130  C     C_3   0.898308 0.616116 0.955596 -0.216852
C131  C     C_3   0.902561 0.740094 0.924145 -0.291381
C132  C     C_3   0.975321 0.769718 0.897759 -0.468849
H142  H     H_    0.012759 0.769787 0.941806 0.148315
H143  H     H_    0.992482 0.706992 0.856494 0.155021
H144  H     H_    0.975334 0.857562 0.873559 0.138041
H145  H     H_    0.870771 0.751271 0.876398 0.192740
H146  H     H_    0.888122 0.804466 0.965122 0.136797
H147  H     H_    0.930396 0.619917 0.003566 0.111353
H148  H     H_    0.927454 0.560880 0.918430 0.193352
C133  C     C_3   0.115837 0.696412 0.578875 -0.258308
C134  C     C_3   0.051405 0.729738 0.536597 -0.337070
C135  C     C_3   0.993178 0.764663 0.587704 -0.460298
H149  H     H_    0.976022 0.688697 0.619644 0.167382
H150  H     H_    0.010202 0.834291 0.624351 0.140557
H151  H     H_    0.948971 0.798888 0.557533 0.128074
H152  H     H_    0.063409 0.803974 0.500741 0.152594
H153  H     H_    0.033796 0.656118 0.504213 0.152291
H154  H     H_    0.104837 0.622927 0.615167 0.160255
H155  H     H_    0.123129 0.775208 0.611760 0.196973
C136  C     C_3   0.887324 0.664533 0.419698 -0.244056
C137  C     C_3   0.914375 0.785067 0.396757 -0.287647
C138  C     C_3   0.978678 0.774610 0.349705 -0.447601
H156  H     H_    0.019557 0.725160 0.377523 0.145384
H157  H     H_    0.965893 0.729966 0.299065 0.152741
H158  H     H_    0.998854 0.862207 0.336840 0.126854
H159  H     H_    0.875321 0.835278 0.367134 0.210528
H160  H     H_    0.927289 0.836970 0.444375 0.129172
H161  H     H_    0.928870 0.628368 0.452981 0.122785
H162  H     H_    0.883373 0.607534 0.372335 0.169884
C139  C     C_3   0.615835 0.196399 0.578879 -0.258311
C140  C     C_3   0.551402 0.229724 0.536601 -0.337078
C141  C     C_3   0.493174 0.264643 0.587708 -0.460290
H163  H     H_    0.476016 0.188673 0.619643 0.167394
H164  H     H_    0.510198 0.334265 0.624359 0.140555
H165  H     H_    0.448970 0.298875 0.557536 0.128082
H166  H     H_    0.563406 0.303962 0.500747 0.152594
H167  H     H_    0.533795 0.156105 0.504216 0.152290
H168  H     H_    0.604837 0.122913 0.615171 0.160253
H169  H     H_    0.623125 0.275195 0.611764 0.196972
C142  C     C_3   0.387323 0.164543 0.419701 -0.244057
C143  C     C_3   0.414372 0.285078 0.396762 -0.287649
C144  C     C_3   0.478677 0.274625 0.349711 -0.447598
H170  H     H_    0.519557 0.225181 0.377531 0.145377
H171  H     H_    0.465893 0.229976 0.299071 0.152756
H172  H     H_    0.498849 0.362225 0.336843 0.126854
H173  H     H_    0.375317 0.335287 0.367138 0.210529
H174  H     H_    0.427285 0.336981 0.444381 0.129171
H175  H     H_    0.428869 0.128377 0.452984 0.122786
H176  H     H_    0.383374 0.107544 0.372338 0.169884
C145  C     C_3   0.289373 0.408156 0.609605 -0.273904
C146  C     C_3   0.258638 0.382547 0.684402 -0.278516
C147  C     C_3   0.314744 0.353297 0.738164 -0.413326
H177  H     H_    0.346416 0.279680 0.719207 0.178232
H178  H     H_    0.349031 0.428834 0.746534 0.173945
H179  H     H_    0.290387 0.329892 0.789889 0.124805
H180  H     H_    0.228604 0.456818 0.705235 0.176966
H181  H     H_    0.222224 0.308711 0.681809 0.141918
H182  H     H_    0.298324 0.327421 0.583772 0.128547
H183  H     H_    0.341578 0.446325 0.613318 0.164260
C148  C     C_3   0.708027 0.405999 0.391754 -0.276168
C149  C     C_3   0.738208 0.381104 0.316584 -0.278215
C150  C     C_3   0.681552 0.354779 0.262874 -0.411538
H184  H     H_    0.649498 0.280989 0.281278 0.176167
H185  H     H_    0.647704 0.431140 0.255489 0.174031
H186  H     H_    0.705441 0.332817 0.210735 0.125055
H187  H     H_    0.769309 0.454393 0.295900 0.172193
H188  H     H_    0.773648 0.306017 0.318364 0.143431
H189  H     H_    0.697560 0.324265 0.416109 0.128887
H190  H     H_    0.656338 0.445976 0.388011 0.162673
C151  C     C_3   0.789400 0.908160 0.609589 -0.273901
C152  C     C_3   0.758681 0.882504 0.684386 -0.278516
C153  C     C_3   0.814805 0.853235 0.738126 -0.413326
H191  H     H_    0.846556 0.779771 0.719083 0.178152
H192  H     H_    0.849013 0.928842 0.746596 0.173930
H193  H     H_    0.790461 0.829589 0.789817 0.124892
H194  H     H_    0.728645 0.956758 0.705241 0.176941
H195  H     H_    0.722274 0.808659 0.681787 0.141939
H196  H     H_    0.798365 0.827441 0.583742 0.128529
H197  H     H_    0.841599 0.946350 0.613305 0.164273
C154  C     C_3   0.208041 0.905998 0.391749 -0.276174
C155  C     C_3   0.238228 0.881113 0.316581 -0.278222
C156  C     C_3   0.181579 0.854784 0.262866 -0.411546
H198  H     H_    0.149531 0.780981 0.281261 0.176183
H199  H     H_    0.147723 0.931136 0.255485 0.174039
H200  H     H_    0.205473 0.832839 0.210727 0.125042
H201  H     H_    0.269327 0.954407 0.295901 0.172196
H202  H     H_    0.273672 0.806031 0.318362 0.143427
H203  H     H_    0.197578 0.824261 0.416101 0.128893
H204  H     H_    0.156349 0.945967 0.388005 0.162674

loop_
_geom_bond_atom_site_label_1
_geom_bond_atom_site_label_2
_ccdc_geom_bond_type
C90   O38   A    
C138  H156  S    
C82   C94   S    
C55   C59   S    
C146  H180  S    
C73   C93   S    
C147  H179  S    
C42   C58   S    
C29   C89   S    
C132  H142  S    
C48   O32   A    
C75   C95   S    
C48   C120  S    
C24   H8    S    
C57   C102  S    
Cr6   O26   S    
C91   O39   A    
C59   C104  S    
Cr8   O8    S    
Cr2   O22   S    
C5    C6    S    
Cr10  O18   S    
C109  H41   S    
Cr11  O15   S    
C22   C38   S    
C29   C33   S    
C154  H204  S    
C30   C38   S    
C77   C100  S    
C153  H193  S    
C9    C13   S    
C144  H172  S    
C75   H75   S    
C145  H183  S    
C12   C16   S    
Cr2   O46   S    
C101  O5    A    
C95   H87   S    
C102  O10   A    
C12   H100  S    
C128  C129  S    
C21   H5    S    
C60   C103  S    
C125  H132  S    
C113  H1    S    
C61   H57   S    
C54   H37   S    
C23   H11   S    
C66   H62   S    
Cr6   O18   S    
C109  C118  S    
C15   H111  S    
C11   H103  S    
C148  H190  S    
C50   C53   S    
Cr6   O6    S    
C139  H168  S    
C46   O34   A    
C7    C119  S    
C62   H58   S    
C149  H188  S    
C30   C34   S    
C13   H105  S    
C20   C28   S    
C96   H88   S    
C121  H127  S    
C54   H46   S    
C133  H154  S    
C125  C126  S    
C100  O52   A    
C126  H130  S    
C43   C44   S    
C1    O25   A    
C2    O22   A    
C3    O27   A    
C136  C137  S    
C11   C27   S    
C5    H81   S    
C122  C123  S    
C58   C101  S    
C53   H38   S    
C138  H158  S    
C56   H39   S    
C4    O28   A    
C147  H177  S    
C55   H40   S    
C132  H144  S    
C11   H99   S    
C67   C139  S    
C3    C26   S    
Cr3   O47   S    
C84   C88   S    
C131  C132  S    
C8    H84   S    
C53   H45   S    
Cr12  O20   S    
C142  C143  S    
Cr1   O1    S    
Cr11  O39   S    
C17   C25   S    
C155  C156  S    
C150  H185  S    
C19   C35   S    
C139  C140  S    
C76   C96   S    
C32   C92   S    
C91   O3    A    
Cr9   O33   S    
C141  H165  S    
C143  H174  S    
C98   O50   A    
C99   O47   A    
C22   C26   S    
C130  C131  S    
C61   C65   S    
C140  H167  S    
C5    C117  S    
C78   C99   S    
C73   C77   S    
C104  O12   A    
C88   H70   S    
C151  C152  S    
C75   C79   S    
C140  H166  S    
C76   H76   S    
C67   C83   S    
C15   H107  S    
C80   C97   S    
Cr1   O41   S    
C69   C77   S    
C111  C112  S    
Cr10  O34   S    
Cr3   O43   S    
C130  H147  S    
C4    C25   S    
C45   O33   A    
C134  H152  S    
C148  H189  S    
C137  H159  S    
C32   C36   S    
C73   H77   S    
C35   H23   S    
C43   H27   S    
C33   H21   S    
C135  H150  S    
C105  O13   A    
C39   H19   S    
C10   H98   S    
C49   C57   S    
C40   H20   S    
C93   H85   S    
C108  O16   A    
C38   H14   S    
C131  H146  S    
C52   C60   S    
C14   H110  S    
C61   C77   S    
C155  H202  S    
C110  C114  S    
C43   C59   S    
C62   H54   S    
Cr5   O49   S    
C76   H80   S    
C90   O2    A    
Cr7   O19   S    
Cr8   O20   S    
C92   O40   A    
C127  H141  S    
C11   C15   S    
C156  H199  S    
Cr3   O23   S    
C51   C59   S    
Cr11  O11   S    
C110  H42   S    
C81   C105  S    
C62   C66   S    
C10   C14   S    
C129  H136  S    
Cr2   O18   S    
C95   H91   S    
C116  C120  S    
C20   C36   S    
C7    C116  S    
C124  H134  S    
C36   H118  S    
C22   H10   S    
C61   H53   S    
C114  H2    S    
Cr11  O19   S    
C64   H56   S    
C47   O31   A    
C113  C117  S    
C16   H112  S    
C89   O37   A    
C112  H44   S    
Cr5   O29   S    
C31   C91   S    
C68   C142  S    
C128  H139  S    
C46   O30   A    
Cr7   O7    S    
Cr8   O32   S    
Cr1   O17   S    
C112  C116  S    
C69   C85   S    
C56   H48   S    
C88   C154  S    
Cr3   O19   S    
C21   C25   S    
Cr4   O20   S    
C85   C145  S    
C55   H47   S    
C62   C78   S    
C146  H181  S    
C76   C80   S    
C147  H178  S    
C2    O26   A    
C42   H30   S    
C3    O23   A    
C16   C32   S    
C63   H55   S    
C122  H124  S    
C123  H123  S    
C72   C80   S    
C150  H184  S    
C135  H151  S    
C115  H3    S    
C154  H203  S    
C153  H192  S    
C144  H171  S    
C145  H182  S    
C16   H108  S    
C94   H90   S    
C152  H195  S    
Cr7   O27   S    
Cr4   O44   S    
Cr8   O28   S    
C81   C85   S    
C98   O46   A    
C66   C136  S    
C83   C87   S    
C41   H29   S    
C41   C42   S    
C19   C121  S    
C18   C26   S    
C30   C90   S    
C9    C25   S    
C136  H162  S    
C75   H79   S    
C12   C28   S    
C13   C29   S    
C105  O41   A    
C71   H95   S    
C54   C58   S    
C107  O43   A    
C17   H115  S    
C45   C117  S    
C121  H126  S    
C46   C118  S    
C104  O8    A    
C126  H129  S    
C140  C141  S    
C73   H73   S    
C64   H60   S    
C51   H35   S    
C50   H34   S    
C1    C28   S    
Cr1   O45   S    
C2    C27   S    
Cr2   O42   S    
C102  O6    A    
Cr3   O3    S    
Cr4   O48   S    
C52   C55   S    
Cr12  O12   S    
C142  H176  S    
C124  C125  S    
C138  H157  S    
C64   C80   S    
C42   H26   S    
C17   C33   S    
Cr9   O9    S    
C110  C117  S    
C71   C79   S    
C132  H143  S    
C139  H169  S    
C65   H61   S    
C34   H22   S    
C10   H102  S    
C106  O14   A    
C40   H16   S    
C123  H121  S    
C68   C84   S    
C24   C28   S    
C7    C8    S    
C97   O45   A    
C149  C150  S    
C51   H52   S    
C87   C151  S    
C150  H186  S    
C135  H149  S    
C14   H106  S    
C53   C57   S    
C143  H173  S    
C82   C86   S    
C9    H101  S    
C15   C31   S    
C56   C60   S    
C115  C119  S    
C20   H114  S    
C50   C58   S    
C17   C127  S    
C111  C115  S    
C65   C81   S    
C6    H82   S    
C38   H18   S    
C68   H64   S    
C24   H12   S    
C65   C133  S    
Cr10  O10   S    
C41   H25   S    
C92   O4    A    
C125  H131  S    
C152  H194  S    
C44   H28   S    
C31   C35   S    
C64   C68   S    
Cr9   O13   S    
C36   H24   S    
C145  C146  S    
C103  O7    A    
C37   H17   S    
C69   H93   S    
C149  H187  S    
Cr2   O2    S    
C112  C119  S    
C148  C149  S    
C134  H153  S    
C116  H4    S    
C151  H196  S    
C22   H6    S    
C137  H160  S    
C133  H155  S    
C146  C147  S    
C41   C57   S    
C129  H135  S    
C47   O35   A    
C109  C110  S    
C48   O36   A    
Cr5   O25   S    
C44   C60   S    
C63   H59   S    
Cr6   O30   S    
C84   C108  S    
C127  C128  S    
Cr1   O21   S    
C85   H71   S    
C72   H66   S    
Cr10  O14   S    
C18   H116  S    
C21   C37   S    
C121  C122  S    
C72   H96   S    
C29   C37   S    
C74   C94   S    
C152  C153  S    
C44   H32   S    
C87   H69   S    
C7    H83   S    
C43   H31   S    
C101  O9    A    
C5    C114  S    
C70   C78   S    
C79   C98   S    
C127  H140  S    
C141  H163  S    
C52   H51   S    
C94   H86   S    
Cr4   O4    S    
C156  H198  S    
C108  O44   A    
C63   C79   S    
C20   C124  S    
C49   H33   S    
C86   C148  S    
C74   H78   S    
C111  H43   S    
C23   H7    S    
Cr7   O51   S    
Cr8   O52   S    
C66   C82   S    
C49   C54   S    
Cr5   O5    S    
C35   H117  S    
C9    H97   S    
C51   C56   S    
C84   C96   S    
Cr7   O31   S    
C33   H119  S    
C8    C115  S    
C124  H133  S    
C13   H109  S    
C31   C39   S    
C96   H92   S    
Cr6   O50   S    
C153  H191  S    
Cr12  O40   S    
C23   C27   S    
C100  O48   A    
C19   C27   S    
C151  H197  S    
C74   C78   S    
C109  C113  S    
C10   C26   S    
C82   C106  S    
Cr9   O37   S    
C89   O1    A    
C14   C30   S    
C67   H63   S    
C106  O42   A    
C130  H148  S    
C72   C88   S    
C71   H65   S    
C63   C67   S    
C70   H94   S    
C45   O29   A    
C4    O24   A    
C141  H164  S    
C122  H125  S    
Cr5   O17   S    
C111  C120  S    
C123  H122  S    
C6    C113  S    
C131  H145  S    
Cr12  O16   S    
C81   C93   S    
C154  C155  S    
C83   C95   S    
Cr10  O38   S    
C70   H68   S    
C155  H201  S    
C18   C34   S    
C144  H170  S    
C114  C118  S    
C107  O15   A    
C71   C87   S    
C50   H49   S    
C97   O49   A    
C70   C86   S    
C86   H72   S    
C156  H200  S    
C99   O51   A    
C143  C144  S    
C19   H113  S    
C74   H74   S    
C12   H104  S    
C8    C120  S    
C1    O21   A    
C18   C130  S    
C129  H137  S    
C93   H89   S    
C136  H161  S    
C52   H36   S    
Cr11  O35   S    
Cr4   O24   S    
C134  C135  S    
Cr12  O36   S    
C23   C39   S    
C47   C119  S    
C137  C138  S    
C24   C40   S    
C83   C107  S    
C32   C40   S    
C126  H128  S    
Cr9   O17   S    
C49   H50   S    
C21   H9    S    
C39   H15   S    
C128  H138  S    
C69   H67   S    
C103  O11   A    
C34   H120  S    
C37   H13   S    
C133  C134  S    
C6    C118  S    
C142  H175  S    
