data_mof_unit_25295.cif
_audit_creation_date              2012-12-11T15:39:33-0500
_audit_creation_method            fapswitch 2.2
_symmetry_space_group_name_H-M    P1
_symmetry_Int_Tables_number       1
_space_group_crystal_system       triclinic
_cell_length_a                    17.283565
_cell_length_b                    24.240017
_cell_length_c                    14.968357
_cell_angle_alpha                 89.8721
_cell_angle_beta                  124.87744
_cell_angle_gamma                 90.287406
_cell_volume                      5144.56087602

loop_
_atom_site_label
_atom_site_type_symbol
_atom_type_description
_atom_site_fract_x
_atom_site_fract_y
_atom_site_fract_z
_atom_type_partial_charge
C1    C     C_R   0.350594 0.347570 0.914343 -0.086298
C2    C     C_R   0.532530 0.499349 0.705249 0.022725
C3    C     C_R   0.119525 0.816637 0.991579 0.082777
C4    C     C_3   0.502240 0.232772 0.789305 -0.279683
C5    C     C_3   0.424239 0.233808 0.807778 -0.900442
C6    C     C_3   0.457014 0.244861 0.221850 -0.325145
C7    C     C_3   0.558203 0.243391 0.253225 -0.811964
C8    C     C_3   0.045119 0.748524 0.774265 -0.321642
C9    C     C_3   0.942219 0.742516 0.735886 -0.833083
C10   C     C_3   0.959573 0.747448 0.227358 -0.336054
C11   C     C_3   0.062178 0.742635 0.264402 -0.791500
C12   C     C_3   0.282388 0.644251 0.195958 -0.317264
C13   C     C_R   0.966044 0.998995 0.293125 0.020296
C14   C     C_3   0.206117 0.622978 0.209088 -0.836488
C15   C     C_3   0.718056 0.643397 0.806857 -0.352320
C16   C     C_3   0.793841 0.623307 0.792087 -0.838458
C17   C     C_3   0.792880 0.147882 0.195560 -0.359674
C18   C     C_3   0.717333 0.127538 0.211127 -0.830179
C19   C     C_3   0.222380 0.144193 0.798245 -0.311306
C20   C     C_3   0.222476 0.081617 0.812713 -0.821543
C21   C     C_R   0.931004 0.999028 0.632957 0.016697
C22   C     C_R   0.173495 0.501197 0.689211 -0.033551
C23   C     C_R   0.796225 0.502067 0.369138 -0.024276
C24   C     C_R   0.673458 0.001237 0.692817 -0.031227
C25   C     C_R   0.296290 0.002083 0.368700 -0.030249
C26   C     C_R   0.027397 0.554778 0.583608 0.273176
C27   C     C_R   0.931453 0.556574 0.510197 0.129162
C28   C     C_R   0.528318 0.054613 0.581751 0.266710
C29   C     C_R   0.645302 0.346892 0.086493 -0.069761
C30   C     C_R   0.432778 0.056260 0.506419 0.118359
C31   C     C_R   0.072114 0.505038 0.631921 0.066046
C32   C     C_R   0.878437 0.507810 0.481168 0.028316
C33   C     C_R   0.572150 0.005319 0.633873 0.073290
C34   C     C_R   0.379142 0.007954 0.479869 0.036620
C35   C     C_R   0.016915 0.461252 0.628693 -0.113758
C36   C     C_R   0.918984 0.462774 0.552952 -0.131418
C37   C     C_R   0.516165 0.962198 0.631090 -0.115516
C38   C     C_R   0.418539 0.963599 0.553497 -0.129402
C39   C     C_3   0.940223 0.597943 0.441781 -0.459624
C40   C     C_R   0.854650 0.846334 0.915138 -0.061599
C41   C     C_3   0.045401 0.596231 0.523605 -0.479756
C42   C     C_3   0.443223 0.094905 0.435519 -0.451597
C43   C     C_3   0.548090 0.093462 0.519471 -0.485418
C44   C     C_R   0.152803 0.676111 0.901677 0.362040
C45   C     C_R   0.850908 0.674905 0.100657 0.360092
C46   C     C_R   0.652038 0.177661 0.903074 0.351951
C47   C     C_R   0.350527 0.171745 0.093593 0.342776
C48   C     C_R   0.598638 0.223546 0.895300 0.095144
C49   C     C_R   0.386761 0.225299 0.105958 0.101579
C50   C     C_R   0.112492 0.727867 0.889985 0.109210
C51   C     C_R   0.148981 0.847600 0.085534 -0.075135
C52   C     C_R   0.891377 0.726780 0.111685 0.108378
C53   C     C_R   0.636802 0.256638 0.991484 0.004344
C54   C     C_R   0.351641 0.257730 0.009395 0.019016
C55   C     C_R   0.141466 0.757685 0.987509 -0.006981
C56   C     C_R   0.861745 0.756555 0.013817 -0.010287
C57   C     C_R   0.406016 0.628578 0.093744 0.419373
C58   C     C_R   0.595439 0.630710 0.909515 0.391184
C59   C     C_R   0.910172 0.134790 0.091685 0.380333
C60   C     C_R   0.095319 0.127628 0.906919 0.443619
C61   C     C_R   0.703124 0.231969 0.092242 -0.223481
C62   C     C_R   0.314429 0.638974 0.004497 -0.035024
C63   C     C_R   0.292310 0.230724 0.907825 -0.296300
C64   C     C_R   0.195759 0.729046 0.087460 -0.231239
C65   C     C_R   0.805629 0.728111 0.914019 -0.218644
C66   C     C_R   0.240245 0.679618 0.095032 0.236303
C67   C     C_R   0.761446 0.678581 0.907569 0.255010
C68   C     C_R   0.749427 0.184549 0.096718 0.251935
C69   C     C_R   0.256525 0.177939 0.900348 0.235939
C70   C     C_R   0.233649 0.661545 0.002059 -0.037625
C71   C     C_R   0.769680 0.659922 0.001136 -0.035312
C72   C     C_R   0.739696 0.168302 0.001241 -0.046264
C73   C     C_R   0.689014 0.636926 0.999078 -0.026217
C74   C     C_R   0.269363 0.155977 0.994636 0.022438
C75   C     C_R   0.582161 0.549894 0.603622 -0.177145
C76   C     C_R   0.598244 0.550021 0.524033 -0.169093
C77   C     C_R   0.903772 0.049599 0.476747 -0.166722
C78   C     C_R   0.918799 0.049423 0.396391 -0.182956
C79   C     C_R   0.600884 0.499881 0.480022 0.140717
C80   C     C_R   0.574132 0.499841 0.644274 0.149758
C81   C     C_R   0.925219 0.999387 0.354852 0.151602
C82   C     C_R   0.900355 0.999515 0.520598 0.144263
C83   C     C_R   0.610447 0.450343 0.533745 -0.147898
C84   C     C_R   0.819530 0.146275 0.001976 -0.004956
C85   C     C_R   0.597408 0.450371 0.616752 -0.151416
C86   C     C_R   0.901996 0.949894 0.382995 -0.153197
C87   C     C_R   0.889944 0.949904 0.466782 -0.139817
C88   C     C_R   0.549012 0.453582 0.302659 -0.099541
C89   C     C_R   0.510111 0.453338 0.740873 -0.078840
C90   C     C_R   0.989162 0.953076 0.258465 -0.075974
C91   C     C_R   0.951121 0.953490 0.697607 -0.098025
C92   C     C_R   0.232375 0.546345 0.725501 -0.150332
C93   C     C_R   0.748617 0.546517 0.303885 -0.226010
C94   C     C_R   0.732163 0.046409 0.728462 -0.153827
C95   C     C_R   0.188862 0.134758 0.995455 -0.037800
C96   C     C_R   0.248779 0.046571 0.303615 -0.208478
C97   C     C_R   0.553926 0.545035 0.304851 -0.094594
C98   C     C_R   0.503606 0.545308 0.733424 -0.153929
C99   C     C_R   0.994639 0.045181 0.264501 -0.153330
C100  C     C_R   0.946170 0.044955 0.695097 -0.099339
C101  C     C_R   0.229694 0.454466 0.726959 0.445396
C102  C     C_R   0.752500 0.455272 0.305646 0.481808
C103  C     C_R   0.729537 0.954464 0.729160 0.442533
C104  C     C_R   0.252373 0.955257 0.305602 0.479946
C105  C     C_R   0.313495 0.627744 0.912457 -0.095809
C106  C     C_R   0.569461 0.499185 0.367312 0.013065
C107  C     C_R   0.690967 0.622300 0.090488 -0.105555
C108  C     C_R   0.817148 0.132269 0.910728 -0.076084
C109  C     C_R   0.191435 0.121211 0.088413 -0.126350
C110  C     C_R   0.438916 0.350637 0.094634 -0.144079
C111  C     C_R   0.557235 0.349316 0.906165 -0.147910
C112  C     C_R   0.944499 0.849314 0.094960 -0.166671
C113  C     C_R   0.057130 0.849966 0.905004 -0.150191
C114  C     C_R   0.376001 0.317051 0.007472 0.086139
C115  C     C_R   0.615050 0.315438 0.993569 0.074319
C116  C     C_R   0.883500 0.815514 0.008948 0.085656
Cl1   Cl    Cl    0.094307 0.625268 0.798879 -0.745008
Cl2   Cl    Cl    0.764971 0.387195 0.351698 -0.737466
Cl3   Cl    Cl    0.692637 0.888386 0.671980 -0.688598
Cl4   Cl    Cl    0.264208 0.887317 0.352119 -0.721023
Cl5   Cl    Cl    0.914624 0.622908 0.198305 -0.723263
Cl6   Cl    Cl    0.603962 0.125483 0.802233 -0.755300
Cl7   Cl    Cl    0.415808 0.119921 0.191210 -0.724538
Cl8   Cl    Cl    0.467424 0.667220 0.214884 -0.713176
Cl9   Cl    Cl    0.537314 0.679459 0.803326 -0.684642
Cl10  Cl    Cl    0.976482 0.180901 0.201584 -0.680828
Cl11  Cl    Cl    0.035545 0.167169 0.787296 -0.705525
Cl12  Cl    Cl    0.193884 0.388872 0.666992 -0.681319
H1    H     H_    0.317424 0.331134 0.833908 0.165408
H2    H     H_    0.083423 0.578781 0.490309 0.220521
H3    H     H_    0.411864 0.136079 0.427770 0.201101
H4    H     H_    0.587341 0.073934 0.489508 0.217321
H5    H     H_    0.719807 0.248628 0.168157 0.154874
H6    H     H_    0.273342 0.249539 0.832630 0.167057
H7    H     H_    0.206007 0.744961 0.160819 0.150367
H8    H     H_    0.793435 0.744221 0.839744 0.150679
H9    H     H_    0.567816 0.589124 0.624703 0.136840
H10   H     H_    0.595705 0.589420 0.488657 0.144329
H11   H     H_    0.907457 0.089008 0.512531 0.144726
H12   H     H_    0.680009 0.331482 0.167962 0.163575
H13   H     H_    0.933424 0.088691 0.375300 0.136742
H14   H     H_    0.618074 0.411175 0.505179 0.124819
H15   H     H_    0.597302 0.411259 0.651501 0.114669
H16   H     H_    0.901325 0.910791 0.347957 0.112574
H17   H     H_    0.882034 0.910742 0.495521 0.119456
H18   H     H_    0.564010 0.410974 0.328111 0.118507
H19   H     H_    0.518689 0.410571 0.729033 0.089362
H20   H     H_    0.980519 0.910182 0.270336 0.093299
H21   H     H_    0.936426 0.910781 0.672533 0.101328
H22   H     H_    0.213451 0.588411 0.700761 0.139107
H23   H     H_    0.822385 0.829582 0.834906 0.156635
H24   H     H_    0.753287 0.588639 0.330269 0.142596
H25   H     H_    0.712625 0.088522 0.705170 0.145526
H26   H     H_    0.254301 0.088836 0.329770 0.148792
H27   H     H_    0.580190 0.585948 0.335108 0.162277
H28   H     H_    0.500798 0.586916 0.708356 0.167989
H29   H     H_    0.995710 0.086932 0.287453 0.163971
H30   H     H_    0.920533 0.085872 0.664845 0.164613
H31   H     H_    0.260169 0.640468 0.831153 0.154651
H32   H     H_    0.749708 0.625045 0.174693 0.165350
H33   H     H_    0.766014 0.145816 0.829102 0.153083
H34   H     H_    0.187891 0.832199 0.167424 0.166536
H35   H     H_    0.251350 0.123582 0.172114 0.168859
H36   H     H_    0.486267 0.341144 0.178944 0.136585
H37   H     H_    0.511125 0.339136 0.822182 0.123016
H38   H     H_    0.996845 0.838759 0.177593 0.146376
H39   H     H_    0.005987 0.839626 0.821788 0.133133
H40   H     H_    0.048812 0.424645 0.677698 0.187566
H41   H     H_    0.878209 0.427066 0.545169 0.203774
H42   H     H_    0.547439 0.926079 0.681944 0.189810
H43   H     H_    0.377121 0.928280 0.546046 0.205754
H44   H     H_    0.421040 0.193334 0.840417 0.273787
H45   H     H_    0.918044 0.580337 0.362352 0.265612
H46   H     H_    0.437210 0.266106 0.866846 0.255204
H47   H     H_    0.355314 0.241759 0.729586 0.262924
H48   H     H_    0.502401 0.268869 0.744600 0.157028
H49   H     H_    0.481928 0.199617 0.729105 0.246999
H50   H     H_    0.582889 0.200053 0.267425 0.281849
H51   H     H_    0.563492 0.260892 0.188275 0.242196
H52   H     H_    0.605238 0.267082 0.329576 0.257523
H53   H     H_    0.435532 0.284898 0.236124 0.158656
H54   H     H_    0.454940 0.218256 0.280968 0.229802
H55   H     H_    0.920783 0.698457 0.718762 0.284647
H56   H     H_    0.074325 0.635669 0.569093 0.212724
H57   H     H_    0.931584 0.757218 0.798337 0.240791
H58   H     H_    0.896093 0.766425 0.659771 0.249692
H59   H     H_    0.064986 0.790301 0.764208 0.159501
H60   H     H_    0.052703 0.724793 0.716322 0.224476
H61   H     H_    0.084701 0.698919 0.283202 0.281288
H62   H     H_    0.071541 0.757006 0.200628 0.239042
H63   H     H_    0.108342 0.767468 0.339372 0.260295
H64   H     H_    0.939705 0.788936 0.238078 0.155669
H65   H     H_    0.952948 0.722972 0.285562 0.226881
H66   H     H_    0.170832 0.657786 0.219910 0.259003
H67   H     H_    0.422168 0.075078 0.358052 0.263170
H68   H     H_    0.238515 0.596033 0.282012 0.261401
H69   H     H_    0.152626 0.598631 0.136351 0.276286
H70   H     H_    0.317855 0.607488 0.191086 0.210841
H71   H     H_    0.334897 0.668646 0.269187 0.243628
H72   H     H_    0.827613 0.658657 0.779534 0.256459
H73   H     H_    0.762067 0.596005 0.719934 0.260022
H74   H     H_    0.848651 0.599694 0.864892 0.278230
H75   H     H_    0.683875 0.606372 0.813804 0.193900
H76   H     H_    0.664347 0.667566 0.734303 0.234523
H77   H     H_    0.687617 0.162569 0.229533 0.255720
H78   H     H_    0.576711 0.133727 0.561594 0.213782
H79   H     H_    0.747896 0.098167 0.279902 0.261147
H80   H     H_    0.659604 0.106222 0.136389 0.277432
H81   H     H_    0.824396 0.110830 0.185387 0.192465
H82   H     H_    0.848355 0.170950 0.269093 0.235563
H83   H     H_    0.292201 0.067870 0.884027 0.270312
H84   H     H_    0.208611 0.060684 0.738924 0.250724
H85   H     H_    0.166553 0.068604 0.822988 0.258254
H86   H     H_    0.152307 0.158209 0.728817 0.248795
H87   H     H_    0.271047 0.152196 0.773617 0.182753
H88   H     H_    0.908927 0.638508 0.438473 0.201156
N1    N     N_R   0.394180 0.396910 0.943210 -0.050299
N2    N     N_R   0.474350 0.471570 0.793850 -0.043162
N3    N     N_R   0.025650 0.971570 0.206150 -0.043915
N4    N     N_R   0.974350 0.971570 0.793850 -0.048815
N5    N     N_R   0.319480 0.528420 0.793810 -0.066923
N6    N     N_R   0.680520 0.528420 0.206190 -0.060011
N7    N     N_R   0.819480 0.028420 0.793810 -0.068864
N8    N     N_R   0.180520 0.028420 0.206190 -0.061779
N9    N     N_R   0.525640 0.528390 0.206120 -0.052255
N10   N     N_R   0.474360 0.528390 0.793880 -0.043247
N11   N     N_R   0.025640 0.028390 0.206120 -0.042689
N12   N     N_R   0.605820 0.396910 0.056790 -0.042935
N13   N     N_R   0.974360 0.028390 0.793880 -0.054836
N14   N     N_R   0.319490 0.471590 0.793840 -0.085763
N15   N     N_R   0.680510 0.471590 0.206160 -0.079735
N16   N     N_R   0.819490 0.971590 0.793840 -0.085609
N17   N     N_R   0.180510 0.971590 0.206160 -0.082601
N18   N     N_R   0.394130 0.603080 0.943110 -0.064401
N19   N     N_R   0.605870 0.603080 0.056890 -0.062226
N20   N     N_R   0.894130 0.103080 0.943110 -0.067113
N21   N     N_R   0.105870 0.103080 0.056890 -0.059489
N22   N     N_R   0.450990 0.396900 0.056840 -0.049321
N23   N     N_R   0.894180 0.896910 0.943210 -0.050491
N24   N     N_R   0.549010 0.396900 0.943160 -0.050420
N25   N     N_R   0.950990 0.896900 0.056840 -0.049186
N26   N     N_R   0.049010 0.896900 0.943160 -0.049848
N27   N     N_R   0.105820 0.896910 0.056790 -0.043186
N28   N     N_R   0.450950 0.603070 0.056740 -0.075523
N29   N     N_R   0.549050 0.603070 0.943260 -0.070667
N30   N     N_R   0.950950 0.103070 0.056740 -0.073234
N31   N     N_R   0.049050 0.103070 0.943260 -0.079193
N32   N     N_R   0.525650 0.471570 0.206150 -0.049706
Ni1   Ni    Ni4+2 0.434860 0.434850 0.869700 0.244182
Ni2   Ni    Ni4+2 0.565140 0.434850 0.130300 0.239659
Ni3   Ni    Ni4+2 0.934860 0.934850 0.869700 0.231294
Ni4   Ni    Ni4+2 0.065140 0.934850 0.130300 0.249842
Ni5   Ni    Ni4+2 0.565130 0.565140 0.130240 0.248554
Ni6   Ni    Ni4+2 0.434870 0.565140 0.869760 0.265226
Ni7   Ni    Ni4+2 0.065130 0.065140 0.130240 0.263238
Ni8   Ni    Ni4+2 0.934870 0.065140 0.869760 0.248956

loop_
_geom_bond_atom_site_label_1
_geom_bond_atom_site_label_2
_ccdc_geom_bond_type
C17   H81   S    
C97   N9    A    
C108  N20   A    
C75   C76   A    
C46   Cl6   S    
C13   C90   A    
C45   C71   A    
C105  N18   A    
C35   C36   A    
C78   C81   A    
C76   C79   A    
C4    H49   S    
C39   H45   S    
C10   C52   S    
C85   H15   S    
C107  H32   S    
C61   H5    S    
C57   C62   A    
C47   C49   A    
C62   C105  A    
C66   C70   A    
C77   C78   A    
C8    H60   S    
C59   Cl10  S    
N21   N31   A    
C26   C27   A    
C37   C38   A    
C22   C101  A    
C4    H48   S    
C39   H88   S    
C6    H54   S    
C18   H77   S    
N26   Ni3   S    
C32   C36   A    
C100  N13   A    
C1    N1    A    
N12   N24   A    
C40   N23   A    
C1    H1    S    
C82   C87   A    
C21   C91   A    
C41   H2    S    
C101  N14   A    
C73   C107  A    
C23   C102  A    
C54   C63   A    
C14   H68   S    
C15   C16   S    
C13   C81   S    
C101  Cl12  S    
C62   C70   S    
C51   H34   S    
C18   H80   S    
C5    H46   S    
C20   H83   S    
C91   N4    A    
C79   C106  S    
C90   H20   S    
C89   N2    A    
C53   C61   A    
N7    Ni8   S    
C12   H71   S    
C96   H26   S    
C63   C69   A    
C27   C39   S    
C8    C9    S    
C65   C67   A    
C11   H63   S    
N5    N14   A    
C67   C71   A    
C41   H56   S    
C44   C70   A    
C93   N6    A    
C111  H37   S    
N14   Ni1   S    
C75   C80   A    
N18   Ni6   S    
C46   C72   A    
C81   C86   A    
C16   H72   S    
C88   H18   S    
C25   C34   S    
N31   Ni8   S    
N9    N32   A    
C20   H84   S    
C29   C115  A    
C64   H7    S    
C15   C67   S    
N24   Ni1   S    
C22   C92   A    
N22   Ni2   S    
C43   H78   S    
C98   N10   A    
C5    H47   S    
C24   C103  A    
N25   Ni4   S    
N1    Ni1   S    
C16   H74   S    
C25   C96   A    
N32   Ni2   S    
C15   H76   S    
C92   H22   S    
N12   Ni2   S    
C60   Cl11  S    
C8    H59   S    
C56   C116  S    
C48   C53   A    
C14   H69   S    
C98   H28   S    
C22   C31   S    
C30   C34   A    
C6    H53   S    
N23   Ni3   S    
C63   H6    S    
N20   N30   A    
C38   H43   S    
C2    C80   S    
C59   C84   A    
N19   Ni5   S    
C39   C41   S    
C17   H82   S    
C95   C109  A    
C78   H13   S    
C37   H42   S    
C71   C73   S    
C21   C100  A    
C3    C51   A    
C86   C87   A    
N11   Ni7   S    
C45   C52   A    
C96   N8    A    
C12   C66   S    
C10   H64   S    
C23   C93   A    
C7    H50   S    
C18   H79   S    
C11   H61   S    
C64   C66   A    
C13   C99   A    
C2    C89   A    
N8    N17   A    
C60   C95   A    
C113  H39   S    
C80   C85   A    
C9    H55   S    
C24   C33   S    
C24   C94   A    
C88   N32   A    
C88   C106  A    
C56   C65   A    
C58   C73   A    
C47   Cl7   S    
N10   Ni6   S    
C68   C72   A    
C112  H38   S    
C55   C64   A    
C77   H11   S    
C35   H40   S    
C36   H41   S    
C7    H51   S    
C69   C74   A    
N23   N25   A    
N16   Ni3   S    
C72   C84   S    
N20   Ni8   S    
C2    C98   A    
C90   N3    A    
C42   H3    S    
C58   Cl9   S    
C27   C32   A    
C97   C106  A    
N4    N13   A    
C104  N17   A    
C83   C85   A    
N17   Ni4   S    
C12   C14   S    
N6    N15   A    
C9    H58   S    
C109  N21   A    
N28   Ni5   S    
C99   H29   S    
C3    C113  A    
C94   N7    A    
N2    Ni1   S    
C75   H9    S    
C10   H65   S    
C1    C114  A    
C16   H73   S    
C8    C50   S    
C110  C114  A    
C112  C116  A    
N13   Ni8   S    
N7    N16   A    
C91   H21   S    
C102  N15   A    
C4    C48   S    
N6    Ni5   S    
C44   C50   A    
C103  N16   A    
C89   H19   S    
C29   H12   S    
C107  N19   A    
N5    Ni6   S    
C112  N25   A    
C17   C68   S    
C110  H36   S    
N27   Ni4   S    
C87   H17   S    
N26   N27   A    
C3    C55   S    
C34   C38   A    
C74   C95   S    
N21   Ni7   S    
C58   N29   A    
C103  Cl3   S    
C50   C55   A    
C47   C74   A    
N19   N29   A    
C4    C5    S    
C102  Cl2   S    
C28   C33   A    
C83   H14   S    
C53   C115  S    
C110  N22   A    
C25   C104  A    
C6    C7    S    
C76   H10   S    
C57   N28   A    
C108  H33   S    
C28   C43   S    
C9    H57   S    
C111  N24   A    
C17   C18   S    
N3    Ni4   S    
C19   H86   S    
C45   Cl5   S    
C23   C32   S    
C11   H62   S    
C19   C20   S    
C28   C30   A    
N30   Ni7   S    
C20   H85   S    
C57   Cl8   S    
C109  H35   S    
C61   C68   A    
C92   N5    A    
C40   C116  A    
C52   C56   A    
C77   C82   A    
C94   H25   S    
C54   C114  S    
C31   C35   A    
C84   C108  A    
C5    H44   S    
C43   H4    S    
C7    H52   S    
C86   H16   S    
C59   N30   A    
C19   H87   S    
C97   H27   S    
C6    C49   S    
C14   H66   S    
C42   H67   S    
C33   C37   A    
C65   H8    S    
C19   C69   S    
C10   C11   S    
C105  H31   S    
N29   Ni6   S    
C51   N27   A    
C79   C83   A    
C46   C48   A    
C100  H30   S    
C26   C31   A    
C44   Cl1   S    
C21   C82   S    
C40   H23   S    
C60   N31   A    
N9    Ni5   S    
C113  N26   A    
C42   C43   S    
N4    Ni3   S    
N8    Ni7   S    
C12   H70   S    
C30   C42   S    
C93   H24   S    
C111  C115  A    
C15   H75   S    
C29   N12   A    
N3    N11   A    
N15   Ni2   S    
N1    N22   A    
N2    N10   A    
C99   N11   A    
C49   C54   A    
C26   C41   S    
N18   N28   A    
C104  Cl4   S    
