data_mof_unit_27401.cif
_audit_creation_date              2012-12-10T18:11:37-0500
_audit_creation_method            fapswitch 2.2
_symmetry_space_group_name_H-M    P1
_symmetry_Int_Tables_number       1
_space_group_crystal_system       triclinic
_cell_length_a                    10.598698
_cell_length_b                    12.708311
_cell_length_c                    13.145165
_cell_angle_alpha                 82.195601
_cell_angle_beta                  92.376625
_cell_angle_gamma                 101.062411
_cell_volume                      1721.33240971

loop_
_atom_site_label
_atom_site_type_symbol
_atom_type_description
_atom_site_fract_x
_atom_site_fract_y
_atom_site_fract_z
_atom_type_partial_charge
C1    C     C_R   0.476279 0.439352 0.690782 0.838152
C2    C     C_3   0.061510 0.601947 0.511899 0.474820
C3    C     C_3   0.969162 0.531315 0.592051 0.334646
C4    C     C_3   0.876069 0.498826 0.503376 -0.327051
C5    C     C_R   0.453289 0.717911 0.058931 0.521023
C6    C     C_R   0.521478 0.598051 0.200079 -0.107950
C7    C     C_R   0.447509 0.291915 0.842384 0.523278
C8    C     C_R   0.477504 0.267675 0.945653 -0.249423
C9    C     C_R   0.498680 0.348611 0.008875 -0.284901
C10   C     C_R   0.475991 0.453548 0.971760 0.117174
C11   C     C_R   0.439848 0.475266 0.868102 -0.020757
C12   C     C_R   0.741349 0.499569 0.500973 0.921068
C13   C     C_R   0.483540 0.536449 0.034367 0.010750
C14   C     C_R   0.434368 0.631856 0.998100 -0.042739
C15   C     C_R   0.364754 0.636499 0.904210 0.191771
C16   C     C_R   0.379150 0.563573 0.836341 -0.182417
C17   C     C_R   0.532348 0.524348 0.134381 -0.262164
C18   C     C_R   0.494601 0.698948 0.161059 -0.320267
C19   C     C_R   0.451237 0.401018 0.800621 -0.222171
C20   C     C_R   0.320287 0.091408 0.341479 0.399494
C21   C     C_R   0.644662 0.795610 0.637127 -0.011437
C22   C     C_R   0.642330 0.885445 0.685578 -0.341989
C23   C     C_R   0.517889 0.560621 0.309367 0.871717
C24   C     C_R   0.562483 0.957549 0.645689 0.243883
C25   C     C_R   0.509437 0.952011 0.545290 0.071751
C26   C     C_R   0.499527 0.852201 0.507372 0.124869
C27   C     C_R   0.454407 0.035592 0.486848 -0.191744
C28   C     C_R   0.366086 0.008374 0.405976 -0.175120
C29   C     C_R   0.335307 0.900387 0.384129 0.237958
C30   C     C_R   0.411313 0.827062 0.428266 -0.177744
C31   C     C_R   0.497175 0.146823 0.496868 0.549967
C32   C     C_R   0.348018 0.197607 0.366435 0.145860
C33   C     C_R   0.258335 0.500491 0.500825 0.954491
C34   C     C_3   0.939529 0.400610 0.494753 0.457711
C35   C     C_3   0.031405 0.432952 0.584020 0.357433
C36   C     C_3   0.123600 0.503110 0.503280 -0.284227
C37   C     C_3   0.032156 0.470859 0.413428 -0.381217
C38   C     C_3   0.969423 0.568540 0.424193 0.096489
H1    H     H_    0.572410 0.454972 0.165880 0.153587
H2    H     H_    0.522380 0.323789 0.087667 0.141000
H3    H     H_    0.483184 0.185396 0.977074 0.145562
H4    H     H_    0.332508 0.568653 0.761668 0.193288
H5    H     H_    0.695641 0.733752 0.672698 0.165344
H6    H     H_    0.687725 0.890509 0.760538 0.139024
H7    H     H_    0.396202 0.748761 0.404305 0.216165
H8    H     H_    0.062723 0.449989 0.340613 0.170479
H9    H     H_    0.498663 0.760594 0.210977 0.163963
N1    N     N_R   0.432930 0.222190 0.444670 -0.187370
N2    N     N_R   0.566370 0.776980 0.554790 -0.130518
O1    O     O_R   0.467970 0.366730 0.627150 -0.606572
O2    O     O_R   0.510820 0.544830 0.662520 -0.616088
O3    O     O_R   0.664630 0.410960 0.482340 -0.559751
O4    O     O_R   0.707470 0.589060 0.517710 -0.614143
O5    O     O_R   0.489180 0.455170 0.337480 -0.617804
O6    O     O_R   0.532030 0.633270 0.372850 -0.649291
O7    O     O_R   0.292530 0.410940 0.482290 -0.595888
O8    O     O_R   0.335370 0.589040 0.517660 -0.609103
Zn1   Zn    Zn3+2 0.471390 0.381080 0.476380 0.977174
Zn2   Zn    Zn3+2 0.528610 0.618920 0.523620 0.934971
O9    O     O_3   0.080772 0.371229 0.668399 -0.630501
C39   C     C_3   0.993073 0.274978 0.698527 -0.347781
H10   H     H_    0.999360 0.213605 0.647440 0.196247
H11   H     H_    0.893201 0.288109 0.701577 0.155269
H12   H     H_    0.019203 0.242062 0.777359 0.166766
O10   O     O_3   0.413035 0.207513 0.785133 -0.643261
C40   C     C_3   0.280350 0.194770 0.762185 -0.307449
H13   H     H_    0.256119 0.268641 0.717280 0.234396
H14   H     H_    0.222963 0.171841 0.833497 0.153998
H15   H     H_    0.253021 0.129361 0.713192 0.179649
N3    N     N_2   0.308325 0.283414 0.299144 -0.235423
H16   H     H_    0.375158 0.317398 0.243636 0.232616
C41   C     C_3   0.178705 0.267000 0.256991 -0.714781
H17   H     H_    0.178085 0.243708 0.178468 0.253099
H18   H     H_    0.142911 0.343803 0.250010 0.206518
H19   H     H_    0.113477 0.203329 0.305988 0.232745
N4    N     N_2   0.225061 0.866978 0.321231 -0.243572
H20   H     H_    0.139676 0.884926 0.342080 0.254707
C42   C     C_3   0.215088 0.775175 0.265516 -0.711295
H21   H     H_    0.126886 0.768929 0.216441 0.249940
H22   H     H_    0.209233 0.698918 0.318764 0.250780
H23   H     H_    0.297516 0.787654 0.214031 0.242231
O11   O     O_3   0.255601 0.071130 0.250365 -0.600513
C43   C     C_3   0.346767 0.076833 0.173516 -0.274291
H24   H     H_    0.399805 0.008686 0.188313 0.183450
H25   H     H_    0.416083 0.154863 0.166463 0.130232
H26   H     H_    0.295261 0.070797 0.098726 0.195345
O12   O     O_3   0.625732 0.180372 0.521993 -0.566250
C44   C     C_3   0.643150 0.207435 0.622602 -0.106909
H27   H     H_    0.696435 0.290288 0.623237 0.173206
H28   H     H_    0.704715 0.155471 0.666614 0.117498
H29   H     H_    0.553420 0.201729 0.662442 0.212865
O13   O     O_3   0.865879 0.296819 0.488998 -0.555891
C45   C     C_3   0.932373 0.237093 0.434961 -0.266989
H30   H     H_    0.927419 0.265110 0.351355 0.165955
H31   H     H_    0.884177 0.150937 0.447588 0.192284
H32   H     H_    0.033885 0.241543 0.462430 0.158203
N5    N     N_2   0.506027 0.008983 0.716781 -0.314265
H33   H     H_    0.565542 0.027866 0.778489 0.214716
C46   C     C_3   0.381306 0.950196 0.750649 -0.719302
H34   H     H_    0.346506 0.988518 0.812236 0.265084
H35   H     H_    0.389887 0.866953 0.782665 0.282341
H36   H     H_    0.310777 0.948269 0.685682 0.225321
N6    N     N_2   0.930597 0.641515 0.339272 -0.288152
H37   H     H_    0.879005 0.695061 0.361722 0.232409
C47   C     C_3   0.871630 0.590664 0.252658 -0.774049
H38   H     H_    0.840557 0.652516 0.194067 0.233313
H39   H     H_    0.786292 0.528127 0.277366 0.238716
H40   H     H_    0.941852 0.553111 0.216701 0.243238
O14   O     O_3   0.137901 0.705021 0.518506 -0.591287
C48   C     C_3   0.061780 0.777585 0.542525 -0.288102
H41   H     H_    0.031554 0.759569 0.623529 0.213723
H42   H     H_    0.976663 0.779241 0.490880 0.149596
H43   H     H_    0.120964 0.860209 0.533603 0.160673
O15   O     O_3   0.934611 0.572567 0.679344 -0.618090
C49   C     C_3   0.861234 0.490656 0.747071 -0.295566
H44   H     H_    0.924517 0.441052 0.792439 0.194340
H45   H     H_    0.782954 0.439680 0.707329 0.120329
H46   H     H_    0.814735 0.529404 0.802213 0.184784
N7    N     N_2   0.271478 0.705440 0.885299 -0.297871
H47   H     H_    0.228175 0.717144 0.950628 0.263521
C50   C     C_3   0.180624 0.691905 0.800697 -0.773426
H48   H     H_    0.113451 0.749120 0.800356 0.236421
H49   H     H_    0.124213 0.608161 0.809610 0.281128
H50   H     H_    0.231497 0.710576 0.726395 0.275568
O16   O     O_3   0.421617 0.816935 0.021867 -0.623954
C51   C     C_3   0.535615 0.894476 0.004838 -0.360481
H51   H     H_    0.589237 0.908170 0.077874 0.161043
H52   H     H_    0.598055 0.870998 0.949062 0.166795
H53   H     H_    0.509609 0.972541 0.971365 0.193382

loop_
_geom_bond_atom_site_label_1
_geom_bond_atom_site_label_2
_ccdc_geom_bond_type
C40   H14   S    
O12   C44   S    
C2    O14   S    
C45   H30   S    
O6    Zn2   S    
C34   C37   S    
C30   H7    S    
C35   C36   S    
C18   H9    S    
C21   N2    A    
O15   C49   S    
O4    Zn2   S    
C7    C8    A    
C29   N4    S    
C47   H39   S    
C11   C19   A    
C38   N6    S    
C28   C29   A    
C37   C38   S    
N4    C42   S    
C20   O11   S    
O5    Zn1   S    
C42   H22   S    
O8    Zn2   S    
C40   H15   S    
C15   C16   A    
C33   C36   S    
C34   C35   S    
C17   H1    S    
C39   H11   S    
C48   H41   S    
C50   H50   S    
N5    C46   S    
C21   H5    S    
C22   H6    S    
C43   H24   S    
O7    Zn1   S    
C8    C9    A    
C49   H45   S    
C33   O8    A    
N3    H16   S    
C4    C12   S    
C1    O1    A    
C12   O4    A    
C33   O7    A    
C40   H13   S    
C45   H31   S    
C21   C22   A    
C32   N1    A    
C41   H19   S    
C12   O3    A    
C20   C32   A    
N5    H33   S    
C34   O13   S    
N4    H20   S    
N7    C50   S    
C6    C18   A    
C47   H40   S    
C4    C34   S    
C1    C19   S    
C31   O12   S    
C27   C31   A    
C24   N5    S    
O1    Zn1   S    
C8    H3    S    
C41   H18   S    
C26   N2    A    
C42   H21   S    
C32   N3    S    
C5    C18   A    
C20   C28   A    
C51   H53   S    
C25   C26   A    
C3    O15   S    
C9    H2    S    
C35   O9    S    
C39   H12   S    
C29   C30   A    
C7    O10   S    
C11   C16   A    
C2    C38   S    
C46   H34   S    
C44   H29   S    
C3    C35   S    
C49   H46   S    
C43   H26   S    
C5    C14   A    
N6    C47   S    
C24   C25   A    
C23   O6    A    
C1    O2    A    
C48   H43   S    
C50   H48   S    
O3    Zn1   S    
C43   H25   S    
C4    C38   S    
C26   C30   A    
C45   H32   S    
C7    C19   A    
C31   N1    A    
O16   C51   S    
C22   C24   A    
O2    Zn2   S    
C3    C4    S    
C16   H4    S    
N6    H37   S    
C23   O5    A    
C9    C10   A    
C2    C36   S    
C6    C17   A    
C36   C37   S    
C51   H52   S    
C46   H35   S    
C44   H28   S    
C41   H17   S    
C10   C13   A    
N7    H47   S    
N1    Zn1   S    
C25   C27   A    
C47   H38   S    
N2    Zn2   S    
C13   C17   A    
C2    C3    S    
O14   C48   S    
C42   H23   S    
C51   H51   S    
C6    C23   S    
O13   C45   S    
C15   N7    S    
C39   H10   S    
C48   H42   S    
C50   H49   S    
C10   C11   A    
C46   H36   S    
C44   H27   S    
O10   C40   S    
C5    O16   S    
C27   C28   A    
C14   C15   A    
O9    C39   S    
N3    C41   S    
O11   C43   S    
C37   H8    S    
C13   C14   A    
C49   H44   S    
