data_mof_unit_63827.cif
_audit_creation_date              2012-12-10T19:01:14-0500
_audit_creation_method            fapswitch 2.2
_symmetry_space_group_name_H-M    P1
_symmetry_Int_Tables_number       1
_space_group_crystal_system       triclinic
_cell_length_a                    15.891963
_cell_length_b                    14.259062
_cell_length_c                    13.382808
_cell_angle_alpha                 89.99961
_cell_angle_beta                  89.937702
_cell_angle_gamma                 89.999751
_cell_volume                      3032.60253159

loop_
_atom_site_label
_atom_site_type_symbol
_atom_type_description
_atom_site_fract_x
_atom_site_fract_y
_atom_site_fract_z
_atom_type_partial_charge
C1    C     C_R   0.499999 0.326573 0.500000 0.915280
C2    C     C_1   0.500000 0.499974 0.950478 -0.025437
C3    C     C_R   0.336130 0.500317 0.500066 0.940541
C4    C     C_R   0.663869 0.500297 0.499933 0.940549
C5    C     C_R   0.500000 0.673448 0.500000 0.947049
C6    C     C_3   0.047809 0.447381 0.597512 -0.021646
C7    C     C_3   0.049854 0.448615 0.402666 -0.016355
C8    C     C_3   0.950144 0.436737 0.589202 -0.017286
C9    C     C_3   0.952192 0.460239 0.395966 -0.021110
C10   C     C_1   0.751757 0.499385 0.499684 -0.156633
C11   C     C_1   0.248243 0.499325 0.500299 -0.156569
C12   C     C_1   0.500000 0.141353 0.500001 0.008978
C13   C     C_3   0.082642 0.497564 0.501069 -0.020404
C14   C     C_3   0.917358 0.497730 0.498752 -0.020443
C15   C     C_3   0.949991 0.602093 0.512291 0.492822
C16   C     C_3   0.050011 0.602694 0.502689 0.492538
C17   C     C_1   0.826287 0.498492 0.499165 0.099192
C18   C     C_1   0.173714 0.498358 0.500750 0.099164
C19   C     C_1   0.500000 0.225921 0.500001 -0.211263
C20   C     C_3   0.917099 0.334636 0.592851 -0.802187
C21   C     C_3   0.903896 0.377309 0.348036 -0.817199
C22   C     C_3   0.096103 0.359120 0.633050 -0.816635
C23   C     C_1   0.500000 0.042292 0.500001 0.033025
C24   C     C_3   0.082895 0.347906 0.384346 -0.803657
C25   C     C_1   0.500001 0.957730 0.500000 0.040506
C26   C     C_1   0.500001 0.858669 0.500000 0.031467
C27   C     C_1   0.500001 0.774101 0.499999 -0.179699
C28   C     C_1   0.500001 0.499976 0.169451 0.099782
C29   C     C_1   0.500000 0.499976 0.830549 0.102245
C30   C     C_1   0.500001 0.499974 0.049522 -0.025870
Cl1   Cl    Cl    0.099827 0.668316 0.602258 -0.469675
Cl2   Cl    Cl    0.086404 0.663807 0.392195 -0.498715
Cl3   Cl    Cl    0.913598 0.648629 0.630574 -0.498350
Cl4   Cl    Cl    0.900178 0.679761 0.423091 -0.470489
H1    H     H_    0.076810 0.487747 0.338209 0.197366
H2    H     H_    0.931454 0.360581 0.273878 0.245781
H3    H     H_    0.095412 0.301263 0.578499 0.256592
H4    H     H_    0.162743 0.376614 0.649373 0.237672
H5    H     H_    0.068554 0.333147 0.704125 0.246013
H6    H     H_    0.150496 0.341453 0.403608 0.235318
H7    H     H_    0.047328 0.294280 0.425789 0.251565
H8    H     H_    0.077302 0.330275 0.303780 0.237894
H9    H     H_    0.058332 0.496461 0.660887 0.202379
H10   H     H_    0.941672 0.516914 0.340243 0.203000
H11   H     H_    0.923190 0.467338 0.658703 0.196703
H12   H     H_    0.952658 0.286753 0.544058 0.251821
H13   H     H_    0.922698 0.306941 0.670136 0.238414
H14   H     H_    0.849495 0.330703 0.572846 0.234672
H15   H     H_    0.904573 0.313065 0.393758 0.256073
H16   H     H_    0.837260 0.396733 0.334367 0.238658
N1    N     N_1   0.500000 0.499980 0.261870 -0.059995
N2    N     N_1   0.500000 0.499980 0.738130 -0.059491
O1    O     O_R   0.500000 0.373720 0.576470 -0.600181
O2    O     O_R   0.500000 0.373720 0.423530 -0.600091
O3    O     O_R   0.377150 0.500010 0.576490 -0.605596
O4    O     O_R   0.377150 0.500010 0.423510 -0.604916
O5    O     O_R   0.622850 0.500010 0.576490 -0.602531
O6    O     O_R   0.622850 0.500010 0.423510 -0.608058
O7    O     O_R   0.500000 0.626290 0.576440 -0.591494
O8    O     O_R   0.500000 0.626290 0.423560 -0.592323
Zn1   Zn    Zn3+2 0.500000 0.500010 0.602090 1.002039
Zn2   Zn    Zn3+2 0.500000 0.500010 0.397910 0.999199

loop_
_geom_bond_atom_site_label_1
_geom_bond_atom_site_label_2
_ccdc_geom_bond_type
C4    O5    A    
O6    Zn2   S    
C6    C8    S    
C9    C14   S    
C11   C18   T    
O5    Zn1   S    
C16   Cl2   S    
C24   H8    S    
C3    O4    A    
C15   Cl4   S    
C3    O3    A    
C12   C23   S    
C2    C30   T    
C21   H15   S    
C7    C24   S    
C21   H2    S    
C20   H14   S    
C16   Cl1   S    
C24   H7    S    
C14   C17   S    
C9    C21   S    
C26   C27   T    
C8    C20   S    
N1    Zn2   S    
O1    Zn1   S    
C13   C18   S    
C2    C29   S    
C22   H5    S    
O3    Zn1   S    
C12   C19   T    
C28   C30   S    
C21   H16   S    
C24   H6    S    
N2    Zn1   S    
C23   C25   T    
C14   C15   S    
C28   N1    T    
O4    Zn2   S    
O7    Zn1   S    
C20   H13   S    
C1    C19   S    
C5    O7    A    
C10   C17   T    
C4    C10   S    
C15   C16   S    
C22   H4    S    
C7    C13   S    
C3    C11   S    
O8    Zn2   S    
C13   C16   S    
C4    O6    A    
C7    C9    S    
C1    O1    A    
C6    H9    S    
C9    H10   S    
C8    C14   S    
O2    Zn2   S    
C5    O8    A    
C25   C26   S    
C5    C27   S    
C22   H3    S    
C7    H1    S    
C1    O2    A    
C15   Cl3   S    
C20   H12   S    
C8    H11   S    
C6    C13   S    
C29   N2    T    
C6    C22   S    
