data_mof_unit_57653.cif
_audit_creation_date              2012-12-10T17:19:57-0500
_audit_creation_method            fapswitch 2.2
_symmetry_space_group_name_H-M    P1
_symmetry_Int_Tables_number       1
_space_group_crystal_system       triclinic
_cell_length_a                    9.60619
_cell_length_b                    10.936276
_cell_length_c                    15.548178
_cell_angle_alpha                 86.259743
_cell_angle_beta                  73.940387
_cell_angle_gamma                 90.669277
_cell_volume                      1565.58680344

loop_
_atom_site_label
_atom_site_type_symbol
_atom_type_description
_atom_site_fract_x
_atom_site_fract_y
_atom_site_fract_z
_atom_type_partial_charge
C1    C     C_R   0.994814 0.262932 0.511121 0.810144
C2    C     C_R   0.671052 0.533123 0.903790 0.048207
C3    C     C_R   0.767808 0.583322 0.947664 0.010245
C4    C     C_R   0.520284 0.518476 0.949404 0.070696
C5    C     C_R   0.471372 0.541894 0.041639 0.002664
C6    C     C_R   0.570250 0.594101 0.082207 -0.254319
C7    C     C_R   0.715050 0.616114 0.036188 0.367033
C8    C     C_R   0.416044 0.484934 0.905390 -0.147693
C9    C     C_R   0.270201 0.468849 0.951520 -0.190934
C10   C     C_R   0.223048 0.482361 0.043343 0.137009
C11   C     C_R   0.323594 0.516317 0.089820 0.118131
C12   C     C_R   0.918429 0.504337 0.671715 0.835685
C13   C     C_R   0.076172 0.461135 0.089483 -0.139289
C14   C     C_R   0.028311 0.470108 0.181980 -0.118160
C15   C     C_R   0.273624 0.519476 0.183615 -0.252441
C16   C     C_R   0.228324 0.117550 0.558677 -0.124564
C17   C     C_R   0.364983 0.067290 0.535388 -0.114337
C18   C     C_R   0.385807 0.963968 0.486637 -0.068103
C19   C     C_R   0.266700 0.902879 0.472846 -0.119050
C20   C     C_R   0.125390 0.944518 0.504856 0.044330
C21   C     C_R   0.112676 0.064463 0.532576 0.102646
C22   C     C_R   0.988684 0.128861 0.527687 -0.186083
C23   C     C_R   0.000347 0.738895 0.500350 0.816977
C24   C     C_R   0.863156 0.062964 0.528347 -0.237701
C25   C     C_R   0.863963 0.936125 0.525680 0.378899
C26   C     C_R   0.997763 0.874554 0.507060 -0.200077
C27   C     C_R   0.703836 0.657427 0.375107 -0.091915
C28   C     C_R   0.661661 0.733506 0.312681 -0.119516
C29   C     C_R   0.519898 0.729608 0.309525 -0.251054
C30   C     C_R   0.418980 0.651448 0.370116 -0.204311
C31   C     C_R   0.455820 0.574116 0.436163 0.233439
C32   C     C_R   0.604594 0.575702 0.437361 0.227095
C33   C     C_R   0.545577 0.429757 0.561074 -0.045155
C34   C     C_R   0.082056 0.499462 0.328025 0.780108
C35   C     C_R   0.397484 0.431312 0.561891 -0.010224
C36   C     C_R   0.874136 0.523171 0.768426 -0.124642
C37   C     C_R   0.127476 0.497359 0.229727 -0.061609
C38   C     C_R   0.915324 0.601968 0.901584 -0.198191
C39   C     C_R   0.968526 0.574640 0.812519 0.345639
C40   C     C_R   0.728599 0.499219 0.815500 -0.254182
Cu1   Cu    Cu3+1 0.140660 0.499990 0.500010 0.973493
Cu2   Cu    Cu3+1 0.859340 0.500010 0.499990 0.971852
H1    H     H_    0.763016 0.109893 0.532419 0.182770
H2    H     H_    0.213471 0.197635 0.596715 0.135990
H3    H     H_    0.455285 0.111661 0.551205 0.142042
H4    H     H_    0.493308 0.930644 0.459447 0.193073
H5    H     H_    0.287000 0.830022 0.430748 0.145508
H6    H     H_    0.814599 0.668735 0.373042 0.192041
H7    H     H_    0.739396 0.797023 0.267213 0.198247
H8    H     H_    0.347647 0.534572 0.222856 0.158360
H9    H     H_    0.486427 0.790421 0.261641 0.169896
H10   H     H_    0.311265 0.663269 0.366762 0.188262
H11   H     H_    0.914650 0.452543 0.216312 0.170749
H12   H     H_    0.194005 0.443587 0.915204 0.169638
H13   H     H_    0.990699 0.640724 0.933552 0.225304
H14   H     H_    0.662082 0.453294 0.781327 0.157036
H15   H     H_    0.536816 0.624389 0.149003 0.178649
H16   H     H_    0.442492 0.474287 0.834347 0.164185
N1    N     N_R   0.648320 0.501210 0.499140 -0.196856
N2    N     N_R   0.352470 0.501290 0.499110 -0.191830
O1    O     O_R   0.118810 0.319640 0.500010 -0.587532
O2    O     O_R   0.881240 0.319660 0.500000 -0.586302
O3    O     O_R   0.055570 0.499980 0.629840 -0.533963
O4    O     O_R   0.818000 0.500010 0.629830 -0.578176
O5    O     O_R   0.118760 0.680340 0.500000 -0.587335
O6    O     O_R   0.881190 0.680360 0.499990 -0.538112
O7    O     O_R   0.182000 0.499990 0.370170 -0.603031
O8    O     O_R   0.944430 0.500020 0.370160 -0.607557
Cl1   Cl    Cl    0.825892 0.688350 0.092559 -0.691887
H17   H     H_    0.998447 0.436581 0.054060 0.148010
Cl2   Cl    Cl    0.691994 0.862557 0.548699 -0.631354
H18   H     H_    0.577382 0.372071 0.611173 0.125433
H19   H     H_    0.318820 0.377071 0.613814 0.128369
Cl3   Cl    Cl    0.152530 0.613597 0.759431 -0.600366

loop_
_geom_bond_atom_site_label_1
_geom_bond_atom_site_label_2
_ccdc_geom_bond_type
C27   H6    S    
C16   C21   A    
C34   C37   S    
Cu1   Cu2   S    
C19   C20   A    
Cu1   O1    S    
C4    C8    A    
C1    O2    A    
Cu1   O7    S    
C23   O6    A    
C28   C29   A    
C17   H3    S    
C5    C11   A    
C3    C7    A    
C38   C39   A    
C12   O4    A    
C19   H5    S    
C15   H8    S    
C13   H17   S    
C18   C19   A    
C39   Cl3   S    
C23   C26   S    
C15   C37   A    
C33   H18   S    
C8    H16   S    
C11   C15   A    
C38   H13   S    
C3    C38   A    
C16   C17   A    
C40   H14   S    
C16   H2    S    
C25   Cl2   S    
C12   C36   S    
C9    C10   A    
Cu2   O2    S    
C1    C22   S    
C33   N1    A    
C21   C22   A    
Cu2   O8    S    
C6    H15   S    
C18   H4    S    
C36   C40   A    
C24   C25   A    
C34   O8    A    
C12   O3    A    
C8    C9    A    
Cu1   O5    S    
C25   C26   A    
C35   N2    A    
C31   N2    A    
Cu2   N1    S    
C2    C4    A    
C29   C30   A    
C28   H7    S    
C31   C32   A    
C30   C31   A    
C17   C18   A    
C22   C24   A    
Cu1   O3    S    
Cu2   O4    S    
C29   H9    S    
C30   H10   S    
C35   H19   S    
C27   C32   A    
C36   C39   A    
Cu1   N2    S    
C4    C5    A    
C10   C13   A    
C1    O1    A    
C34   O7    A    
C7    Cl1   S    
C6    C7    A    
C23   O5    A    
C2    C3    A    
C14   C37   A    
C5    C6    A    
C20   C26   A    
C33   C35   A    
C10   C11   A    
C2    C40   A    
C14   H11   S    
C20   C21   A    
C27   C28   A    
Cu2   O6    S    
C24   H1    S    
C9    H12   S    
C32   N1    A    
C13   C14   A    
