data_mof_unit_5307.cif
_audit_creation_date              2012-12-11T15:49:29-0500
_audit_creation_method            fapswitch 2.2
_symmetry_space_group_name_H-M    P1
_symmetry_Int_Tables_number       1
_space_group_crystal_system       triclinic
_cell_length_a                    8.279901
_cell_length_b                    19.101561
_cell_length_c                    26.965113
_cell_angle_alpha                 95.78575
_cell_angle_beta                  92.632673
_cell_angle_gamma                 85.289248
_cell_volume                      4225.66741961

loop_
_atom_site_label
_atom_site_type_symbol
_atom_type_description
_atom_site_fract_x
_atom_site_fract_y
_atom_site_fract_z
_atom_type_partial_charge
Ba1   Ba    Ba6+2 0.854000 0.466860 0.523710 1.667849
Ba2   Ba    Ba6+2 0.335820 0.533080 0.476290 1.670851
C1    C     C_3   0.668423 0.213735 0.658362 -0.267560
C2    C     C_R   0.875503 0.553151 0.172197 0.560901
C3    C     C_2   0.758073 0.538145 0.271435 -0.076901
C4    C     C_3   0.127659 0.311478 0.661408 0.256302
C5    C     C_3   0.742200 0.566950 0.325295 -0.061964
C6    C     C_1   0.984536 0.490526 0.343611 0.042347
C7    C     C_2   0.026700 0.487105 0.296036 -0.104112
C8    C     C_2   0.904300 0.508589 0.255753 0.171270
C9    C     C_R   0.993282 0.489015 0.098170 -0.066397
C10   C     C_R   0.080383 0.443505 0.129691 -0.034521
C11   C     C_R   0.203752 0.395961 0.109473 -0.042282
C12   C     C_3   0.695904 0.286300 0.640665 0.225204
C13   C     C_R   0.881167 0.542013 0.119391 -0.077394
C14   C     C_2   0.852100 0.527056 0.360406 -0.284690
C15   C     C_2   0.363670 0.495585 0.643953 -0.173154
C16   C     C_3   0.079339 0.291744 0.711925 -0.399271
C17   C     C_R   0.162127 0.421971 0.972027 -0.037265
C18   C     C_R   0.968735 0.525874 0.963038 0.024174
C19   C     C_R   0.086275 0.473789 0.942325 0.069691
C20   C     C_R   0.254985 0.363556 0.946665 -0.070831
C21   C     C_R   0.300001 0.366649 0.897170 -0.022569
C22   C     C_R   0.238426 0.421473 0.869148 -0.039022
C23   C     C_3   0.524891 0.648171 0.626588 0.232347
C24   C     C_R   0.124945 0.472710 0.890978 -0.079611
C25   C     C_R   0.043367 0.520615 0.860484 -0.033266
C26   C     C_R   0.080486 0.518125 0.809784 0.649587
C27   C     C_R   0.281813 0.424318 0.818835 0.629434
C28   C     C_3   0.190731 0.317191 0.415278 0.302640
C29   C     C_2   0.451409 0.478965 0.733098 -0.092348
C30   C     C_3   0.506297 0.490119 0.680725 -0.099680
C31   C     C_1   0.223820 0.526371 0.659307 -0.070310
C32   C     C_2   0.197063 0.539941 0.707911 -0.078932
C33   C     C_2   0.289416 0.493446 0.743858 0.227228
C34   C     C_3   0.545233 0.671434 0.682244 -0.254043
C35   C     C_R   0.138943 0.430382 0.025028 0.011458
C36   C     C_R   0.021003 0.482365 0.045686 0.070932
C37   C     C_R   0.932507 0.528560 0.014551 0.004808
C38   C     C_R   0.237007 0.391983 0.058918 -0.119618
C39   C     C_R   0.782261 0.583401 0.087290 -0.036118
C40   C     C_3   0.200622 0.238002 0.400558 -0.376001
C41   C     C_R   0.891291 0.573999 0.931149 -0.074885
C42   C     C_R   0.925086 0.570221 0.880949 0.006682
C43   C     C_R   0.809496 0.576184 0.036061 -0.073179
C44   C     C_R   0.393231 0.297718 0.518903 -0.240227
C45   C     C_3   0.987559 0.721631 0.339072 0.210723
C46   C     C_R   0.534324 0.275380 0.493989 0.039728
C47   C     C_R   0.583405 0.203002 0.486745 -0.110700
C48   C     C_R   0.489601 0.152547 0.504144 0.006509
C49   C     C_R   0.344237 0.176590 0.528129 -0.146853
C50   C     C_R   0.295606 0.248836 0.534574 0.070606
C51   C     C_R   0.513190 0.030892 0.533475 0.005093
C52   C     C_3   0.002065 0.677665 0.573919 0.293478
C53   C     C_R   0.564576 0.959091 0.527740 -0.059547
C54   C     C_R   0.641593 0.928572 0.484372 0.046197
C55   C     C_R   0.667899 0.972677 0.447209 -0.074245
C56   C     C_3   0.018066 0.730104 0.284605 -0.216939
C57   C     C_R   0.618762 0.045094 0.453377 -0.079781
C58   C     C_R   0.540922 0.075290 0.496729 0.077300
C59   C     C_R   0.837818 0.824952 0.454745 -0.130403
C60   C     C_R   0.886986 0.752401 0.451805 -0.007869
C61   C     C_R   0.652066 0.731298 0.496543 0.043529
C62   C     C_R   0.600936 0.803100 0.499201 -0.121175
C63   C     C_R   0.692513 0.851183 0.478254 -0.003589
C64   C     C_3   0.975682 0.757416 0.585160 -0.360167
C65   C     C_R   0.789396 0.705895 0.470595 -0.268899
C66   C     C_3   0.674604 0.380603 0.375743 0.229716
C67   C     C_3   0.516400 0.719753 0.359587 0.350989
C68   C     C_3   0.676573 0.362040 0.319324 -0.279546
C69   C     C_2   0.783715 0.157420 0.633171 0.542415
C70   C     C_2   0.509661 0.349490 0.297962 0.568747
C71   C     C_2   0.720991 0.672464 0.698086 0.596885
C72   C     C_2   0.682486 0.213410 0.714536 0.501965
C73   C     C_2   0.136705 0.673200 0.262616 0.649471
C74   C     C_2   0.564181 0.791953 0.290304 0.498330
C75   C     C_2   0.581744 0.472434 0.772532 0.603816
C76   C     C_2   0.283193 0.293905 0.966917 0.506394
C77   C     C_2   0.639364 0.630059 0.105183 0.571338
C78   C     C_3   0.478883 0.790457 0.338010 -0.232445
C79   C     C_2   0.300464 0.327672 0.665125 0.397946
C80   C     C_2   0.170632 0.616147 0.726574 0.538784
C81   C     C_R   0.044480 0.447408 0.180981 0.626696
H1    H     H_    0.821942 0.288357 0.630381 0.061717
H2    H     H_    0.724797 0.405452 0.301642 0.066803
H3    H     H_    0.620297 0.291474 0.605995 0.093585
H4    H     H_    0.542034 0.201516 0.647018 0.073360
H5    H     H_    0.595659 0.596612 0.618140 0.014949
H6    H     H_    0.481231 0.724532 0.690621 0.153601
H7    H     H_    0.489867 0.634177 0.704036 0.012916
H8    H     H_    0.100955 0.335130 0.741524 0.103868
H9    H     H_    0.943493 0.668799 0.341389 -0.024166
H10   H     H_    0.892196 0.763281 0.351422 0.039350
H11   H     H_    0.061807 0.782992 0.281689 0.130576
H12   H     H_    0.275330 0.224840 0.367225 0.127868
H13   H     H_    0.650329 0.709666 0.363583 -0.143635
H14   H     H_    0.465468 0.724028 0.397254 0.086514
H15   H     H_    0.052014 0.359442 0.653092 0.103402
H16   H     H_    0.346364 0.799951 0.330636 0.118432
H17   H     H_    0.151577 0.472326 0.286779 0.176860
H18   H     H_    0.279669 0.363238 0.133193 0.141988
H19   H     H_    0.376156 0.323398 0.879281 0.167040
H20   H     H_    0.344648 0.359911 0.047497 0.081064
H21   H     H_    0.659729 0.551018 0.245102 0.129820
H22   H     H_    0.727302 0.607174 0.013389 0.120224
H23   H     H_    0.077000 0.220423 0.391868 0.130552
H24   H     H_    0.839631 0.541766 0.400055 0.079659
H25   H     H_    0.492048 0.821244 0.518890 0.082878
H26   H     H_    0.455908 0.052035 0.567671 0.101345
H27   H     H_    0.693430 0.186387 0.467200 0.085964
H28   H     H_    0.724337 0.951074 0.412973 0.088958
H29   H     H_    0.949132 0.283488 0.711129 0.150587
H30   H     H_    0.639232 0.077135 0.423712 0.069241
H31   H     H_    0.266499 0.139489 0.540559 0.076582
H32   H     H_    0.149630 0.242592 0.721671 0.151730
H33   H     H_    0.116513 0.329147 0.448822 0.047251
H34   H     H_    0.887320 0.655606 0.560613 0.009677
H35   H     H_    0.256638 0.209179 0.431318 0.053020
H36   H     H_    0.092789 0.665728 0.544759 0.087858
H37   H     H_    0.876170 0.770747 0.611556 0.164718
H38   H     H_    0.913371 0.158585 0.640569 0.072983
H39   H     H_    0.443042 0.308736 0.311025 0.018979
H40   H     H_    0.394172 0.641988 0.617700 0.021307
H41   H     H_    0.797924 0.623574 0.696249 -0.002452
H42   H     H_    0.599720 0.248159 0.737576 0.070313
H43   H     H_    0.122156 0.618369 0.267062 -0.010007
H44   H     H_    0.901653 0.726751 0.262683 0.094245
H45   H     H_    0.944107 0.783074 0.550738 0.057192
H46   H     H_    0.542524 0.753050 0.259024 0.097959
H47   H     H_    0.517974 0.833392 0.365844 0.069290
H48   H     H_    0.698413 0.445378 0.763439 0.021054
H49   H     H_    0.203587 0.279348 0.994390 0.016127
H50   H     H_    0.579037 0.620198 0.138360 0.052423
H51   H     H_    0.804765 0.616462 0.943663 0.093242
H52   H     H_    0.374119 0.320603 0.698797 0.053359
H53   H     H_    0.861210 0.608294 0.858392 0.146968
H54   H     H_    0.096705 0.652724 0.705537 0.058868
H55   H     H_    0.385811 0.485045 0.604422 0.099586
H56   H     H_    0.088530 0.778767 0.602113 0.135451
H57   H     H_    0.545990 0.927832 0.557995 0.077439
H58   H     H_    0.915976 0.860705 0.440878 0.074840
H59   H     H_    0.828600 0.650328 0.469299 0.053432
H60   H     H_    0.354595 0.353411 0.523677 0.088317
H61   H     H_    0.314558 0.333900 0.423338 -0.001628
H62   H     H_    0.797188 0.393800 0.389442 0.024863
H63   H     H_    0.587108 0.427077 0.384197 0.070977
H64   H     H_    0.758360 0.313670 0.310741 0.095237
N1    N     N_R   0.941597 0.502231 0.202324 -0.417658
N2    N     N_R   0.218903 0.479337 0.791545 -0.403833
O1    O     O_2   0.913240 0.537010 0.617740 -0.467721
O2    O     O_2   0.224490 0.749722 0.462852 -0.493264
O3    O     O_3   0.129840 0.729772 0.368815 -0.582170
O4    O     O_3   0.145240 0.536960 0.557560 -0.485604
O5    O     O_3   0.557280 0.416300 0.475860 -0.488830
O6    O     O_2   0.376710 0.670070 0.522470 -0.461856
O7    O     O_3   0.578730 0.700130 0.599470 -0.633874
O8    O     O_2   0.416104 0.529689 0.322608 -0.459672
O9    O     O_3   0.444837 0.665743 0.328801 -0.568458
O10   O     O_2   0.104454 0.401678 0.206217 -0.562130
O11   O     O_2   0.372633 0.376955 0.799250 -0.625028
O12   O     O_3   0.632064 0.321953 0.397974 -0.650788
O13   O     O_2   0.818676 0.609887 0.191450 -0.629049
O14   O     O_2   0.985260 0.548705 0.781913 -0.605403
O15   O     O_3   0.669960 0.410470 0.588880 -0.465393
O16   O     O_2   0.837693 0.445817 0.673437 -0.504229
O17   O     O_3   0.056877 0.649953 0.618075 -0.653329
O18   O     O_3   0.657555 0.341813 0.677850 -0.622761
O19   O     O_2   0.812980 0.329910 0.477500 -0.459562
O20   O     O_3   0.078660 0.374870 0.564770 -0.465023
O21   O     O_2   0.958545 0.249532 0.535898 -0.502051
O22   O     O_2   0.732889 0.109782 0.604766 -0.587473
O23   O     O_3   0.104286 0.254946 0.624580 -0.629524
O24   O     O_2   0.448117 0.384621 0.265662 -0.540938
O25   O     O_2   0.777978 0.727827 0.713519 -0.537622
O26   O     O_2   0.783355 0.174231 0.734791 -0.553056
O27   O     O_2   0.249229 0.688100 0.239003 -0.565298
O28   O     O_2   0.657954 0.836954 0.286274 -0.572835
O29   O     O_2   0.563716 0.500742 0.814790 -0.565619
O30   O     O_2   0.393493 0.251398 0.952475 -0.539472
O31   O     O_2   0.585043 0.679443 0.082382 -0.541141
O32   O     O_2   0.359217 0.349493 0.629798 -0.643422
O33   O     O_2   0.232629 0.639057 0.766277 -0.536004
O34   O     O_2   0.276450 0.462960 0.382230 -0.460690
O35   O     O_3   0.044470 0.462980 0.442430 -0.499042
O36   O     O_3   0.519740 0.589470 0.411120 -0.482436
O37   O     O_3   0.119914 0.350768 0.375174 -0.624053
O38   O     O_3   0.632420 0.583650 0.524140 -0.477942
O39   O     O_3   0.111040 0.625070 0.435230 -0.470616
P1    P     P_3+3 0.082480 0.557670 0.610090 0.979368
P2    P     P_3+3 0.635220 0.340300 0.462910 0.986182
P3    P     P_3+3 0.105604 0.282278 0.564014 0.982947
P4    P     P_3+3 0.107220 0.442270 0.389900 1.000466
P5    P     P_3+3 0.087723 0.716065 0.429992 0.958213
P6    P     P_3+3 0.668424 0.423758 0.654431 0.992012
P7    P     P_3+3 0.562362 0.672649 0.535688 0.956514
P8    P     P_3+3 0.530257 0.584852 0.346430 0.990593

loop_
_geom_bond_atom_site_label_1
_geom_bond_atom_site_label_2
_ccdc_geom_bond_type
C34   H6    S    
C42   H53   S    
C53   C54   A    
Ba2   O6    S    
C41   H51   S    
O8    P8    D    
C45   H9    S    
C12   H1    S    
C19   C24   A    
C67   H13   S    
O34   P4    D    
O19   P2    D    
C28   H33   S    
C66   O12   S    
C24   C25   A    
O3    P5    S    
C16   H8    S    
C28   O37   S    
C17   C19   A    
C16   H29   S    
C32   C33   S    
C80   H54   S    
C36   C37   A    
O15   P6    S    
C55   C57   A    
C21   H19   S    
C51   H26   S    
C54   C63   S    
C2    N1    Am   
C44   C50   A    
C28   H61   S    
C54   C55   A    
C31   P1    S    
Ba1   Ba2   S    
C75   H48   S    
C71   O25   D    
C1    C72   S    
C76   H49   S    
C22   C27   A    
C11   C38   A    
C17   C35   A    
C14   H24   S    
C61   P7    S    
Ba2   O38   S    
C9    C13   A    
C25   C42   A    
C51   C58   A    
C64   H56   S    
Ba1   O15   S    
C64   H45   S    
C6    C7    D    
C21   C22   A    
O35   P4    S    
C79   H52   S    
C15   H55   S    
C79   O32   D    
C7    C8    S    
C46   P2    S    
C37   C43   A    
O38   P7    S    
Ba1   P2    S    
Ba1   O38   S    
O5    P2    S    
C3    H21   S    
C57   C58   A    
C6    C14   D    
C4    C79   S    
C64   H37   S    
C52   H36   S    
O16   P6    D    
C23   O7    S    
C72   O26   D    
C59   C60   A    
C15   C31   D    
C52   O17   S    
C4    C16   S    
C3    C8    D    
Ba1   O35   S    
C43   H22   S    
C56   C73   S    
C29   C75   S    
C27   O11   D    
C44   C46   A    
C51   C53   A    
O23   P3    S    
C77   H50   S    
C61   C65   A    
C49   H31   S    
C78   H47   S    
C1    H4    S    
C40   H12   S    
O7    P7    S    
C13   C39   A    
C30   P6    S    
C74   O28   D    
C3    C5    S    
C18   C37   A    
C40   H35   S    
C4    O23   S    
Ba1   O19   S    
C48   C49   A    
O21   P3    D    
C23   H5    S    
O9    P8    S    
C53   H57   S    
C76   O30   D    
C10   C81   A    
C50   P3    S    
C9    C36   A    
C1    C69   S    
C41   C42   A    
C35   C36   A    
C40   H23   S    
C74   H46   S    
C26   N2    Am   
C29   C30   S    
C57   H30   S    
C71   H41   S    
C17   C20   A    
C31   C32   D    
C45   H10   S    
Ba1   O1    S    
Ba2   O35   S    
C70   O24   D    
C18   C19   A    
Ba1   O4    S    
C23   H40   S    
C12   H3    S    
C1    C12   S    
C60   C65   A    
C59   H58   S    
C46   C47   A    
O39   P5    S    
Ba2   O4    S    
C78   H16   S    
C15   C30   S    
O18   P6    S    
C69   O22   D    
O20   P3    S    
O36   P8    S    
C11   H18   S    
C12   O18   S    
C4    H15   S    
C67   H14   S    
C18   C41   A    
C66   H63   S    
O1    P1    D    
C81   N1    Am   
C34   H7    S    
C7    H17   S    
C5    C14   S    
C70   H39   S    
C73   O27   D    
C77   O31   D    
C69   H38   S    
C74   C78   S    
Ba2   P4    S    
O12   P2    S    
C16   H32   S    
C39   C77   S    
C9    C10   A    
C44   H60   S    
C52   C64   S    
C45   O3    S    
C35   C38   A    
C32   C80   S    
O4    P1    S    
C80   O33   D    
C75   O29   D    
C73   H43   S    
C48   C58   S    
C62   C63   A    
O17   P1    S    
C2    C13   A    
C56   H11   S    
Ba2   O36   S    
C49   C50   A    
C45   C56   S    
C68   H2    S    
C22   C24   A    
O2    P5    D    
C55   H28   S    
C20   C76   S    
C6    P4    S    
C29   C33   D    
Ba1   O20   S    
C67   O9    S    
C2    O13   D    
Ba2   O34   S    
O37   P4    S    
Ba1   O5    S    
Ba2   O39   S    
O6    P7    D    
C34   C71   S    
C23   C34   S    
C27   N2    Am   
C61   C62   A    
C72   H42   S    
C59   C63   A    
C56   H44   S    
C81   O10   D    
C10   C11   A    
C26   O14   D    
Ba2   O5    S    
C47   C48   A    
C52   H34   S    
C25   C26   A    
C66   C68   S    
C39   C43   A    
C20   C21   A    
C28   C40   S    
C67   C78   S    
C68   C70   S    
C68   H64   S    
C33   N2    S    
C60   P5    S    
C5    P8    S    
C65   H59   S    
C66   H62   S    
C62   H25   S    
C8    N1    S    
C47   H27   S    
C38   H20   S    
Ba1   P1    S    
