data_mof_unit_21732.cif
_audit_creation_date              2012-12-10T18:23:02-0500
_audit_creation_method            fapswitch 2.2
_symmetry_space_group_name_H-M    P1
_symmetry_Int_Tables_number       1
_space_group_crystal_system       triclinic
_cell_length_a                    14.92524
_cell_length_b                    14.034762
_cell_length_c                    10.530273
_cell_angle_alpha                 90.243154
_cell_angle_beta                  92.14009
_cell_angle_gamma                 90.129312
_cell_volume                      2204.23454644

loop_
_atom_site_label
_atom_site_type_symbol
_atom_type_description
_atom_site_fract_x
_atom_site_fract_y
_atom_site_fract_z
_atom_type_partial_charge
C1    C     C_R   0.326968 0.499845 0.498124 0.880558
C2    C     C_R   0.673040 0.500007 0.499749 0.895176
C3    C     C_R   0.953263 0.505725 0.494240 0.021244
C4    C     C_R   0.046657 0.505152 0.492232 0.024654
C5    C     C_R   0.902279 0.478072 0.384644 0.131089
C6    C     C_R   0.097219 0.537556 0.599920 0.133931
C7    C     C_R   0.962392 0.561935 0.714118 -0.202291
C8    C     C_R   0.037673 0.442838 0.275424 -0.212665
C9    C     C_R   0.054931 0.567355 0.709252 -0.226949
C10   C     C_R   0.944696 0.448658 0.275067 -0.219608
C11   C     C_R   0.546418 0.797653 0.411359 -0.032796
C12   C     C_R   0.452895 0.202476 0.588015 -0.046887
C13   C     C_R   0.453518 0.797923 0.588680 -0.040967
C14   C     C_R   0.546565 0.202098 0.411478 -0.042207
C15   C     C_R   0.451052 0.898821 0.590692 -0.076612
C16   C     C_R   0.547222 0.101246 0.407622 -0.076171
C17   C     C_R   0.548395 0.898499 0.408858 -0.076056
C18   C     C_R   0.451889 0.101634 0.591592 -0.075763
C19   C     C_R   0.499682 0.949428 0.499741 0.010292
C20   C     C_R   0.499620 0.050665 0.499683 0.013124
C21   C     C_R   0.402533 0.950111 0.681836 0.179782
C22   C     C_R   0.595078 0.050030 0.315791 0.173546
C23   C     C_R   0.596340 0.949408 0.317085 0.178762
C24   C     C_R   0.403520 0.050762 0.682878 0.171929
C25   C     C_R   0.497153 0.499717 0.257196 0.874799
C26   C     C_R   0.500873 0.500436 0.742734 0.872586
C27   C     C_3   0.420523 0.543172 0.036264 -0.277615
C28   C     C_3   0.573851 0.457966 0.963587 -0.237054
C29   C     C_3   0.494505 0.592444 0.959828 -0.222465
C30   C     C_3   0.499766 0.408612 0.039408 -0.190948
C31   C     C_3   0.427403 0.454067 0.951966 0.280959
C32   C     C_3   0.567125 0.547375 0.047008 0.281494
C33   C     C_3   0.499864 0.501862 0.877343 -0.065757
C34   C     C_3   0.495050 0.499136 0.122330 -0.071009
C35   C     C_R   0.809559 0.479463 0.387211 -0.299457
C36   C     C_R   0.189564 0.538433 0.597286 -0.305996
C37   C     C_R   0.768452 0.500374 0.500491 -0.109577
C38   C     C_R   0.231558 0.499897 0.493463 -0.112013
C39   C     C_R   0.818283 0.519923 0.613238 0.148922
C40   C     C_R   0.182891 0.461574 0.388151 0.133467
C41   C     C_R   0.911015 0.530296 0.607608 0.088662
C42   C     C_R   0.089385 0.469673 0.384151 0.093204
H1    H     H_    0.357796 0.575469 0.069860 0.147096
H2    H     H_    0.634791 0.422741 0.930595 0.151184
H3    H     H_    0.494320 0.666704 0.924108 0.151413
H4    H     H_    0.500336 0.334249 0.075021 0.143826
H5    H     H_    0.769128 0.461709 0.302494 0.157408
H6    H     H_    0.229277 0.565621 0.678099 0.138886
H7    H     H_    0.931215 0.583127 0.801073 0.180689
H8    H     H_    0.068757 0.417963 0.190138 0.176211
H9    H     H_    0.093565 0.592247 0.792136 0.147537
H10   H     H_    0.905917 0.427840 0.190321 0.148718
H11   H     H_    0.581338 0.755800 0.342880 0.130498
H12   H     H_    0.415991 0.244457 0.654407 0.154868
H13   H     H_    0.419017 0.756209 0.657655 0.138994
H14   H     H_    0.583357 0.243796 0.344929 0.140390
N1    N     N_R   0.500000 0.750030 0.500000 -0.103794
N2    N     N_R   0.500000 0.249970 0.500000 -0.105690
O1    O     O_R   0.367850 0.580280 0.500030 -0.619343
O2    O     O_R   0.632150 0.419720 0.499970 -0.613849
O3    O     O_R   0.632150 0.580280 0.499970 -0.624688
O4    O     O_R   0.367850 0.419720 0.500030 -0.619068
O5    O     O_R   0.499970 0.580260 0.313950 -0.635552
O6    O     O_R   0.500030 0.419740 0.686050 -0.615705
O7    O     O_R   0.500030 0.580260 0.686050 -0.636717
O8    O     O_R   0.499970 0.419740 0.313950 -0.631894
Zn1   Zn    Zn3+2 0.500000 0.607200 0.500000 0.932348
Zn2   Zn    Zn3+2 0.500000 0.392800 0.500000 0.937690
N3    N     N_2   0.352836 0.405052 0.888540 -0.302530
H15   H     H_    0.318599 0.447051 0.823040 0.213316
C43   C     C_3   0.294482 0.354478 0.971055 -0.813582
H16   H     H_    0.242070 0.316408 0.912953 0.243266
H17   H     H_    0.261191 0.405396 0.034841 0.250784
H18   H     H_    0.333333 0.301054 0.027503 0.245254
N4    N     N_2   0.641548 0.599453 0.106404 -0.315125
H19   H     H_    0.621221 0.649220 0.171356 0.235777
C44   C     C_3   0.704338 0.638799 0.019681 -0.821150
H20   H     H_    0.756464 0.680437 0.073778 0.245130
H21   H     H_    0.669517 0.686463 0.949933 0.239273
H22   H     H_    0.738042 0.580830 0.969012 0.265452
N5    N     N_2   0.778018 0.516209 0.733756 -0.324282
H23   H     H_    0.712895 0.540287 0.736000 0.226342
C45   C     C_3   0.791221 0.425631 0.797603 -0.829223
H24   H     H_    0.783701 0.434638 0.901118 0.229394
H25   H     H_    0.859880 0.397452 0.784878 0.258033
H26   H     H_    0.741565 0.372628 0.759668 0.249778
N6    N     N_2   0.227082 0.413186 0.288905 -0.327061
H27   H     H_    0.289123 0.440243 0.268232 0.221599
C46   C     C_3   0.227203 0.310476 0.302128 -0.762393
H28   H     H_    0.260455 0.277279 0.220784 0.232294
H29   H     H_    0.157532 0.282649 0.303622 0.242994
H30   H     H_    0.264130 0.289268 0.391073 0.257408
N7    N     N_2   0.351264 0.902062 0.773560 -0.286007
H31   H     H_    0.313899 0.845028 0.739379 0.211049
C47   C     C_3   0.399317 0.883459 0.892585 -0.781763
H32   H     H_    0.457451 0.836112 0.876965 0.222050
H33   H     H_    0.353953 0.848108 0.959148 0.237722
H34   H     H_    0.423332 0.951325 0.936664 0.257567
N8    N     N_2   0.642124 0.098119 0.219602 -0.290487
H35   H     H_    0.607780 0.153480 0.176222 0.205045
C48   C     C_3   0.734536 0.120530 0.253775 -0.755585
H36   H     H_    0.738260 0.172237 0.334014 0.227810
H37   H     H_    0.767119 0.152565 0.170982 0.234185
H38   H     H_    0.771649 0.054783 0.281244 0.255978
N9    N     N_2   0.647145 0.901106 0.224754 -0.286016
H39   H     H_    0.685454 0.845077 0.258671 0.212583
C49   C     C_3   0.598299 0.880362 0.106701 -0.781793
H40   H     H_    0.644760 0.850131 0.037356 0.241788
H41   H     H_    0.569020 0.946626 0.065687 0.256396
H42   H     H_    0.543999 0.827897 0.122504 0.228080
N10   N     N_2   0.355169 0.099165 0.777778 -0.291562
H43   H     H_    0.388672 0.155229 0.821861 0.220717
C50   C     C_3   0.262969 0.120196 0.741458 -0.751232
H44   H     H_    0.228617 0.150118 0.824298 0.234672
H45   H     H_    0.227069 0.054175 0.710399 0.253595
H46   H     H_    0.259891 0.173043 0.663140 0.225694

loop_
_geom_bond_atom_site_label_1
_geom_bond_atom_site_label_2
_ccdc_geom_bond_type
O8    Zn2   S    
N6    H27   S    
N7    H31   S    
C27   C29   S    
C14   H14   S    
C47   H32   S    
C9    H9    S    
C10   H10   S    
C1    O4    A    
C32   N4    S    
N5    H23   S    
C47   H34   S    
C39   C41   A    
C44   H20   S    
C15   C19   A    
N9    C49   S    
C17   C23   A    
C4    C42   A    
C18   C24   A    
O6    Zn2   S    
C40   N6    S    
C35   C37   A    
N1    Zn1   S    
C29   C32   S    
C1    O1    A    
C30   C31   S    
C2    O2    A    
C13   N1    A    
C23   N9    S    
C29   C33   S    
C25   O5    A    
N3    C43   S    
C26   O6    A    
O1    Zn1   S    
C11   C17   A    
N10   H43   S    
O7    Zn1   S    
C49   H40   S    
C31   C33   S    
C46   H29   S    
C11   H11   S    
C2    O3    A    
C25   C34   S    
C50   H46   S    
C12   N2    A    
C40   C42   A    
C35   H5    S    
C48   H37   S    
C49   H41   S    
C24   N10   S    
C6    C9    A    
N5    C45   S    
C44   H21   S    
C27   C34   S    
C14   N2    A    
O5    Zn1   S    
C30   C34   S    
C27   C31   S    
C48   H36   S    
C28   C32   S    
C7    H7    S    
C4    C6    A    
C43   H17   S    
C28   H2    S    
C29   H3    S    
C32   C34   S    
N4    H19   S    
O3    Zn1   S    
C26   C33   S    
C45   H24   S    
C15   C21   A    
C16   C20   A    
N10   C50   S    
C46   H30   S    
N4    C44   S    
C39   N5    S    
C1    C38   S    
N2    Zn2   S    
C45   H25   S    
C28   C33   S    
C48   H38   S    
C13   C15   A    
C49   H42   S    
C14   C16   A    
C3    C4    A    
C8    H8    S    
C50   H44   S    
C44   H22   S    
C7    C9    A    
C3    C41   A    
C16   C22   A    
C22   N8    S    
N8    C48   S    
C26   O7    A    
C30   H4    S    
C25   O8    A    
C8    C42   A    
C3    C5    A    
C43   H18   S    
C47   H33   S    
N9    H39   S    
N8    H35   S    
O4    Zn2   S    
C19   C20   A    
C28   C30   S    
C5    C10   A    
C37   C39   A    
C38   C40   A    
C2    C37   S    
N7    C47   S    
C21   N7    S    
C5    C35   A    
C36   C38   A    
C17   C19   A    
C6    C36   A    
C36   H6    S    
C18   C20   A    
C7    C41   A    
N3    H15   S    
C27   H1    S    
C31   N3    S    
C45   H26   S    
C43   H16   S    
O2    Zn2   S    
C8    C10   A    
C21   C24   A    
C12   C18   A    
N6    C46   S    
C22   C23   A    
C50   H45   S    
C46   H28   S    
C11   N1    A    
C12   H12   S    
C13   H13   S    
