data_mof_unit_55442.cif
_audit_creation_date              2012-10-26T20:03:44-0400
_audit_creation_method            fapswitch 2.2
_symmetry_space_group_name_H-M    P1
_symmetry_Int_Tables_number       1
_space_group_crystal_system       triclinic
_cell_length_a                    12.304977
_cell_length_b                    13.160675
_cell_length_c                    15.837935
_cell_angle_alpha                 78.044336
_cell_angle_beta                  101.027249
_cell_angle_gamma                 116.517705
_cell_volume                      2230.87047191

loop_
_atom_site_label
_atom_site_type_symbol
_atom_type_description
_atom_site_fract_x
_atom_site_fract_y
_atom_site_fract_z
_atom_type_partial_charge
C1    C     C_R   0.854876 0.286614 0.506424 0.529095
C2    C     C_R   0.228062 0.834649 0.469130 -0.002681
C3    C     C_R   0.816761 0.083956 0.555121 -0.137336
C4    C     C_R   0.999418 0.499844 0.659964 0.549477
C5    C     C_R   0.738781 0.968328 0.568465 -0.150844
C6    C     C_R   0.614969 0.931040 0.539538 -0.127484
C7    C     C_R   0.566984 0.009195 0.493164 0.031546
C8    C     C_R   0.649624 0.124646 0.469956 0.022581
C9    C     C_R   0.439829 0.976286 0.468221 0.027676
C10   C     C_R   0.398594 0.054712 0.412781 0.051340
C11   C     C_R   0.482964 0.162936 0.381488 -0.140881
C12   C     C_3   0.999387 0.499452 0.917234 0.049880
C13   C     C_R   0.606672 0.196921 0.408571 -0.124074
C14   C     C_R   0.352030 0.868118 0.498011 -0.137584
C15   C     C_R   0.188276 0.913047 0.415259 -0.138446
C16   C     C_R   0.145153 0.713484 0.487245 0.547013
C17   C     C_R   0.773156 0.163672 0.508051 -0.003751
C18   C     C_R   0.338382 0.317213 0.628803 -0.150862
C19   C     C_R   0.763268 0.650494 0.387793 0.053084
C20   C     C_R   0.662496 0.675453 0.355178 -0.005387
C21   C     C_R   0.546783 0.599122 0.383177 0.012779
C22   C     C_R   0.544160 0.523869 0.462924 -0.004130
C23   C     C_3   0.116030 0.540027 0.038130 -0.108693
C24   C     C_R   0.649703 0.501131 0.492241 0.155889
C25   C     C_R   0.441823 0.467507 0.513549 -0.013947
C26   C     C_R   0.439400 0.377817 0.581610 0.033633
C27   C     C_R   0.539438 0.351592 0.604333 -0.171858
C28   C     C_R   0.000572 0.500072 0.340053 0.546450
C29   C     C_R   0.643794 0.414890 0.562977 -0.091860
C30   C     C_R   0.344323 0.499976 0.503395 0.037350
C31   C     C_R   0.241188 0.347758 0.610526 0.041317
C32   C     C_3   0.937071 0.391070 0.037714 -0.088030
C33   C     C_3   0.885415 0.458907 0.963093 0.053004
C34   C     C_3   0.000674 0.499019 0.083167 0.042344
C35   C     C_1   0.998652 0.499903 0.749622 -0.039635
C36   C     C_1   0.001332 0.499553 0.250496 -0.040335
C37   C     C_3   0.052421 0.432392 0.990927 -0.114534
C38   C     C_3   0.754795 0.413003 0.917889 -0.278135
C39   C     C_3   0.661934 0.379898 0.981517 -0.445539
C40   C     C_3   0.433156 0.580166 0.316919 -0.277741
C41   C     C_3   0.355258 0.453906 0.305393 -0.428618
C42   C     C_3   0.681361 0.782803 0.290200 -0.302116
C43   C     C_3   0.772280 0.890810 0.329491 -0.440036
C44   C     C_3   0.062934 0.607057 0.963013 -0.112372
C45   C     C_3   0.947623 0.566351 0.009675 -0.086432
C46   C     C_1   0.998826 0.499781 0.825304 -0.070860
C47   C     C_1   0.001368 0.499200 0.174938 -0.070877
C48   C     C_R   0.273260 0.023022 0.387725 -0.133069
Cu1   Cu    Cu3+1 0.098270 0.475420 0.519690 0.922731
Cu2   Cu    Cu3+1 0.901730 0.524580 0.480310 0.909050
H1    H     H_    0.911187 0.111190 0.583269 0.126853
H2    H     H_    0.568198 0.346916 0.946619 0.135898
H3    H     H_    0.745182 0.479913 0.865344 0.146290
H4    H     H_    0.736530 0.336645 0.888267 0.140074
H5    H     H_    0.377623 0.807450 0.543784 0.119511
H6    H     H_    0.773844 0.907442 0.603848 0.119024
H7    H     H_    0.667790 0.279411 0.378467 0.152607
H8    H     H_    0.539277 0.284598 0.657433 0.107005
H9    H     H_    0.334947 0.247075 0.679767 0.089659
H10   H     H_    0.346020 0.575343 0.460813 0.127471
H11   H     H_    0.849168 0.701086 0.360780 0.130536
H12   H     H_    0.559987 0.840091 0.552593 0.103932
H13   H     H_    0.285528 0.447941 0.248228 0.134721
H14   H     H_    0.413589 0.414642 0.294016 0.144366
H15   H     H_    0.305975 0.403841 0.362402 0.167176
H16   H     H_    0.377444 0.620508 0.330123 0.131973
H17   H     H_    0.460702 0.621918 0.251251 0.135629
H18   H     H_    0.740958 0.895274 0.389375 0.171982
H19   H     H_    0.864689 0.892076 0.345364 0.135232
H20   H     H_    0.778977 0.967897 0.282081 0.138840
H21   H     H_    0.715206 0.777607 0.231740 0.133523
H22   H     H_    0.595420 0.793612 0.269195 0.144354
H23   H     H_    0.161843 0.300092 0.645530 0.119683
H24   H     H_    0.904293 0.620895 0.018605 0.098425
H25   H     H_    0.114727 0.695447 0.931149 0.103408
H26   H     H_    0.211131 0.573369 0.070705 0.101625
H27   H     H_    0.092404 0.888189 0.392040 0.115469
H28   H     H_    0.453242 0.221873 0.336009 0.100583
H29   H     H_    0.885200 0.302652 0.069518 0.097422
H30   H     H_    0.718223 0.393209 0.589248 0.185069
H31   H     H_    0.095669 0.377826 0.981919 0.101854
H32   H     H_    0.241315 0.082421 0.345150 0.102771
H33   H     H_    0.668999 0.311780 0.033903 0.148442
H34   H     H_    0.677624 0.455702 0.010824 0.149151
N1    N     N_R   0.246280 0.438200 0.549540 -0.234827
N2    N     N_R   0.754330 0.561180 0.450980 -0.251798
O1    O     O_R   0.972510 0.318130 0.524770 -0.504632
O2    O     O_R   0.806530 0.359650 0.491510 -0.526419
O3    O     O_R   0.082970 0.479240 0.637550 -0.491077
O4    O     O_R   0.916990 0.520750 0.604290 -0.511850
O5    O     O_R   0.193470 0.640350 0.508490 -0.510445
O6    O     O_R   0.027490 0.681870 0.475230 -0.506569
O7    O     O_R   0.083010 0.479250 0.395710 -0.496154
O8    O     O_R   0.917030 0.520760 0.362450 -0.504879

loop_
_geom_bond_atom_site_label_1
_geom_bond_atom_site_label_2
_ccdc_geom_bond_type
C1    O1    A    
C8    C13   A    
C31   N1    A    
C27   C29   A    
C33   C45   S    
Cu1   O1    S    
C5    H6    S    
C19   C20   A    
C18   C26   A    
C23   H26   S    
C19   N2    A    
C7    C8    A    
C15   H27   S    
C21   C40   S    
C26   C27   A    
C39   H34   S    
C38   C39   S    
C31   H23   S    
C13   H7    S    
C36   C47   T    
C28   O8    A    
C12   C37   S    
C24   C29   A    
Cu2   O4    S    
C43   H18   S    
C22   C25   A    
C30   H10   S    
C2    C16   S    
C9    C10   A    
Cu2   O2    S    
C1    O2    A    
C14   H5    S    
C4    C35   S    
C43   H19   S    
C40   H16   S    
C21   C22   A    
C37   H31   S    
C15   C48   A    
Cu1   O5    S    
C4    O4    A    
Cu1   N1    S    
C12   C46   S    
C3    H1    S    
Cu2   O8    S    
C41   H15   S    
C25   C26   A    
C23   C37   S    
C40   H17   S    
C23   C44   S    
C39   H2    S    
C28   O7    A    
C32   C34   S    
C44   H25   S    
C9    C14   A    
C11   H28   S    
C38   H4    S    
C23   C34   S    
C42   H22   S    
C34   C45   S    
C32   C37   S    
C30   N1    A    
C2    C15   A    
Cu2   O6    S    
C40   C41   S    
C16   O6    A    
C43   H20   S    
C10   C48   A    
C22   C24   A    
C42   C43   S    
C41   H13   S    
C44   C45   S    
C4    O3    A    
C25   C30   A    
C7    C9    A    
C33   C38   S    
Cu1   O3    S    
C3    C5    A    
C27   H8    S    
C20   C42   S    
C6    C7    A    
C34   C47   S    
C1    C17   S    
C8    C17   A    
C32   C33   S    
C6    H12   S    
C39   H33   S    
C12   C44   S    
C32   H29   S    
C11   C13   A    
C29   H30   S    
C5    C6    A    
C38   H3    S    
C19   H11   S    
C42   H21   S    
C48   H32   S    
C3    C17   A    
C2    C14   A    
C10   C11   A    
Cu2   N2    S    
C18   H9    S    
C20   C21   A    
C28   C36   S    
C16   O5    A    
Cu1   Cu2   S    
C45   H24   S    
C18   C31   A    
C41   H14   S    
Cu1   O7    S    
C12   C33   S    
C35   C46   T    
C24   N2    A    
