data_mof_unit_38298.cif
_audit_creation_date              2012-12-11T16:58:21-0500
_audit_creation_method            fapswitch 2.2
_symmetry_space_group_name_H-M    P1
_symmetry_Int_Tables_number       1
_space_group_crystal_system       triclinic
_cell_length_a                    16.909477
_cell_length_b                    7.26386
_cell_length_c                    16.822206
_cell_angle_alpha                 89.892992
_cell_angle_beta                  100.335738
_cell_angle_gamma                 90.131121
_cell_volume                      2032.70340156

loop_
_atom_site_label
_atom_site_type_symbol
_atom_type_description
_atom_site_fract_x
_atom_site_fract_y
_atom_site_fract_z
_atom_type_partial_charge
O1    O     O_R   0.413450 0.494370 0.415710 -0.535354
O2    O     O_R   0.586550 0.994370 0.584290 -0.535135
O3    O     O_R   0.578420 0.819350 0.429360 -0.539594
O4    O     O_R   0.421580 0.319350 0.570640 -0.538902
C1    C     C_R   0.605207 0.657152 0.414349 0.698561
C2    C     C_R   0.394846 0.156552 0.585700 0.695356
O5    O     O_R   0.413570 0.823780 0.406240 -0.540936
O6    O     O_R   0.586430 0.323780 0.593760 -0.541552
O7    O     O_R   0.420530 0.998740 0.561000 -0.536232
O8    O     O_R   0.579470 0.498740 0.439000 -0.536066
C3    C     C_R   0.386073 0.655356 0.383710 0.686046
C4    C     C_R   0.614236 0.155446 0.615975 0.685199
O9    O     O_3   0.502480 0.662320 0.550800 -0.377650
O10   O     O_3   0.497520 0.162320 0.449200 -0.377358
V1    V     V_3+5 0.499540 0.935370 0.490580 1.388030
V2    V     V_3+5 0.500460 0.435370 0.509420 1.387663
C5    C     C_R   0.735100 0.991263 0.694152 0.109655
C6    C     C_R   0.303744 0.488559 0.265399 0.116074
C7    C     C_R   0.685767 0.147455 0.681778 -0.109834
C8    C     C_R   0.319089 0.646866 0.313255 -0.109959
C9    C     C_R   0.709657 0.300528 0.731828 -0.189192
C10   C     C_R   0.269453 0.800519 0.290007 -0.189835
H1    H     H_    0.675033 0.426156 0.723939 0.146311
H2    H     H_    0.279031 0.926781 0.324198 0.143819
C11   C     C_R   0.775541 0.289318 0.796224 -0.187651
C12   C     C_R   0.203429 0.789006 0.225705 -0.191393
H3    H     H_    0.789308 0.407517 0.835304 0.137965
H4    H     H_    0.165160 0.908007 0.211893 0.141928
C13   C     C_R   0.819645 0.124341 0.812895 -0.105095
C14   C     C_R   0.184407 0.622892 0.182975 -0.106900
C15   C     C_R   0.800046 0.979924 0.757815 0.108616
C16   C     C_R   0.238436 0.476931 0.202135 0.117656
C17   C     C_3   0.784887 0.781226 0.771624 -0.428026
C18   C     C_3   0.223848 0.279840 0.219608 -0.434372
C19   C     C_3   0.714006 0.793516 0.701986 -0.404077
C20   C     C_3   0.295244 0.292527 0.288735 -0.408311
H5    H     H_    0.766788 0.755259 0.831029 0.170437
H6    H     H_    0.234927 0.188272 0.169907 0.174005
H7    H     H_    0.834178 0.692619 0.757960 0.175525
H8    H     H_    0.165625 0.257670 0.240207 0.172698
H9    H     H_    0.654855 0.774542 0.721070 0.173742
H10   H     H_    0.347361 0.208105 0.278848 0.177193
H11   H     H_    0.722627 0.711907 0.648355 0.168811
H12   H     H_    0.278306 0.277545 0.349333 0.167693
C21   C     C_R   0.330376 0.159230 0.635214 -0.057303
C22   C     C_R   0.669242 0.662107 0.364332 -0.059040
C23   C     C_R   0.165862 0.110789 0.861111 -0.147057
C24   C     C_R   0.834619 0.608546 0.139604 -0.151624
C25   C     C_R   0.277480 0.945279 0.819847 -0.180090
C26   C     C_R   0.728425 0.432542 0.186687 -0.182690
C27   C     C_R   0.223891 0.969986 0.873047 -0.214749
C28   C     C_R   0.781020 0.458096 0.132558 -0.209526
C29   C     C_R   0.162160 0.228938 0.793658 0.343877
C30   C     C_R   0.834188 0.736486 0.202746 0.339570
C31   C     C_R   0.218028 0.206582 0.740461 0.054225
C32   C     C_R   0.779395 0.712418 0.256969 0.056034
C33   C     C_R   0.275140 0.061688 0.753182 0.102730
C34   C     C_R   0.727135 0.557685 0.249389 0.101370
C35   C     C_R   0.330074 0.037193 0.699927 -0.208329
C36   C     C_R   0.673161 0.532175 0.303586 -0.210925
C37   C     C_R   0.273417 0.302266 0.623027 -0.179071
C38   C     C_R   0.721864 0.814254 0.371759 -0.178202
C39   C     C_R   0.217822 0.325197 0.674444 -0.168462
C40   C     C_R   0.776074 0.839161 0.319103 -0.172355
H13   H     H_    0.374668 0.928734 0.710871 0.115497
H14   H     H_    0.632056 0.416154 0.296334 0.118569
H15   H     H_    0.272646 0.399032 0.573791 0.120861
H16   H     H_    0.720149 0.916995 0.418035 0.124618
H17   H     H_    0.320835 0.834355 0.830903 0.131021
H18   H     H_    0.688711 0.314083 0.179464 0.133410
H19   H     H_    0.175573 0.438094 0.662938 0.153651
H20   H     H_    0.814578 0.959546 0.326730 0.154893
H21   H     H_    0.227060 0.876073 0.923643 0.146516
H22   H     H_    0.780498 0.357225 0.085093 0.152160
O11   O     O_R   0.920630 0.775410 0.061150 -0.508878
O12   O     O_R   0.079370 0.275410 0.938850 -0.509556
O13   O     O_R   0.086500 0.441450 0.093690 -0.540810
O14   O     O_R   0.913500 0.941450 0.906310 -0.539919
C41   C     C_R   0.113894 0.610248 0.116267 0.674149
C42   C     C_R   0.886190 0.110338 0.883617 0.678736
O15   O     O_R   0.921670 0.445960 0.070740 -0.543509
O16   O     O_R   0.078330 0.945960 0.929260 -0.542518
O17   O     O_R   0.913380 0.271130 0.915780 -0.542390
O18   O     O_R   0.086620 0.771130 0.084220 -0.540324
C43   C     C_R   0.896082 0.612757 0.086331 0.706941
C44   C     C_R   0.103995 0.113233 0.913845 0.716416
O19   O     O_3   0.997500 0.603030 0.949220 -0.373753
O20   O     O_3   0.002500 0.103030 0.050780 -0.375401
V3    V     V_3+5 0.000470 0.329940 0.009420 1.424837
V4    V     V_3+5 0.999530 0.829940 0.990580 1.430051
O21   O     O_3   0.104809 0.366627 0.780315 -0.549558
C45   C     C_3   0.034206 0.294688 0.732577 0.102437
H23   H     H_    0.012027 0.170736 0.761055 0.092115
H24   H     H_    0.045072 0.257638 0.671247 0.107723
C46   C     C_3   0.968491 0.439757 0.723594 -0.697225
H25   H     H_    0.987460 0.564077 0.693345 0.210113
H26   H     H_    0.912407 0.384321 0.686794 0.170787
H27   H     H_    0.956258 0.478681 0.783990 0.236158
O22   O     O_3   0.885633 0.886493 0.210446 -0.548412
C47   C     C_3   0.958274 0.837784 0.261620 0.114200
H28   H     H_    0.990337 0.728861 0.233463 0.097748
H29   H     H_    0.947405 0.788087 0.321462 0.100985
C48   C     C_3   0.012432 0.006409 0.275764 -0.706983
H30   H     H_    0.982304 0.117148 0.304571 0.211774
H31   H     H_    0.069738 0.970214 0.316097 0.163467
H32   H     H_    0.025885 0.057649 0.217424 0.231459

loop_
_geom_bond_atom_site_label_1
_geom_bond_atom_site_label_2
_ccdc_geom_bond_type
C2    C21   S    
C20   H10   S    
C46   H25   S    
O1    C3    A    
O2    C4    A    
C2    O7    A    
C46   H27   S    
O14   V4    S    
C24   C30   A    
O13   V3    S    
C17   H7    S    
C22   C38   A    
C18   H8    S    
C7    C9    A    
C28   H22   S    
C41   O18   A    
O14   C42   A    
C33   C35   A    
C34   C36   A    
C25   C33   A    
C37   C39   A    
C47   H28   S    
C38   C40   A    
O11   V4    S    
C17   C19   S    
O11   C43   A    
C25   C27   A    
C31   C39   A    
C29   O21   S    
C26   C28   A    
C32   C40   A    
C19   H11   S    
C18   C20   S    
O12   V3    S    
C23   C29   A    
O15   V3    S    
O13   C41   A    
C36   H14   S    
O6    V2    S    
C25   H17   S    
O18   V4    S    
C42   O17   A    
C47   H29   S    
C29   C31   A    
C11   C13   A    
O17   V3    S    
C30   C32   A    
C3    C8    S    
C15   C17   S    
C26   C34   A    
C23   C44   S    
O4    C2    A    
O21   C45   S    
C23   C27   A    
O5    V1    S    
O16   C44   A    
C47   C48   S    
C17   H5    S    
C16   C18   S    
O4    V2    S    
O5    C3    A    
C37   H15   S    
O22   C47   S    
O6    C4    A    
C45   H24   S    
C48   H31   S    
O1    V2    S    
O2    V1    S    
C14   C41   S    
C39   H19   S    
C12   C14   A    
C31   C33   A    
C5    C15   A    
C10   H2    S    
C30   O22   S    
C20   H12   S    
C6    C16   A    
C45   C46   S    
O12   C44   A    
O3    V1    S    
C9    C11   A    
C21   C35   A    
C22   C36   A    
C18   H6    S    
C24   C43   S    
C27   H21   S    
C8    C10   A    
O3    C1    A    
C46   H26   S    
O9    V2    S    
C11   H3    S    
C1    C22   S    
C12   H4    S    
O16   V4    S    
C38   H16   S    
C9    H1    S    
C26   H18   S    
C1    O8    A    
C13   C15   A    
O8    V2    S    
C35   H13   S    
C14   C16   A    
C13   C42   S    
C4    C7    S    
C21   C37   A    
C45   H23   S    
C5    C7    A    
C32   C34   A    
C48   H32   S    
C6    C8    A    
C40   H20   S    
O7    V1    S    
C19   H9    S    
C24   C28   A    
O20   V3    S    
C10   C12   A    
O19   V4    S    
C48   H30   S    
O10   V1    S    
C5    C19   S    
C6    C20   S    
O15   C43   A    
