data_mof_unit_9765.cif
_audit_creation_date              2012-12-10T21:29:41-0500
_audit_creation_method            fapswitch 2.2
_symmetry_space_group_name_H-M    P1
_symmetry_Int_Tables_number       1
_space_group_crystal_system       triclinic
_cell_length_a                    10.606968
_cell_length_b                    16.028419
_cell_length_c                    16.648816
_cell_angle_alpha                 87.616459
_cell_angle_beta                  90.055519
_cell_angle_gamma                 90.473707
_cell_volume                      2827.9678271

loop_
_atom_site_label
_atom_site_type_symbol
_atom_type_description
_atom_site_fract_x
_atom_site_fract_y
_atom_site_fract_z
_atom_type_partial_charge
C1    C     C_R   0.495742 0.488866 0.653438 0.874337
C2    C     C_R   0.504176 0.511139 0.346563 0.874403
C3    C     C_R   0.477440 0.482021 0.739787 -0.046316
C4    C     C_R   0.521991 0.518019 0.260188 -0.046198
C5    C     C_R   0.429310 0.550412 0.779181 -0.278647
C6    C     C_R   0.570074 0.449706 0.220659 -0.278702
C7    C     C_R   0.413275 0.546357 0.862227 0.019873
C8    C     C_R   0.585553 0.453803 0.137565 0.019934
C9    C     C_R   0.449958 0.472796 0.905628 0.263769
C10   C     C_R   0.548323 0.527314 0.094291 0.263886
C11   C     C_R   0.489208 0.402741 0.865632 -0.198389
C12   C     C_R   0.509068 0.597288 0.134393 -0.198496
C13   C     C_R   0.503052 0.407175 0.782738 -0.231215
C14   C     C_R   0.495794 0.592820 0.217320 -0.231134
C15   C     C_R   0.439058 0.764457 0.460932 -0.032974
C16   C     C_R   0.560950 0.235543 0.539062 -0.033018
C17   C     C_R   0.442938 0.851678 0.463032 -0.247416
C18   C     C_R   0.557070 0.148321 0.536961 -0.247424
C19   C     C_R   0.525680 0.890535 0.516754 0.320551
C20   C     C_R   0.474318 0.109465 0.483246 0.320541
C21   C     C_R   0.603030 0.839695 0.565986 -0.327142
C22   C     C_R   0.396960 0.160305 0.434019 -0.327150
C23   C     C_R   0.739959 0.499198 0.488563 0.895407
C24   C     C_R   0.260044 0.500800 0.511445 0.895386
C25   C     C_R   0.596722 0.752728 0.561529 0.006129
C26   C     C_R   0.403270 0.247272 0.438476 0.006150
C27   C     C_R   0.890514 0.340812 0.479181 -0.195288
C28   C     C_R   0.109492 0.659182 0.520857 -0.195271
C29   C     C_R   0.949718 0.267749 0.509266 0.054518
C30   C     C_R   0.050291 0.732246 0.490773 0.054511
C31   C     C_R   0.058176 0.275637 0.556374 -0.201343
C32   C     C_R   0.941839 0.724362 0.443659 -0.201340
C33   C     C_R   0.111954 0.353928 0.566789 -0.149462
C34   C     C_R   0.888060 0.646072 0.433239 -0.149457
C35   C     C_R   0.059046 0.426499 0.529757 0.082715
C36   C     C_R   0.940961 0.573499 0.470271 0.082711
C37   C     C_R   0.940046 0.421138 0.494612 0.073594
C38   C     C_R   0.059959 0.578858 0.505419 0.073590
C39   C     C_R   0.124443 0.503589 0.524542 -0.248642
C40   C     C_R   0.875564 0.496408 0.475481 -0.248674
H1    H     H_    0.894577 0.778925 0.418156 0.132850
H2    H     H_    0.105444 0.221077 0.581877 0.132843
H3    H     H_    0.618329 0.112176 0.576739 0.160277
H4    H     H_    0.381688 0.887823 0.423247 0.160253
H5    H     H_    0.668020 0.867407 0.607625 0.141162
H6    H     H_    0.331964 0.132593 0.392383 0.141167
H7    H     H_    0.656723 0.713704 0.599567 0.142018
H8    H     H_    0.343263 0.286296 0.400442 0.142039
H9    H     H_    0.808223 0.334221 0.441603 0.158152
H10   H     H_    0.191783 0.665769 0.558436 0.158148
H11   H     H_    0.196890 0.357314 0.602721 0.152984
H12   H     H_    0.803129 0.642690 0.397301 0.152978
H13   H     H_    0.596822 0.393452 0.254677 0.157737
H14   H     H_    0.402985 0.606719 0.745094 0.157850
H15   H     H_    0.516217 0.346405 0.899343 0.160416
H16   H     H_    0.481684 0.653587 0.100765 0.160414
H17   H     H_    0.537915 0.353332 0.752657 0.156475
H18   H     H_    0.460920 0.646598 0.247495 0.156477
H19   H     H_    0.624955 0.265463 0.579751 0.136137
H20   H     H_    0.375061 0.734536 0.420237 0.136107
N1    N     N_2   0.463468 0.471452 0.989367 -0.193007
N2    N     N_2   0.534621 0.528720 0.010566 -0.193125
N3    N     N_R   0.515300 0.716920 0.509720 -0.092742
N4    N     N_R   0.484700 0.283080 0.490280 -0.092744
N5    N     N_2   0.534201 0.979097 0.523740 -0.192780
N6    N     N_2   0.465794 0.020903 0.476260 -0.192783
O1    O     O_R   0.494530 0.422540 0.612660 -0.626812
O2    O     O_R   0.505470 0.577460 0.387340 -0.626841
O3    O     O_R   0.504350 0.561840 0.618900 -0.623273
O4    O     O_R   0.495650 0.438160 0.381100 -0.623242
O5    O     O_R   0.678310 0.430340 0.496890 -0.623547
O6    O     O_R   0.321690 0.569660 0.503110 -0.623569
O7    O     O_R   0.688140 0.569650 0.503130 -0.612517
O8    O     O_R   0.311860 0.430350 0.496870 -0.612536
Zn1   Zn    Zn3+2 0.493440 0.406980 0.495830 0.929134
Zn2   Zn    Zn3+2 0.506560 0.593020 0.504170 0.929115
C41   C     C_R   0.899881 0.183554 0.490851 0.113524
C42   C     C_R   0.853083 0.167694 0.413714 -0.159237
C43   C     C_R   0.810668 0.087778 0.395659 -0.135910
C44   C     C_R   0.814673 0.022785 0.454064 -0.082348
C45   C     C_R   0.859733 0.037747 0.530983 -0.121305
C46   C     C_R   0.902108 0.117554 0.549447 -0.192708
H21   H     H_    0.851776 0.216498 0.366797 0.119919
H22   H     H_    0.775549 0.076097 0.336082 0.126214
H23   H     H_    0.782656 0.960842 0.439779 0.128689
H24   H     H_    0.862221 0.987374 0.576300 0.134204
H25   H     H_    0.935773 0.127684 0.609683 0.121582
C47   C     C_R   0.100125 0.816438 0.509197 0.113526
C48   C     C_R   0.097940 0.882436 0.450596 -0.192711
C49   C     C_R   0.140308 0.962241 0.469069 -0.121248
C50   C     C_R   0.185315 0.977205 0.546001 -0.082339
C51   C     C_R   0.189275 0.912214 0.604411 -0.135935
C52   C     C_R   0.146871 0.832298 0.586346 -0.159235
H26   H     H_    0.064314 0.872303 0.390350 0.121585
H27   H     H_    0.137856 0.012613 0.423747 0.134186
H28   H     H_    0.217325 0.039147 0.560292 0.128673
H29   H     H_    0.224347 0.923897 0.664001 0.126234
H30   H     H_    0.148144 0.783494 0.633265 0.119954
C53   C     C_R   0.638362 0.381080 0.096768 0.131313
C54   C     C_R   0.593201 0.299772 0.115317 -0.162218
C55   C     C_R   0.641871 0.231733 0.075927 -0.147228
C56   C     C_R   0.735984 0.244109 0.017897 -0.125505
C57   C     C_R   0.781940 0.324526 0.999310 -0.149091
C58   C     C_R   0.733737 0.392742 0.038609 -0.129912
H31   H     H_    0.519152 0.289099 0.159402 0.126669
H32   H     H_    0.606263 0.169392 0.090214 0.125686
H33   H     H_    0.773340 0.191377 0.987351 0.121825
H34   H     H_    0.855011 0.334033 0.954433 0.130441
H35   H     H_    0.770981 0.454595 0.023809 0.128688
C59   C     C_R   0.360600 0.619226 0.902856 0.131407
C60   C     C_R   0.264665 0.607846 0.960669 -0.130068
C61   C     C_R   0.216538 0.676222 0.999763 -0.149125
C62   C     C_R   0.263173 0.756509 0.981334 -0.125501
C63   C     C_R   0.357896 0.768593 0.923671 -0.147244
C64   C     C_R   0.406463 0.700401 0.884474 -0.162143
H36   H     H_    0.226916 0.546088 0.975342 0.128574
H37   H     H_    0.142996 0.666945 0.044346 0.130419
H38   H     H_    0.225884 0.809369 0.011710 0.121818
H39   H     H_    0.394040 0.830837 0.909514 0.125666
H40   H     H_    0.480968 0.710841 0.840676 0.126698

loop_
_geom_bond_atom_site_label_1
_geom_bond_atom_site_label_2
_ccdc_geom_bond_type
O5    Zn1   S    
C55   C56   A    
C31   H2    S    
C27   C29   A    
C15   H20   S    
C2    C4    S    
C60   C61   A    
O6    Zn2   S    
C63   C64   A    
C49   H27   S    
C41   C42   A    
C54   H31   S    
C9    N1    S    
C20   N6    S    
C35   C37   A    
C8    C53   S    
C37   C40   A    
C2    O2    A    
C43   H22   S    
C13   H17   S    
N3    Zn2   S    
C46   H25   S    
C24   C39   S    
O3    Zn2   S    
C15   C17   A    
C25   N3    A    
C48   H26   S    
C26   N4    A    
C59   C60   A    
C54   C55   A    
C17   C19   A    
C50   H28   S    
C28   H10   S    
C42   H21   S    
C32   H1    S    
C31   C33   A    
C60   H36   S    
C25   H7    S    
C18   C20   A    
C45   H24   S    
C3    C13   A    
C26   H8    S    
C53   C58   A    
C10   N2    S    
C23   O7    A    
C61   C62   A    
C51   H29   S    
C45   C46   A    
C21   H5    S    
C14   H18   S    
O8    Zn1   S    
C56   C57   A    
C23   O5    A    
C5    H14   S    
C36   C40   A    
C4    C6    A    
C50   C51   A    
C5    C7    A    
C42   C43   A    
C6    C8    A    
C1    O3    A    
C33   H11   S    
C43   C44   A    
C1    C3    S    
C16   H19   S    
C32   C34   A    
C35   C39   A    
C44   H23   S    
C53   C54   A    
C28   C38   A    
C56   H33   S    
C9    C11   A    
C12   H16   S    
C10   C12   A    
C16   C18   A    
C22   H6    S    
C12   C14   A    
N5    N6    D    
O7    Zn2   S    
O1    Zn1   S    
C6    H13   S    
C30   C47   S    
C57   C58   A    
C11   H15   S    
C24   O6    A    
C62   C63   A    
C55   H32   S    
C7    C9    A    
C21   C25   A    
C47   C52   A    
C19   C21   A    
C63   H39   S    
C20   C22   A    
C44   C45   A    
C3    C5    A    
C1    O1    A    
O2    Zn2   S    
C34   H12   S    
C7    C59   S    
C61   H37   S    
C28   C30   A    
C17   H4    S    
C29   C31   A    
C18   H3    S    
C30   C32   A    
C11   C13   A    
C24   O8    A    
C49   C50   A    
C38   C39   A    
C41   C46   A    
C27   C37   A    
C59   C64   A    
C36   C38   A    
C51   C52   A    
C33   C35   A    
N4    Zn1   S    
C19   N5    S    
C34   C36   A    
C4    C14   A    
N1    N2    D    
C62   H38   S    
C27   H9    S    
C29   C41   S    
C47   C48   A    
C8    C10   A    
C64   H40   S    
C22   C26   A    
O4    Zn1   S    
C15   N3    A    
C58   H35   S    
C57   H34   S    
C16   N4    A    
C48   C49   A    
C2    O4    A    
C52   H30   S    
C23   C40   S    
