data_mof_unit_18743.cif
_audit_creation_date              2012-12-10T17:07:03-0500
_audit_creation_method            fapswitch 2.2
_symmetry_space_group_name_H-M    P1
_symmetry_Int_Tables_number       1
_space_group_crystal_system       triclinic
_cell_length_a                    18.210559
_cell_length_b                    18.324186
_cell_length_c                    18.329234
_cell_angle_alpha                 120.061503
_cell_angle_beta                  119.690168
_cell_angle_gamma                 60.20056
_cell_volume                      4339.4746716

loop_
_atom_site_label
_atom_site_type_symbol
_atom_type_description
_atom_site_fract_x
_atom_site_fract_y
_atom_site_fract_z
_atom_type_partial_charge
C1    C     C_R   0.140032 0.859587 0.639918 0.865493
C2    C     C_R   0.920941 0.318002 0.971416 -0.170511
C3    C     C_R   0.974424 0.263612 0.917082 0.465663
C4    C     C_R   0.861469 0.140110 0.360003 0.873487
C5    C     C_R   0.936167 0.223229 0.825929 -0.203370
C6    C     C_R   0.919360 0.276726 0.383696 -0.125592
C7    C     C_R   0.945631 0.342693 0.395705 -0.104424
C8    C     C_R   0.892155 0.396219 0.342409 -0.128350
C9    C     C_R   0.812040 0.384123 0.276609 -0.163525
C10   C     C_R   0.782969 0.318702 0.263969 0.103147
C11   C     C_R   0.837561 0.264105 0.318553 0.090236
C12   C     C_R   0.562742 0.281658 0.673645 -0.225089
C13   C     C_R   0.810403 0.196219 0.303988 -0.093273
C14   C     C_R   0.733307 0.180326 0.233747 -0.149275
C15   C     C_R   0.680096 0.233519 0.180416 -0.168709
C16   C     C_R   0.140068 0.139753 0.638340 0.849521
C17   C     C_R   0.702708 0.303874 0.196096 -0.079012
C18   C     C_R   0.667849 0.936330 0.245367 0.396879
C19   C     C_R   0.581983 0.963091 0.186125 -0.046270
C20   C     C_R   0.532208 0.905805 0.131603 -0.193698
C21   C     C_R   0.567365 0.820427 0.135041 -0.155399
C22   C     C_R   0.654855 0.789393 0.191740 0.077786
C23   C     C_R   0.656313 0.264905 0.712372 0.094686
C24   C     C_R   0.707280 0.847268 0.247849 0.010202
C25   C     C_R   0.794804 0.813469 0.305143 -0.038357
C26   C     C_R   0.825282 0.729051 0.310366 -0.202422
C27   C     C_R   0.773177 0.674404 0.256699 -0.179467
C28   C     C_R   0.857834 0.862195 0.360223 0.859014
C29   C     C_R   0.689693 0.702677 0.196032 -0.017009
C30   C     C_R   0.077438 0.748513 0.657828 -0.177585
C31   C     C_R   0.036129 0.726798 0.687571 -0.267692
C32   C     C_R   0.074117 0.724927 0.774148 0.402387
C33   C     C_R   0.159533 0.733116 0.826643 0.392250
C34   C     C_R   0.710583 0.207650 0.657478 -0.005789
C35   C     C_R   0.208809 0.736573 0.788455 -0.094195
C36   C     C_R   0.160553 0.763067 0.713008 0.007830
C37   C     C_R   0.196061 0.807477 0.699952 -0.217926
C38   C     C_R   0.284311 0.809112 0.753140 0.288234
C39   C     C_R   0.342373 0.744188 0.793954 0.191131
C40   C     C_R   0.140121 0.861330 0.360175 0.858712
C41   C     C_R   0.303909 0.710796 0.817654 -0.235894
C42   C     C_R   0.178701 0.945440 0.282278 0.378482
C43   C     C_R   0.199470 0.978575 0.243226 -0.079046
C44   C     C_R   0.253990 0.921879 0.190359 -0.135541
C45   C     C_R   0.696171 0.305078 0.804446 -0.082643
C46   C     C_R   0.288503 0.830707 0.175018 -0.090462
C47   C     C_R   0.268398 0.794083 0.212040 0.062779
C48   C     C_R   0.213029 0.851454 0.267141 0.023286
C49   C     C_R   0.196348 0.811334 0.304580 -0.036985
C50   C     C_R   0.233993 0.719421 0.288760 -0.181149
C51   C     C_R   0.287093 0.664768 0.234904 -0.152667
C52   C     C_R   0.859067 0.139649 0.638751 0.801577
C53   C     C_R   0.303768 0.701038 0.195981 -0.019919
C54   C     C_R   0.279756 0.114177 0.583934 -0.189152
C55   C     C_R   0.348545 0.100368 0.560095 0.475957
C56   C     C_R   0.788921 0.291877 0.842495 0.075686
C57   C     C_R   0.402079 0.154264 0.614464 -0.162743
C58   C     C_R   0.386744 0.222655 0.692373 -0.221353
C59   C     C_R   0.319446 0.235985 0.719987 0.051550
C60   C     C_R   0.265245 0.180759 0.664669 0.031890
C61   C     C_R   0.196330 0.195385 0.690379 -0.119936
C62   C     C_R   0.180137 0.263948 0.767792 -0.228595
C63   C     C_R   0.233631 0.317636 0.823916 0.423649
C64   C     C_R   0.670353 0.164475 0.565797 -0.229025
C65   C     C_R   0.303651 0.303912 0.800227 -0.202178
C66   C     C_R   0.639214 0.640897 0.139897 0.754955
C67   C     C_R   0.843003 0.236797 0.787311 0.010985
C68   C     C_R   0.359884 0.360088 0.859170 0.882833
C69   C     C_R   0.641578 0.359953 0.140023 0.795415
C70   C     C_R   0.359898 0.644181 0.863522 0.858442
C71   C     C_R   0.359870 0.640047 0.139863 0.777881
C72   C     C_R   0.640590 0.360454 0.861005 0.770522
C73   C     C_R   0.578036 0.179397 0.529544 0.536656
C74   C     C_R   0.524366 0.239998 0.583260 -0.241405
C75   C     C_R   0.803356 0.195273 0.695313 -0.084860
C76   C     C_R   0.829199 0.332100 0.934906 -0.210788
Cl1   Cl    Cl    0.090080 0.245147 0.963318 -0.514637
Cl2   Cl    Cl    0.714693 0.022780 0.318733 -0.617266
Cl3   Cl    Cl    0.012956 0.713365 0.815577 -0.452005
Cl4   Cl    Cl    0.191082 0.765031 0.943701 -0.549744
Cl5   Cl    Cl    0.111304 0.028151 0.349968 -0.691887
Cl6   Cl    Cl    0.367113 0.015773 0.461068 -0.556803
H1    H     H_    0.964855 0.234892 0.424686 0.165683
H2    H     H_    0.709993 0.118613 0.521845 0.189597
H3    H     H_    0.799022 0.608648 0.261089 0.138443
H4    H     H_    0.044079 0.752694 0.591545 0.181062
H5    H     H_    0.971707 0.717410 0.645401 0.199729
H6    H     H_    0.221362 0.689549 0.317858 0.144630
H7    H     H_    0.173752 0.049566 0.254745 0.181885
H8    H     H_    0.269949 0.948848 0.161298 0.166076
H9    H     H_    0.331363 0.789181 0.133989 0.139527
H10   H     H_    0.315021 0.593532 0.223047 0.146457
H11   H     H_    0.126481 0.273803 0.785597 0.210042
H12   H     H_    0.008443 0.351479 0.445816 0.151821
H13   H     H_    0.237949 0.072694 0.538091 0.200592
H14   H     H_    0.455447 0.143437 0.595917 0.190312
H15   H     H_    0.427942 0.264776 0.729613 0.157605
H16   H     H_    0.452564 0.254290 0.555650 0.195962
H17   H     H_    0.518138 0.327204 0.712643 0.141013
H18   H     H_    0.790431 0.374552 0.979878 0.138309
H19   H     H_    0.950435 0.349302 0.042248 0.173438
H20   H     H_    0.980289 0.180855 0.786220 0.158575
H21   H     H_    0.713057 0.127532 0.221336 0.197678
H22   H     H_    0.372857 0.929371 0.928009 0.331611
H23   H     H_    0.913475 0.446546 0.351200 0.140234
H24   H     H_    0.487026 0.775222 0.941651 0.328995
H25   H     H_    0.404653 0.094240 0.334996 0.394153
H26   H     H_    0.294229 0.455192 0.058985 0.369365
H27   H     H_    0.774654 0.425257 0.234907 0.138990
H28   H     H_    0.619585 0.220988 0.127724 0.180742
H29   H     H_    0.891176 0.704361 0.355219 0.139593
H30   H     H_    0.552148 0.030296 0.184142 0.196567
H31   H     H_    0.464991 0.928449 0.087749 0.155862
H32   H     H_    0.524491 0.779634 0.093723 0.135040
O1    O     O_3   0.000000 0.000000 0.500000 -0.513005
O2    O     O_R   0.323460 0.615830 0.884170 -0.616065
O3    O     O_R   0.444880 0.615840 0.176480 -0.629880
O4    O     O_R   0.055060 0.884200 0.615800 -0.661160
O5    O     O_R   0.615800 0.444940 0.884180 -0.600077
O6    O     O_R   0.323440 0.615840 0.055040 -0.569313
O7    O     O_R   0.615780 0.323500 0.884180 -0.645367
O8    O     O_R   0.615760 0.323500 0.055050 -0.621880
O9    O     O_R   0.444910 0.615830 0.884180 -0.574574
O10   O     O_R   0.615780 0.615830 0.176490 -0.636826
O11   O     O_R   0.323430 0.444950 0.884170 -0.584206
O12   O     O_R   0.055100 0.176520 0.615800 -0.646613
O13   O     O_R   0.884210 0.176520 0.444920 -0.640267
O14   O     O_R   0.176540 0.055080 0.615800 -0.592597
O15   O     O_R   0.884190 0.884200 0.323480 -0.607932
O16   O     O_R   0.176540 0.884190 0.444930 -0.619337
O17   O     O_R   0.884180 0.055090 0.615790 -0.624297
O18   O     O_R   0.055100 0.884190 0.323490 -0.607293
O19   O     O_R   0.884190 0.176530 0.615790 -0.621888
O20   O     O_2   0.346954 0.888917 0.716286 -0.167816
O21   O     O_2   0.237758 0.986898 0.795312 -0.299536
O22   O     O_3   0.399862 0.912161 0.883845 -0.492236
O23   O     O_R   0.884180 0.884200 0.444920 -0.637557
O24   O     O_2   0.482235 0.599363 0.754457 -0.244604
O25   O     O_2   0.473836 0.736133 0.755353 -0.164460
O26   O     O_3   0.524861 0.720741 0.907661 -0.459197
O27   O     O_2   0.529239 0.156881 0.358751 -0.269407
O28   O     O_2   0.584488 0.023598 0.396651 -0.287411
O29   O     O_3   0.424038 0.134167 0.397167 -0.541320
O30   O     O_2   0.164341 0.489514 0.914279 -0.233933
O31   O     O_2   0.155376 0.379629 0.945644 -0.227711
O32   O     O_3   0.309855 0.399336 0.009809 -0.569423
O33   O     O_R   0.176510 0.884190 0.615800 -0.579244
O34   O     O_R   0.884210 0.055080 0.323480 -0.580057
O35   O     O_3   0.499970 0.500030 0.999970 -0.522954
O36   O     O_R   0.615800 0.615830 0.055050 -0.615096
O37   O     O_R   0.444880 0.323510 0.884180 -0.637047
O38   O     O_R   0.615760 0.444950 0.176490 -0.636753
S1    S     S_3+6 0.316177 0.901818 0.785651 0.111401
S2    S     S_3+6 0.457545 0.698904 0.800641 0.129691
S3    S     S_3+6 0.529726 0.121168 0.417076 0.038265
S4    S     S_3+6 0.212606 0.399081 0.924792 0.075310
Zn1   Zn    Zn3+2 0.956630 0.130130 0.543370 1.038993
Zn2   Zn    Zn3+2 0.130140 0.956620 0.543380 1.084108
Zn3   Zn    Zn3+2 0.956630 0.956620 0.369870 1.069440
Zn4   Zn    Zn3+2 0.956610 0.956630 0.543370 1.009624
Zn5   Zn    Zn3+2 0.543340 0.369890 0.956600 0.996550
Zn6   Zn    Zn3+2 0.543340 0.543410 0.130100 0.990345
Zn7   Zn    Zn3+2 0.369830 0.543410 0.956590 1.070410
Zn8   Zn    Zn3+2 0.543370 0.543400 0.956600 1.039028

loop_
_geom_bond_atom_site_label_1
_geom_bond_atom_site_label_2
_ccdc_geom_bond_type
C63   C65   A    
C17   C69   S    
C56   C76   A    
C22   C29   A    
C12   C74   A    
C72   O7    A    
C27   C29   A    
C73   C74   A    
O2    Zn7   S    
O4    Zn4   S    
C35   C36   A    
C5    C67   A    
C52   C75   S    
C8    H23   S    
C57   C58   A    
O14   Zn2   S    
C7    C8    A    
C74   H16   S    
C54   C60   A    
C19   H30   S    
C25   C28   S    
C58   H15   S    
C12   C23   A    
C26   C27   A    
C62   C63   A    
O8    Zn5   S    
C71   O6    A    
O1    Zn1   S    
C23   C45   A    
C36   C37   A    
C63   S4    S    
C18   C19   A    
C20   H31   S    
O20   S1    D    
C10   C17   A    
C40   C49   S    
C4    O34   A    
C28   O15   A    
C46   C47   A    
C4    C13   S    
C27   H3    S    
C64   H2    S    
C12   H17   S    
O6    Zn7   S    
C54   C55   A    
O31   S4    D    
O29   S3    S    
C70   O9    A    
C47   C48   A    
C45   C56   A    
C8    C9    A    
O37   Zn5   S    
C57   H14   S    
C64   C73   A    
O35   Zn7   S    
O28   S3    D    
C30   H4    S    
C9    C10   A    
O13   Zn1   S    
O10   Zn6   S    
C61   C62   A    
O23   Zn4   S    
C50   H6    S    
C34   C75   A    
C47   C53   A    
O24   S2    D    
C40   O18   A    
C59   C60   A    
C13   C14   A    
C45   C72   S    
C52   O19   A    
C52   O17   A    
C15   H28   S    
O11   Zn7   S    
C42   Cl5   S    
C44   C46   A    
H26   O32   S    
C9    H27   S    
O18   Zn3   S    
C31   H5    S    
C71   O3    A    
C39   S2    S    
O9    Zn8   S    
C24   C25   A    
C18   C24   A    
C39   C41   A    
C6    C11   A    
O27   S3    D    
C46   H9    S    
O1    Zn2   S    
C2    H19   S    
C70   O2    A    
C25   C26   A    
O1    Zn3   S    
C60   C61   A    
C51   C53   A    
O34   Zn3   S    
O30   S4    D    
C43   C44   A    
C37   C38   A    
C51   H10   S    
H24   O26   S    
C31   C32   A    
C30   C31   A    
C18   Cl2   S    
C65   C68   S    
O7    Zn5   S    
C73   S3    S    
C34   C64   A    
C50   C51   A    
O32   S4    S    
O35   Zn8   S    
C42   C48   A    
C55   Cl6   S    
C16   O14   A    
C54   H13   S    
C48   C49   A    
O19   Zn1   S    
C55   C57   A    
C22   C24   A    
C1    O33   A    
O35   Zn5   S    
C16   C61   S    
H25   O29   S    
C53   C71   S    
O15   Zn3   S    
C2    C76   A    
O12   Zn1   S    
C15   C17   A    
C7    H12   S    
C40   O16   A    
C5    H20   S    
C23   C34   A    
C6    H1    S    
H22   O22   S    
C4    O13   A    
C69   O38   A    
C28   O23   A    
C21   H32   S    
C3    C5    A    
O21   S1    D    
O5    Zn8   S    
C33   Cl4   S    
C66   O36   A    
C6    C7    A    
C1    C37   S    
O3    Zn6   S    
C76   H18   S    
C56   C67   A    
O36   Zn8   S    
O25   S2    D    
C30   C36   A    
O1    Zn4   S    
O16   Zn2   S    
C32   C33   A    
C19   C20   A    
C2    C3    A    
C58   C59   A    
C68   O37   A    
C59   C65   A    
C32   Cl3   S    
O22   S1    S    
C11   C13   A    
C14   H21   S    
C38   C39   A    
C69   O8    A    
C26   H29   S    
C72   O5    A    
C33   C35   A    
C66   O10   A    
C1    O4    A    
C43   H7    S    
O17   Zn4   S    
C35   C41   A    
C10   C11   A    
C29   C66   S    
C67   C75   A    
C20   C21   A    
C49   C50   A    
C42   C43   A    
C62   H11   S    
C14   C15   A    
O35   Zn6   S    
C38   S1    S    
C21   C22   A    
O33   Zn2   S    
C16   O12   A    
C68   O11   A    
O38   Zn6   S    
O26   S2    S    
C41   C70   S    
C44   H8    S    
C3    Cl1   S    
