data_mof_unit_63369.cif
_audit_creation_date              2012-12-10T18:58:42-0500
_audit_creation_method            fapswitch 2.2
_symmetry_space_group_name_H-M    P1
_symmetry_Int_Tables_number       1
_space_group_crystal_system       triclinic
_cell_length_a                    10.634897
_cell_length_b                    9.939437
_cell_length_c                    17.5855
_cell_angle_alpha                 90.000378
_cell_angle_beta                  93.130099
_cell_angle_gamma                 89.999645
_cell_volume                      1856.10011132

loop_
_atom_site_label
_atom_site_type_symbol
_atom_type_description
_atom_site_fract_x
_atom_site_fract_y
_atom_site_fract_z
_atom_type_partial_charge
C1    C     C_R   0.261198 0.500001 0.509246 0.942230
C2    C     C_R   0.498997 0.500000 0.646281 0.874891
C3    C     C_R   0.872779 0.499998 0.481331 -0.274886
C4    C     C_R   0.127221 0.500002 0.518669 -0.274886
C5    C     C_R   0.494531 0.622221 0.847380 -0.147872
C6    C     C_R   0.505469 0.377779 0.152620 -0.147872
C7    C     C_R   0.505492 0.622219 0.152622 -0.147871
C8    C     C_R   0.494509 0.377781 0.847378 -0.147871
C9    C     C_R   0.494504 0.622414 0.768599 -0.159211
C10   C     C_R   0.505496 0.377586 0.231401 -0.159211
C11   C     C_R   0.505518 0.622412 0.231402 -0.159209
C12   C     C_R   0.738802 0.499999 0.490754 0.942230
C13   C     C_R   0.494482 0.377588 0.768598 -0.159209
C14   C     C_R   0.495984 0.500001 0.728812 -0.038857
C15   C     C_R   0.504016 0.499999 0.271188 -0.038857
C16   C     C_R   0.578955 0.071762 0.549891 0.176171
C17   C     C_R   0.421045 0.928238 0.450109 0.176171
C18   C     C_R   0.421045 0.071762 0.450109 0.176169
C19   C     C_R   0.578955 0.928238 0.549891 0.176169
C20   C     C_R   0.495332 0.500001 0.886175 0.150260
C21   C     C_R   0.504668 0.499999 0.113825 0.150260
C22   C     C_1   0.498471 0.500000 0.966240 -0.045521
C23   C     C_1   0.501530 0.500000 0.033760 -0.045520
C24   C     C_R   0.062077 0.377186 0.513678 0.156481
C25   C     C_R   0.937923 0.622813 0.486322 0.156480
C26   C     C_R   0.937926 0.377183 0.486328 0.156487
C27   C     C_R   0.062074 0.622817 0.513672 0.156487
C28   C     C_R   0.501002 0.500000 0.353719 0.874891
H1    H     H_    0.494588 0.716885 0.877987 0.144859
H2    H     H_    0.505413 0.283115 0.122013 0.144859
H3    H     H_    0.505453 0.716883 0.122016 0.144859
H4    H     H_    0.494547 0.283117 0.877984 0.144859
H5    H     H_    0.493765 0.718054 0.739138 0.182684
H6    H     H_    0.506235 0.281946 0.260862 0.182684
H7    H     H_    0.506274 0.718052 0.260865 0.182683
H8    H     H_    0.493726 0.281948 0.739135 0.182683
I1    I     I_    0.704774 0.175347 0.628941 -0.226859
I2    I     I_    0.295226 0.824653 0.371059 -0.226859
I3    I     I_    0.295222 0.175348 0.371062 -0.226866
I4    I     I_    0.704778 0.824652 0.628938 -0.226866
I5    I     I_    0.135434 0.198086 0.567366 -0.190738
I6    I     I_    0.864566 0.801914 0.432634 -0.190738
I7    I     I_    0.864574 0.198072 0.432651 -0.190721
I8    I     I_    0.135426 0.801928 0.567349 -0.190721
N1    N     N_R   0.500000 0.857200 0.500000 -0.147542
N2    N     N_R   0.500000 0.142800 0.500000 -0.147541
O1    O     O_R   0.316770 0.614620 0.500000 -0.578084
O2    O     O_R   0.683230 0.385380 0.500000 -0.578084
O3    O     O_R   0.683230 0.614620 0.500000 -0.578082
O4    O     O_R   0.316770 0.385380 0.500000 -0.578082
O5    O     O_R   0.500010 0.614710 0.389120 -0.605498
O6    O     O_R   0.499990 0.385290 0.610880 -0.605498
O7    O     O_R   0.499990 0.614710 0.610880 -0.605500
O8    O     O_R   0.500010 0.385290 0.389120 -0.605500
Zn1   Zn    Zn3+2 0.500000 0.653120 0.500000 1.035542
Zn2   Zn    Zn3+2 0.500000 0.346880 0.500000 1.035542

loop_
_geom_bond_atom_site_label_1
_geom_bond_atom_site_label_2
_ccdc_geom_bond_type
C25   I6    S    
C6    C10   A    
C9    H5    S    
C9    C14   A    
C19   N1    A    
C5    C9    A    
C8    C13   A    
C25   C27   A    
C1    O4    A    
O5    Zn1   S    
C12   O2    A    
C16   I1    S    
C18   I3    S    
C1    C4    S    
C11   H7    S    
C17   C18   A    
C10   H6    S    
C5    C20   A    
C7    C21   A    
C13   C14   A    
C7    C11   A    
C24   I5    S    
C24   C26   A    
C15   C28   S    
C8    C20   A    
C2    O6    A    
C16   C19   A    
C4    C24   A    
C18   N2    A    
C6    H2    S    
C17   N1    A    
C26   I7    S    
C12   O3    A    
C5    H1    S    
C10   C15   A    
O7    Zn1   S    
C21   C23   S    
C2    C14   S    
C28   O5    A    
O8    Zn2   S    
C7    H3    S    
C19   I4    S    
C16   N2    A    
C8    H4    S    
C3    C25   A    
C4    C27   A    
C17   I2    S    
N1    Zn1   S    
C13   H8    S    
O1    Zn1   S    
N2    Zn2   S    
O2    Zn2   S    
C28   O8    A    
C22   C23   T    
C1    O1    A    
C3    C12   S    
O3    Zn1   S    
C6    C21   A    
C11   C15   A    
C27   I8    S    
C3    C26   A    
O4    Zn2   S    
O6    Zn2   S    
C20   C22   S    
C2    O7    A    
