data_mof_unit_65909.cif
_audit_creation_date              2012-12-10T20:14:13-0500
_audit_creation_method            fapswitch 2.2
_symmetry_space_group_name_H-M    P1
_symmetry_Int_Tables_number       1
_space_group_crystal_system       triclinic
_cell_length_a                    19.314866
_cell_length_b                    18.468951
_cell_length_c                    10.506973
_cell_angle_alpha                 89.640086
_cell_angle_beta                  90.31641
_cell_angle_gamma                 89.913862
_cell_volume                      3747.96770572

loop_
_atom_site_label
_atom_site_type_symbol
_atom_type_description
_atom_site_fract_x
_atom_site_fract_y
_atom_site_fract_z
_atom_type_partial_charge
C1    C     C_R   0.365636 0.500037 0.500021 1.044987
C2    C     C_R   0.634365 0.499961 0.500084 1.044842
C3    C     C_R   0.964201 0.548927 0.578533 0.596113
C4    C     C_R   0.035809 0.450987 0.424499 0.595868
C5    C     C_R   0.035977 0.548866 0.578897 0.591494
C6    C     C_R   0.964040 0.451046 0.424137 0.591219
C7    C     C_R   0.071652 0.499905 0.501858 -0.259291
C8    C     C_R   0.928361 0.500026 0.501130 -0.259277
C9    C     C_R   0.541687 0.725699 0.582973 0.586470
C10   C     C_R   0.458333 0.274303 0.416988 0.586471
C11   C     C_R   0.458560 0.726444 0.416657 0.587533
C12   C     C_R   0.541412 0.273553 0.583386 0.587637
C13   C     C_R   0.542539 0.801763 0.584622 0.465807
C14   C     C_R   0.457479 0.198239 0.415338 0.465822
C15   C     C_R   0.457700 0.802519 0.415064 0.461602
C16   C     C_R   0.542272 0.197478 0.584972 0.461588
C17   C     C_R   0.500076 0.841523 0.499925 -0.376772
C18   C     C_R   0.499920 0.158477 0.500070 -0.376796
C19   C     C_R   0.437493 0.962019 0.501148 -0.080922
C20   C     C_R   0.562502 0.037983 0.498844 -0.080942
C21   C     C_R   0.562546 0.961907 0.498811 -0.076760
C22   C     C_R   0.437449 0.038095 0.501176 -0.076752
C23   C     C_R   0.499954 0.077201 0.500022 0.245234
C24   C     C_R   0.500041 0.922800 0.499969 0.245185
C25   C     C_R   0.499917 0.500269 0.257024 0.880789
C26   C     C_R   0.500083 0.499731 0.742975 0.880680
C27   C     C_3   0.499417 0.569169 0.039271 -0.072429
C28   C     C_3   0.500583 0.430830 0.960728 -0.072321
C29   C     C_3   0.556731 0.534551 0.957853 -0.130864
C30   C     C_3   0.443269 0.465449 0.042146 -0.130784
C31   C     C_3   0.442745 0.533710 0.956560 -0.164576
C32   C     C_3   0.557255 0.466290 0.043439 -0.164557
C33   C     C_3   0.500058 0.499179 0.877855 -0.033563
C34   C     C_3   0.499942 0.500821 0.122145 -0.033626
C35   C     C_R   0.746168 0.439735 0.548439 0.504720
C36   C     C_R   0.253690 0.560285 0.452887 0.504815
C37   C     C_R   0.254406 0.439831 0.549098 0.505285
C38   C     C_R   0.745749 0.560181 0.452195 0.505634
C39   C     C_R   0.817922 0.439925 0.548647 0.620996
C40   C     C_R   0.181937 0.560127 0.453581 0.620734
C41   C     C_R   0.182644 0.439954 0.549551 0.629514
C42   C     C_R   0.817517 0.560089 0.452639 0.629242
C43   C     C_R   0.853436 0.500028 0.500817 -0.238037
C44   C     C_R   0.146574 0.500023 0.501808 -0.238030
C45   C     C_R   0.709631 0.499929 0.500179 -0.559069
C46   C     C_R   0.290373 0.500063 0.500640 -0.559052
H1    H     H_    0.396210 0.560997 0.916273 0.186102
H2    H     H_    0.603790 0.439002 0.083725 0.186160
N1    N     N_R   0.500000 0.689440 0.500000 -0.280205
N2    N     N_R   0.500000 0.310560 0.500000 -0.280174
O1    O     O_R   0.398180 0.560840 0.499970 -0.551306
O2    O     O_R   0.601820 0.439160 0.500030 -0.551313
O3    O     O_R   0.601820 0.560840 0.500030 -0.537255
O4    O     O_R   0.398180 0.439160 0.499970 -0.537155
O5    O     O_R   0.499980 0.560800 0.313940 -0.586554
O6    O     O_R   0.500020 0.439200 0.686060 -0.586428
O7    O     O_R   0.500020 0.560800 0.686060 -0.596476
O8    O     O_R   0.499980 0.439200 0.313940 -0.596389
Zn1   Zn    Zn3+2 0.500000 0.581210 0.500000 1.116352
Zn2   Zn    Zn3+2 0.500000 0.418790 0.500000 1.116499
H3    H     H_    0.498913 0.625538 0.075390 0.211077
H4    H     H_    0.501087 0.374461 0.924608 0.211150
H5    H     H_    0.602828 0.562535 0.918580 0.205284
H6    H     H_    0.397172 0.437464 0.081418 0.205359
F1    F     F_    0.712727 0.381508 0.598022 -0.509326
F2    F     F_    0.286980 0.618505 0.402927 -0.509384
F3    F     F_    0.288456 0.381614 0.598519 -0.548487
F4    F     F_    0.711848 0.618380 0.402363 -0.548315
F5    F     F_    0.852928 0.382101 0.597223 -0.515195
F6    F     F_    0.146779 0.617951 0.405385 -0.515165
F7    F     F_    0.148183 0.382077 0.598138 -0.517609
F8    F     F_    0.852132 0.617955 0.404389 -0.517551
F9    F     F_    0.929548 0.595719 0.654504 -0.516742
F10   F     F_    0.070454 0.404220 0.348465 -0.516866
F11   F     F_    0.070796 0.595629 0.655163 -0.521480
F12   F     F_    0.929227 0.404305 0.347815 -0.521634
F13   F     F_    0.582673 0.688039 0.665023 -0.557867
F14   F     F_    0.417368 0.311964 0.334906 -0.557863
F15   F     F_    0.418103 0.689528 0.333739 -0.526289
F16   F     F_    0.581836 0.310465 0.666360 -0.526152
F17   F     F_    0.583351 0.836141 0.670662 -0.553627
F18   F     F_    0.416686 0.163861 0.329267 -0.553613
F19   F     F_    0.417046 0.837657 0.328793 -0.549815
F20   F     F_    0.582902 0.162336 0.671278 -0.549779
H7    H     H_    0.388450 0.933741 0.503865 0.209945
H8    H     H_    0.611544 0.066261 0.496132 0.209900
H9    H     H_    0.611621 0.933558 0.496056 0.211174
H10   H     H_    0.388375 0.066445 0.503928 0.211154

loop_
_geom_bond_atom_site_label_1
_geom_bond_atom_site_label_2
_ccdc_geom_bond_type
C29   H5    S    
O5    Zn1   S    
C27   C29   S    
C14   C18   A    
C8    C43   S    
C21   H9    S    
O3    Zn1   S    
O4    Zn2   S    
C40   F6    S    
C11   N1    A    
C38   C42   A    
C29   C32   S    
C30   H6    S    
C30   C31   S    
C36   F2    S    
C1    C46   S    
O7    Zn1   S    
C35   F1    S    
O8    Zn2   S    
C13   F17   S    
C16   F20   S    
C9    C13   A    
C38   C45   A    
C27   H3    S    
C11   C15   A    
C12   C16   A    
C29   C33   S    
C20   H8    S    
C31   C33   S    
C36   C46   A    
C22   H10   S    
O2    Zn2   S    
C4    F10   S    
C25   C34   S    
C41   F7    S    
C2    C45   S    
C31   H1    S    
C32   H2    S    
C4    C7    A    
C27   C34   S    
C10   F14   S    
C17   C24   S    
C30   C34   S    
C27   C31   S    
C18   C23   S    
C28   C32   S    
C19   C22   A    
C9    N1    A    
C4    C6    A    
C3    C8    A    
C10   C14   A    
C5    C7    A    
C39   C43   A    
C19   H7    S    
O6    Zn2   S    
C32   C34   S    
C5    F11   S    
C35   C39   A    
C1    O4    A    
C2    O2    A    
C26   C33   S    
C12   N2    A    
C20   C23   A    
C36   C40   A    
C42   F8    S    
C39   F5    S    
C9    F13   S    
C7    C44   S    
C1    O1    A    
C11   F15   S    
C38   F4    S    
C28   C33   S    
C41   C44   A    
O1    Zn1   S    
C42   C43   A    
C14   F18   S    
C10   N2    A    
C15   C17   A    
C12   F16   S    
C25   O5    A    
C3    C5    A    
C2    O3    A    
C26   O6    A    
C6    C8    A    
C6    F12   S    
N1    Zn1   S    
C13   C17   A    
N2    Zn2   S    
C28   C30   S    
C19   C24   A    
C15   F19   S    
C37   F3    S    
C37   C41   A    
C3    F9    S    
C26   O7    A    
C40   C44   A    
C20   C21   A    
C16   C18   A    
C25   O8    A    
C21   C24   A    
C22   C23   A    
C37   C46   A    
C28   H4    S    
C35   C45   A    
