data_mof_unit_5942.cif
_audit_creation_date              2012-12-11T14:01:13-0500
_audit_creation_method            fapswitch 2.2
_symmetry_space_group_name_H-M    P1
_symmetry_Int_Tables_number       1
_space_group_crystal_system       triclinic
_cell_length_a                    19.165728
_cell_length_b                    10.977883
_cell_length_c                    18.727531
_cell_angle_alpha                 90.398793
_cell_angle_beta                  90.548119
_cell_angle_gamma                 90.280086
_cell_volume                      3939.93192228

loop_
_atom_site_label
_atom_site_type_symbol
_atom_type_description
_atom_site_fract_x
_atom_site_fract_y
_atom_site_fract_z
_atom_type_partial_charge
C1    C     C_R   0.272373 0.044688 0.852171 0.573954
C2    C     C_R   0.727354 0.044319 0.147808 0.572693
C3    C     C_R   0.772373 0.544690 0.852170 0.573954
C4    C     C_R   0.227353 0.544317 0.147807 0.572696
C5    C     C_R   0.458031 0.033894 0.077991 0.101349
C6    C     C_R   0.502186 0.063491 0.936581 0.128465
C7    C     C_R   0.958020 0.533881 0.077993 0.101343
C8    C     C_R   0.002180 0.563496 0.936585 0.128477
C9    C     C_R   0.956430 0.648201 0.046127 -0.091878
C10   C     C_R   0.981238 0.663638 0.977306 -0.076558
C11   C     C_R   0.456443 0.148209 0.046122 -0.091877
C12   C     C_R   0.481247 0.163635 0.977299 -0.076565
C13   C     C_2   0.251198 0.580409 0.919963 -0.037099
C14   C     C_2   0.749250 0.581242 0.078795 -0.070851
C15   C     C_2   0.751200 0.080422 0.919969 -0.037104
C16   C     C_2   0.249256 0.081240 0.078797 -0.070874
C17   C     C_2   0.249800 0.600640 0.082212 0.086041
C18   C     C_2   0.748596 0.599809 0.917882 0.098406
C19   C     C_2   0.749806 0.100647 0.082216 0.086040
C20   C     C_2   0.248596 0.099798 0.917886 0.098419
C21   C     C_2   0.294548 0.542601 0.040071 -0.158645
C22   C     C_2   0.704068 0.538645 0.959148 -0.083687
C23   C     C_2   0.794555 0.042608 0.040075 -0.158634
C24   C     C_2   0.204074 0.038622 0.959151 -0.083682
C25   C     C_2   0.304906 0.578785 0.966358 -0.123067
C26   C     C_2   0.694815 0.568852 0.034191 -0.106301
C27   C     C_2   0.804911 0.078784 0.966360 -0.123063
C28   C     C_2   0.194821 0.068811 0.034197 -0.106303
C29   C     C_2   0.499089 0.834914 0.577729 -0.112599
C30   C     C_2   0.499216 0.835893 0.421433 -0.108893
C31   C     C_2   0.999090 0.334914 0.577729 -0.112600
C32   C     C_2   0.999217 0.335893 0.421433 -0.108892
C33   C     C_2   0.488259 0.735982 0.460951 0.085403
C34   C     C_2   0.507974 0.735049 0.536973 0.087075
C35   C     C_2   0.988260 0.235981 0.460952 0.085403
C36   C     C_2   0.007976 0.235049 0.536973 0.087074
C37   C     C_2   0.243044 0.553561 0.587150 0.062910
C38   C     C_2   0.756481 0.554609 0.412539 0.064575
C39   C     C_2   0.743044 0.053561 0.587150 0.062909
C40   C     C_2   0.256480 0.054609 0.412539 0.064574
C41   C     C_2   0.236790 0.568174 0.428426 -0.051777
C42   C     C_2   0.762669 0.567572 0.571777 -0.054473
C43   C     C_2   0.736790 0.068174 0.428426 -0.051778
C44   C     C_2   0.262669 0.067572 0.571777 -0.054472
C45   C     C_R   0.472697 0.823540 0.852736 0.575535
C46   C     C_R   0.529477 0.819811 0.145614 0.581594
C47   C     C_R   0.972697 0.323541 0.852735 0.575529
C48   C     C_R   0.029478 0.319810 0.145613 0.581603
C49   C     C_2   0.185490 0.532280 0.472182 -0.098383
C50   C     C_2   0.814107 0.533947 0.527486 -0.099719
C51   C     C_2   0.685489 0.032282 0.472182 -0.098382
C52   C     C_2   0.314107 0.033947 0.527486 -0.099718
C53   C     C_2   0.185238 0.568087 0.546807 0.067149
C54   C     C_2   0.814191 0.570124 0.453147 0.070753
C55   C     C_2   0.685237 0.068088 0.546807 0.067150
C56   C     C_2   0.314191 0.070124 0.453147 0.070753
C57   C     C_R   0.261249 0.636322 0.850988 0.565768
C58   C     C_R   0.738622 0.636297 0.148542 0.577981
C59   C     C_R   0.761252 0.136332 0.850992 0.565778
C60   C     C_R   0.238623 0.136296 0.148543 0.577985
C61   C     C_R   0.273464 0.043215 0.646649 0.559331
C62   C     C_R   0.726463 0.043490 0.353388 0.556803
C63   C     C_R   0.773464 0.543215 0.646649 0.559330
C64   C     C_R   0.226463 0.543490 0.353388 0.556801
C65   C     C_R   0.471711 0.823874 0.648918 0.569990
C66   C     C_R   0.527928 0.824086 0.350791 0.569520
C67   C     C_R   0.971711 0.323873 0.648918 0.569989
C68   C     C_R   0.027929 0.324086 0.350791 0.569521
C69   C     C_R   0.259270 0.632626 0.647944 0.574683
C70   C     C_R   0.740627 0.632815 0.351975 0.580436
C71   C     C_R   0.759270 0.132626 0.647944 0.574687
C72   C     C_R   0.240627 0.132815 0.351975 0.580432
C73   C     C_R   0.499542 0.820537 0.072528 -0.030904
C74   C     C_R   0.506871 0.836338 0.923428 -0.003395
C75   C     C_R   0.999545 0.320533 0.072527 -0.030900
C76   C     C_R   0.006873 0.336342 0.923427 -0.003398
C77   C     C_R   0.484282 0.932302 0.039350 -0.047152
C78   C     C_R   0.497470 0.944016 0.965205 -0.045318
C79   C     C_R   0.984278 0.432297 0.039350 -0.047155
C80   C     C_R   0.997467 0.444017 0.965206 -0.045314
C81   C     C_R   0.521708 0.725749 0.956684 0.272400
C82   C     C_R   0.510706 0.714171 0.029903 0.232281
C83   C     C_R   0.021716 0.225754 0.956681 0.272413
C84   C     C_R   0.010717 0.214172 0.029899 0.232316
Cr1   Cr    Cr6+3 0.230530 0.836340 0.748870 1.096736
Cr2   Cr    Cr6+3 0.769470 0.836340 0.251130 1.081975
Cr3   Cr    Cr6+3 0.730530 0.336340 0.748870 1.096741
Cr4   Cr    Cr6+3 0.269470 0.336340 0.251130 1.081974
Cr5   Cr    Cr6+3 0.387420 0.989430 0.750820 1.098031
Cr6   Cr    Cr6+3 0.612580 0.989430 0.249180 1.101479
Cr7   Cr    Cr6+3 0.887420 0.489430 0.750820 1.098033
Cr8   Cr    Cr6+3 0.112580 0.489430 0.249180 1.101479
Cr9   Cr    Cr6+3 0.385640 0.677860 0.749230 1.084006
Cr10  Cr    Cr6+3 0.614360 0.677860 0.250770 1.102160
Cr11  Cr    Cr6+3 0.885640 0.177860 0.749230 1.084002
Cr12  Cr    Cr6+3 0.114360 0.177860 0.250770 1.102166
H1    H     H_    0.138430 0.489339 0.450820 0.145799
H2    H     H_    0.861514 0.492786 0.548363 0.147130
H3    H     H_    0.638427 0.989344 0.450820 0.145801
H4    H     H_    0.361514 0.992785 0.548363 0.147129
H5    H     H_    0.283463 0.614731 0.447651 0.136099
H6    H     H_    0.715500 0.612065 0.553150 0.136243
H7    H     H_    0.783466 0.114726 0.447651 0.136099
H8    H     H_    0.215500 0.112066 0.553150 0.136243
H9    H     H_    0.937110 0.726270 0.075390 0.141660
H10   H     H_    0.984056 0.754452 0.955395 0.127695
H11   H     H_    0.437127 0.226281 0.075383 0.141663
H12   H     H_    0.484066 0.254445 0.955384 0.127689
H13   H     H_    0.321072 0.461685 0.058732 0.151831
H14   H     H_    0.676441 0.458967 0.938760 0.170818
H15   H     H_    0.821082 0.961695 0.058739 0.151827
H16   H     H_    0.176451 0.958942 0.938760 0.170807
H17   H     H_    0.356907 0.606322 0.950739 0.135361
H18   H     H_    0.642575 0.577114 0.053540 0.232760
H19   H     H_    0.856918 0.106288 0.950732 0.135353
H20   H     H_    0.142584 0.076997 0.053556 0.232778
H21   H     H_    0.198865 0.555670 0.936604 0.160778
H22   H     H_    0.802015 0.569371 0.059474 0.151038
H23   H     H_    0.698864 0.055706 0.936616 0.160776
H24   H     H_    0.302020 0.069408 0.059471 0.151042
H25   H     H_    0.511494 0.922952 0.446013 0.098529
H26   H     H_    0.487530 0.922276 0.554130 0.098525
H27   H     H_    0.011495 0.422952 0.446013 0.098530
H28   H     H_    0.987531 0.422276 0.554130 0.098525
O1    O     O_R   0.215090 0.709860 0.828130 -0.483286
O2    O     O_R   0.784910 0.709860 0.171870 -0.491568
O3    O     O_R   0.715090 0.209860 0.828130 -0.483287
O4    O     O_R   0.284910 0.209860 0.171870 -0.491567
O5    O     O_R   0.445660 0.919250 0.676780 -0.490534
O6    O     O_R   0.554340 0.919250 0.323220 -0.489568
O7    O     O_R   0.945660 0.419250 0.676780 -0.490535
O8    O     O_R   0.054340 0.419250 0.323220 -0.489569
O9    O     O_R   0.456260 0.718170 0.670000 -0.465243
O10   O     O_R   0.543740 0.718170 0.330000 -0.471472
O11   O     O_R   0.956260 0.218170 0.670000 -0.465243
O12   O     O_R   0.043740 0.218170 0.330000 -0.471470
O13   O     O_R   0.320940 0.626760 0.674370 -0.475785
O14   O     O_R   0.679060 0.626760 0.325630 -0.477358
O15   O     O_R   0.820940 0.126760 0.674370 -0.475783
O16   O     O_R   0.179060 0.126760 0.325630 -0.477361
O17   O     O_3   0.334530 0.834540 0.749640 -0.293015
O18   O     O_3   0.665470 0.834540 0.250360 -0.293571
O19   O     O_3   0.834530 0.334540 0.749640 -0.293016
O20   O     O_3   0.165470 0.334540 0.250360 -0.293569
O21   O     O_R   0.236990 0.958390 0.823710 -0.509788
O22   O     O_R   0.763010 0.958390 0.176290 -0.520528
O23   O     O_R   0.736990 0.458390 0.823710 -0.509787
O24   O     O_R   0.263010 0.458390 0.176290 -0.520530
O25   O     O_R   0.332380 0.074750 0.830850 -0.475974
O26   O     O_R   0.667620 0.074750 0.169150 -0.469348
O27   O     O_R   0.832380 0.574750 0.830850 -0.475971
O28   O     O_R   0.167620 0.574750 0.169150 -0.469348
O29   O     O_R   0.445800 0.917770 0.825070 -0.484319
O30   O     O_R   0.554200 0.917770 0.174930 -0.476427
O31   O     O_R   0.945800 0.417770 0.825070 -0.484316
O32   O     O_R   0.054200 0.417770 0.174930 -0.476427
O33   O     O_R   0.456410 0.716580 0.829970 -0.498255
O34   O     O_R   0.543590 0.716580 0.170030 -0.471226
O35   O     O_R   0.956410 0.216580 0.829970 -0.498276
O36   O     O_R   0.043590 0.216580 0.170030 -0.471215
O37   O     O_R   0.321080 0.625290 0.822650 -0.506556
O38   O     O_R   0.678920 0.625290 0.177350 -0.487253
O39   O     O_R   0.821080 0.125290 0.822650 -0.506555
O40   O     O_R   0.178920 0.125290 0.177350 -0.487253
O41   O     O_R   0.214930 0.711450 0.668160 -0.470000
O42   O     O_R   0.785070 0.711450 0.331840 -0.467826
O43   O     O_R   0.714930 0.211450 0.668160 -0.469998
O44   O     O_R   0.285070 0.211450 0.331840 -0.467826
O45   O     O_R   0.236850 0.959870 0.675420 -0.472234
O46   O     O_R   0.763150 0.959870 0.324580 -0.474327
O47   O     O_R   0.736850 0.459870 0.675420 -0.472235
O48   O     O_R   0.263150 0.459870 0.324580 -0.474327
O49   O     O_R   0.332230 0.076350 0.670880 -0.486455
O50   O     O_R   0.667770 0.076350 0.329120 -0.486830
O51   O     O_R   0.832230 0.576350 0.670880 -0.486455
O52   O     O_R   0.167770 0.576350 0.329120 -0.486832
O53   O     O_3   0.556458 0.637201 0.917053 -0.542701
C85   C     C_3   0.521216 0.523911 0.916086 -0.049395
H29   H     H_    0.463668 0.532374 0.919456 0.118111
H30   H     H_    0.541857 0.464185 0.958790 0.156492
H31   H     H_    0.532348 0.477689 0.864613 0.153787
O54   O     O_3   0.523243 0.601914 0.060524 -0.569195
C86   C     C_3   0.460355 0.549982 0.084371 -0.101329
H32   H     H_    0.436191 0.496521 0.040319 0.094742
H33   H     H_    0.422899 0.617715 0.106263 0.128541
H34   H     H_    0.472697 0.485153 0.127816 0.164785
O55   O     O_3   0.056474 0.137216 0.917049 -0.542687
C87   C     C_3   0.021236 0.023923 0.916072 -0.049405
H35   H     H_    0.963686 0.032380 0.919427 0.118110
H36   H     H_    0.041868 0.964195 0.958779 0.156478
H37   H     H_    0.032381 0.977704 0.864601 0.153792
O56   O     O_3   0.023265 0.101918 0.060519 -0.569193
C88   C     C_3   0.960379 0.049962 0.084352 -0.101360
H38   H     H_    0.936191 0.996602 0.040276 0.094705
H39   H     H_    0.922944 0.117667 0.106304 0.128600
H40   H     H_    0.972727 0.985041 0.127745 0.164749
I1    I     I_    0.090741 0.654574 0.578541 -0.213102
I2    I     I_    0.908979 0.656826 0.421729 -0.207430
I3    I     I_    0.590740 0.154573 0.578542 -0.213100
I4    I     I_    0.408979 0.156826 0.421729 -0.207430
I5    I     I_    0.318658 0.417175 0.561502 -0.258059
I6    I     I_    0.680667 0.417188 0.436981 -0.258156
I7    I     I_    0.818658 0.917176 0.561501 -0.258059
I8    I     I_    0.180667 0.917188 0.436981 -0.258159
I9    I     I_    0.409806 0.021210 0.180326 -0.314989
I10   I     I_    0.555748 0.107940 0.840963 -0.295152
I11   I     I_    0.909793 0.521178 0.180327 -0.314997
I12   I     I_    0.055741 0.607955 0.840968 -0.295158
I13   I     I_    0.195466 0.760416 0.051192 -0.409508
I14   I     I_    0.796849 0.766526 0.947840 -0.443252
I15   I     I_    0.695479 0.260436 0.051197 -0.409473
I16   I     I_    0.296842 0.266521 0.947842 -0.443243
I17   I     I_    0.444029 0.572376 0.415769 -0.196798
I18   I     I_    0.550635 0.569874 0.579420 -0.181722
I19   I     I_    0.944030 0.072375 0.415770 -0.196791
I20   I     I_    0.050637 0.069875 0.579421 -0.181726

loop_
_geom_bond_atom_site_label_1
_geom_bond_atom_site_label_2
_ccdc_geom_bond_type
Cr12  O16   S    
C16   C28   D    
Cr7   O27   S    
C38   C70   S    
C3    O23   A    
Cr4   O48   S    
C39   I7    S    
Cr2   O2    S    
C40   C56   D    
Cr1   O1    S    
C35   C36   S    
C24   H16   S    
Cr5   O49   S    
Cr6   O26   S    
C13   C25   D    
Cr3   O3    S    
C85   H29   S    
C44   H8    S    
Cr12  O12   S    
C47   O35   A    
C77   C78   A    
Cr8   O52   S    
Cr11  O19   S    
C48   O36   A    
C69   O41   A    
C50   C54   S    
C81   O53   S    
Cr3   O23   S    
C2    O26   A    
C87   H37   S    
C19   I15   S    
C18   I14   S    
Cr1   O21   S    
C47   C76   S    
C5    C11   A    
C17   I13   S    
C70   O42   A    
C6    C12   A    
C49   C53   S    
C75   C84   A    
C6    C78   A    
Cr7   O7    S    
C59   O3    A    
C62   O50   A    
Cr2   O22   S    
Cr5   O5    S    
C3    C18   S    
C87   H36   S    
C16   C60   S    
C27   H19   S    
C8    I12   S    
C73   C77   A    
O54   C86   S    
C28   H20   S    
Cr10  O10   S    
C66   O10   A    
C63   O47   A    
C39   C55   D    
C40   I8    S    
C41   H5    S    
C22   H14   S    
Cr2   O42   S    
Cr8   O28   S    
C76   C80   A    
C45   O33   A    
C1    O25   A    
C23   C27   S    
C64   O52   A    
C66   O6    A    
C9    C10   A    
Cr10  O38   S    
C88   H38   S    
C47   O31   A    
C32   C68   S    
C37   C53   D    
C44   C52   D    
Cr5   O25   S    
C48   O32   A    
Cr10  O34   S    
Cr2   O46   S    
C69   O13   A    
C72   O44   A    
C32   H27   S    
C83   O55   S    
C45   O29   A    
C15   C59   S    
C14   C58   S    
C42   H6    S    
C76   C83   A    
C41   C49   D    
C81   C82   A    
Cr7   O19   S    
C51   H3    S    
C33   C34   S    
C62   O46   A    
Cr3   O43   S    
C50   H2    S    
Cr10  O18   S    
C32   C35   D    
C20   C24   D    
C68   O12   A    
C61   O49   A    
C7    I11   S    
C34   I18   S    
C86   H34   S    
Cr1   O17   S    
C12   H12   S    
C33   I17   S    
C71   O15   A    
Cr4   O44   S    
C49   H1    S    
C29   C34   D    
C52   H4    S    
Cr1   O45   S    
Cr5   O29   S    
Cr12  O40   S    
C45   C74   S    
C68   O8    A    
C64   O48   A    
C19   C23   D    
C86   H32   S    
C26   H18   S    
Cr7   O31   S    
C67   O11   A    
C25   H17   S    
Cr12  O20   S    
C86   H33   S    
C37   C69   S    
C15   C27   D    
C83   C84   A    
C38   C54   D    
C30   H25   S    
Cr9   O37   S    
C88   H40   S    
Cr3   O47   S    
C29   H26   S    
C88   H39   S    
Cr11  O11   S    
Cr4   O24   S    
Cr7   O51   S    
C85   H30   S    
Cr8   O32   S    
Cr6   O18   S    
C14   C26   D    
C4    O28   A    
Cr9   O33   S    
C30   C66   S    
C38   I6    S    
C42   C50   D    
C29   C65   S    
C4    C17   S    
C46   O30   A    
Cr12  O36   S    
C58   O2    A    
C22   C26   S    
Cr10  O14   S    
Cr11  O35   S    
C46   O34   A    
C10   H10   S    
C61   O45   A    
C1    O21   A    
C74   C81   A    
C5    C77   A    
C58   O38   A    
C73   C82   A    
Cr9   O17   S    
Cr2   O18   S    
C7    C79   A    
C7    C9    A    
C21   C25   S    
C1    C20   S    
C39   C71   S    
C40   C72   S    
C30   C33   D    
Cr8   O8    S    
C2    C19   S    
C18   C22   D    
Cr11  O15   S    
C67   O7    A    
C24   C28   S    
C60   O4    A    
C3    O27   A    
C43   H7    S    
C31   H28   S    
C65   O5    A    
C11   C12   A    
C63   O51   A    
C44   C61   S    
C2    O22   A    
C23   H15   S    
C82   O54   S    
Cr9   O9    S    
C54   I2    S    
C14   H22   S    
Cr11  O39   S    
C53   I1    S    
O56   C88   S    
C16   H24   S    
Cr1   O41   S    
O55   C87   S    
Cr4   O4    S    
C75   C79   A    
C36   I20   S    
C57   O1    A    
C11   H11   S    
C70   O14   A    
C43   C51   D    
Cr6   O30   S    
C48   C75   S    
C35   I19   S    
Cr5   O17   S    
C60   O40   A    
C57   O37   A    
C15   H23   S    
C84   O56   S    
C51   C55   S    
C20   I16   S    
Cr8   O20   S    
C17   C21   D    
C6    I10   S    
C85   H31   S    
Cr9   O13   S    
Cr6   O50   S    
C31   C67   S    
C5    I9    S    
C79   C80   A    
Cr6   O6    S    
C72   O16   A    
C13   C57   S    
C8    C10   A    
O53   C85   S    
C74   C78   A    
C13   H21   S    
C8    C80   A    
C59   O39   A    
C37   I5    S    
C31   C36   D    
C87   H35   S    
C71   O43   A    
C41   C64   S    
Cr3   O19   S    
C9    H9    S    
C42   C63   S    
Cr4   O20   S    
C46   C73   S    
C65   O9    A    
C52   C56   S    
C43   C62   S    
C55   I3    S    
C21   H13   S    
C56   I4    S    
C4    O24   A    
