data_mof_unit_10181.cif
_audit_creation_date              2012-12-11T14:52:46-0500
_audit_creation_method            fapswitch 2.2
_symmetry_space_group_name_H-M    P1
_symmetry_Int_Tables_number       1
_space_group_crystal_system       triclinic
_cell_length_a                    19.203564
_cell_length_b                    11.188371
_cell_length_c                    18.740445
_cell_angle_alpha                 90.053249
_cell_angle_beta                  89.883852
_cell_angle_gamma                 90.245714
_cell_volume                      4026.46126188

loop_
_atom_site_label
_atom_site_type_symbol
_atom_type_description
_atom_site_fract_x
_atom_site_fract_y
_atom_site_fract_z
_atom_type_partial_charge
C1    C     C_R   0.276075 0.031997 0.858258 0.566356
C2    C     C_R   0.725983 0.037083 0.143686 0.554836
C3    C     C_R   0.776075 0.531998 0.858258 0.566355
C4    C     C_R   0.225984 0.537083 0.143686 0.554834
C5    C     C_3   0.534794 0.726316 0.962580 0.274483
C6    C     C_3   0.487635 0.724460 0.028019 0.281035
C7    C     C_3   0.034794 0.226316 0.962579 0.274482
C8    C     C_3   0.987634 0.224460 0.028018 0.281032
C9    C     C_R   0.295112 0.503665 0.953460 -0.002448
C10   C     C_R   0.709184 0.494158 0.050391 -0.000747
C11   C     C_R   0.795115 0.003669 0.953462 -0.002437
C12   C     C_R   0.209185 0.994158 0.050391 -0.000748
C13   C     C_R   0.295526 0.509975 0.029319 0.278823
C14   C     C_R   0.709115 0.498642 0.974740 0.273637
C15   C     C_R   0.795526 0.009977 0.029321 0.278824
C16   C     C_R   0.209116 0.998641 0.974740 0.273637
C17   C     C_R   0.237724 0.558356 0.066156 0.018946
C18   C     C_R   0.766540 0.547666 0.937051 0.016526
C19   C     C_R   0.737723 0.058357 0.066156 0.018942
C20   C     C_R   0.266540 0.047666 0.937051 0.016529
C21   C     C_R   0.180067 0.595426 0.025751 -0.204853
C22   C     C_R   0.824337 0.586123 0.977162 -0.220660
C23   C     C_R   0.680067 0.095427 0.025751 -0.204856
C24   C     C_R   0.324337 0.086125 0.977161 -0.220657
C25   C     C_R   0.182210 0.593479 0.951986 -0.195383
C26   C     C_R   0.821678 0.588269 0.051177 -0.197241
C27   C     C_R   0.682211 0.093478 0.951986 -0.195386
C28   C     C_R   0.321679 0.088273 0.051176 -0.197239
C29   C     C_R   0.243419 0.566233 0.916222 -0.014291
C30   C     C_R   0.759829 0.560528 0.086901 -0.008481
C31   C     C_R   0.743420 0.066232 0.916222 -0.014293
C32   C     C_R   0.259829 0.060530 0.086900 -0.008480
C33   C     C_R   0.499450 0.722519 0.536011 -0.070723
C34   C     C_R   0.497322 0.722556 0.462974 -0.071617
C35   C     C_R   0.999450 0.222519 0.536011 -0.070723
C36   C     C_R   0.997322 0.222555 0.462974 -0.071617
C37   C     C_R   0.501858 0.829356 0.425124 0.007307
C38   C     C_R   0.496681 0.829357 0.574156 0.008340
C39   C     C_R   0.001858 0.329356 0.425124 0.007307
C40   C     C_R   0.996681 0.329357 0.574156 0.008340
C41   C     C_R   0.499205 0.937372 0.462380 -0.072871
C42   C     C_R   0.500235 0.937405 0.537051 -0.071675
C43   C     C_R   0.999205 0.437372 0.462380 -0.072871
C44   C     C_R   0.000235 0.437405 0.537051 -0.071675
C45   C     C_R   0.468113 0.820996 0.855590 0.562800
C46   C     C_R   0.557379 0.817140 0.137512 0.559842
C47   C     C_R   0.968113 0.320996 0.855590 0.562801
C48   C     C_R   0.057378 0.317140 0.137512 0.559842
C49   C     C_R   0.187686 0.568769 0.550129 -0.173604
C50   C     C_R   0.811512 0.569782 0.450204 -0.174463
C51   C     C_R   0.687686 0.068769 0.550129 -0.173603
C52   C     C_R   0.311512 0.069782 0.450204 -0.174463
C53   C     C_R   0.180070 0.572479 0.477235 0.251415
C54   C     C_R   0.819572 0.574208 0.523044 0.251909
C55   C     C_R   0.680070 0.072479 0.477235 0.251415
C56   C     C_R   0.319572 0.074208 0.523044 0.251908
C57   C     C_R   0.238368 0.555641 0.432460 0.009943
C58   C     C_R   0.761272 0.558013 0.568089 0.009922
C59   C     C_R   0.738368 0.055641 0.432460 0.009943
C60   C     C_R   0.261272 0.058013 0.568089 0.009922
C61   C     C_R   0.305134 0.535859 0.462521 -0.037403
C62   C     C_R   0.694078 0.540439 0.538510 -0.039072
C63   C     C_R   0.805134 0.035859 0.462521 -0.037403
C64   C     C_R   0.194079 0.040440 0.538510 -0.039072
C65   C     C_R   0.312961 0.550497 0.535855 0.265383
C66   C     C_R   0.686045 0.555239 0.465222 0.265133
C67   C     C_R   0.812961 0.050497 0.535855 0.265383
C68   C     C_R   0.186045 0.055239 0.465222 0.265133
C69   C     C_R   0.253496 0.574497 0.578286 -0.028706
C70   C     C_R   0.745671 0.576563 0.422370 -0.028691
C71   C     C_R   0.753496 0.074497 0.578286 -0.028706
C72   C     C_R   0.245671 0.076563 0.422370 -0.028691
C73   C     C_R   0.258864 0.630982 0.849057 0.529446
C74   C     C_R   0.741866 0.629316 0.151995 0.532334
C75   C     C_R   0.758864 0.130982 0.849057 0.529447
C76   C     C_R   0.241866 0.129316 0.151994 0.532336
C77   C     C_R   0.274224 0.038623 0.643337 0.579866
C78   C     C_R   0.725581 0.037845 0.356913 0.578627
C79   C     C_R   0.774224 0.538623 0.643337 0.579866
C80   C     C_R   0.225581 0.537845 0.356913 0.578627
C81   C     C_R   0.470251 0.823328 0.647195 0.557197
C82   C     C_R   0.529433 0.823191 0.352561 0.565881
C83   C     C_R   0.970251 0.323328 0.647195 0.557197
C84   C     C_R   0.029433 0.323191 0.352561 0.565880
C85   C     C_R   0.260781 0.634891 0.645315 0.568693
C86   C     C_R   0.739003 0.635203 0.354883 0.570018
C87   C     C_R   0.760781 0.134891 0.645315 0.568693
C88   C     C_R   0.239003 0.135203 0.354883 0.570017
C89   C     C_3   0.487170 0.920791 0.030318 -0.152658
C90   C     C_3   0.537129 0.922423 0.964306 -0.167162
C91   C     C_3   0.987170 0.420791 0.030318 -0.152660
C92   C     C_3   0.037129 0.422423 0.964306 -0.167162
C93   C     C_3   0.442712 0.822164 0.994228 -0.023581
C94   C     C_3   0.581067 0.821345 0.998039 -0.040408
C95   C     C_3   0.942712 0.322164 0.994227 -0.023578
C96   C     C_3   0.081066 0.321344 0.998039 -0.040408
C97   C     C_3   0.491972 0.825564 0.929250 0.020299
C98   C     C_3   0.532315 0.821270 0.063676 0.020397
C99   C     C_3   0.991972 0.325565 0.929249 0.020301
C100  C     C_3   0.032314 0.321269 0.063676 0.020398
Cr1   Cr    Cr6+3 0.229630 0.835900 0.747350 0.987819
Cr2   Cr    Cr6+3 0.770370 0.835900 0.252650 0.994199
Cr3   Cr    Cr6+3 0.729630 0.335900 0.747350 0.987819
Cr4   Cr    Cr6+3 0.270370 0.335900 0.252650 0.994201
Cr5   Cr    Cr6+3 0.387410 0.989850 0.750850 1.019239
Cr6   Cr    Cr6+3 0.612590 0.989850 0.249150 1.019806
Cr7   Cr    Cr6+3 0.887410 0.489850 0.750850 1.019238
Cr8   Cr    Cr6+3 0.112590 0.489850 0.249150 1.019806
Cr9   Cr    Cr6+3 0.385800 0.677120 0.749340 0.989370
Cr10  Cr    Cr6+3 0.614200 0.677120 0.250660 0.988839
Cr11  Cr    Cr6+3 0.885800 0.177120 0.749340 0.989367
Cr12  Cr    Cr6+3 0.114200 0.177120 0.250660 0.988840
H1    H     H_    0.142487 0.579412 0.584265 0.131620
H2    H     H_    0.856614 0.578689 0.415706 0.131723
H3    H     H_    0.642487 0.079412 0.584265 0.131620
H4    H     H_    0.356614 0.078689 0.415706 0.131723
H5    H     H_    0.467682 0.000498 0.059131 0.123551
H6    H     H_    0.552407 0.002741 0.934193 0.116985
H7    H     H_    0.967682 0.500498 0.059131 0.123550
H8    H     H_    0.052407 0.502742 0.934193 0.116985
H9    H     H_    0.131874 0.623222 0.050693 0.147943
H10   H     H_    0.872416 0.613738 0.951643 0.147356
H11   H     H_    0.631873 0.123223 0.050692 0.147944
H12   H     H_    0.372416 0.113741 0.951643 0.147355
H13   H     H_    0.137998 0.625278 0.922431 0.118142
H14   H     H_    0.866174 0.621871 0.080289 0.122191
H15   H     H_    0.637999 0.125277 0.922430 0.118144
H16   H     H_    0.366174 0.121877 0.080288 0.122190
H17   H     H_    0.499029 0.637647 0.562694 0.165422
H18   H     H_    0.496862 0.637724 0.436088 0.159754
H19   H     H_    0.999029 0.137647 0.562694 0.165422
H20   H     H_    0.996862 0.137724 0.436088 0.159754
H21   H     H_    0.498528 0.020480 0.433370 0.163564
H22   H     H_    0.501968 0.020629 0.566074 0.162769
H23   H     H_    0.998528 0.520480 0.433370 0.163564
H24   H     H_    0.001968 0.520629 0.566074 0.162768
O1    O     O_R   0.214270 0.709000 0.827470 -0.562479
O2    O     O_R   0.785730 0.709000 0.172530 -0.552465
O3    O     O_R   0.714270 0.209000 0.827470 -0.562480
O4    O     O_R   0.285730 0.209000 0.172530 -0.552457
O5    O     O_R   0.445950 0.919440 0.676520 -0.484485
O6    O     O_R   0.554050 0.919440 0.323480 -0.480692
O7    O     O_R   0.945950 0.419440 0.676520 -0.484485
O8    O     O_R   0.054050 0.419440 0.323480 -0.480692
O9    O     O_R   0.456730 0.717630 0.669840 -0.518040
O10   O     O_R   0.543270 0.717630 0.330160 -0.514853
O11   O     O_R   0.956730 0.217630 0.669840 -0.518040
O12   O     O_R   0.043270 0.217630 0.330160 -0.514854
O13   O     O_R   0.320620 0.625640 0.672920 -0.464248
O14   O     O_R   0.679380 0.625640 0.327080 -0.463855
O15   O     O_R   0.820620 0.125640 0.672920 -0.464248
O16   O     O_R   0.179380 0.125640 0.327080 -0.463855
O17   O     O_3   0.334280 0.834290 0.749180 -0.264533
O18   O     O_3   0.665720 0.834290 0.250820 -0.278047
O19   O     O_3   0.834280 0.334290 0.749180 -0.264533
O20   O     O_3   0.165720 0.334290 0.250820 -0.278046
O21   O     O_R   0.236160 0.958490 0.823130 -0.478864
O22   O     O_R   0.763840 0.958490 0.176870 -0.470999
O23   O     O_R   0.736160 0.458490 0.823130 -0.478864
O24   O     O_R   0.263840 0.458490 0.176870 -0.471000
O25   O     O_R   0.332080 0.075470 0.831280 -0.544849
O26   O     O_R   0.667920 0.075470 0.168720 -0.551211
O27   O     O_R   0.832080 0.575470 0.831280 -0.544849
O28   O     O_R   0.167920 0.575470 0.168720 -0.551210
O29   O     O_R   0.446300 0.918110 0.826620 -0.521854
O30   O     O_R   0.553700 0.918110 0.173380 -0.511514
O31   O     O_R   0.946300 0.418110 0.826620 -0.521854
O32   O     O_R   0.053700 0.418110 0.173380 -0.511514
O33   O     O_R   0.457110 0.716200 0.831760 -0.528036
O34   O     O_R   0.542890 0.716200 0.168240 -0.513327
O35   O     O_R   0.957110 0.216200 0.831760 -0.528038
O36   O     O_R   0.042890 0.216200 0.168240 -0.513329
O37   O     O_R   0.320980 0.624310 0.823030 -0.518968
O38   O     O_R   0.679020 0.624310 0.176970 -0.534484
O39   O     O_R   0.820980 0.124310 0.823030 -0.518972
O40   O     O_R   0.179020 0.124310 0.176970 -0.534482
O41   O     O_R   0.213890 0.710430 0.665540 -0.542182
O42   O     O_R   0.786110 0.710430 0.334460 -0.542332
O43   O     O_R   0.713890 0.210430 0.665540 -0.542181
O44   O     O_R   0.286110 0.210430 0.334460 -0.542333
O45   O     O_R   0.235810 0.959820 0.673020 -0.521401
O46   O     O_R   0.764190 0.959820 0.326980 -0.521536
O47   O     O_R   0.735810 0.459820 0.673020 -0.521401
O48   O     O_R   0.264190 0.459820 0.326980 -0.521536
O49   O     O_R   0.331700 0.076900 0.669350 -0.462588
O50   O     O_R   0.668300 0.076900 0.330650 -0.462665
O51   O     O_R   0.831700 0.576900 0.669350 -0.462588
O52   O     O_R   0.168300 0.576900 0.330650 -0.462665
C101  C     C_3   0.364367 0.808799 0.989214 -0.347981
H25   H     H_    0.344988 0.859441 0.943053 0.123565
H26   H     H_    0.351738 0.714387 0.978967 0.166263
H27   H     H_    0.339204 0.837044 0.039721 0.152718
C102  C     C_3   0.659113 0.806486 0.001040 -0.362949
H28   H     H_    0.680184 0.855180 0.047183 0.110962
H29   H     H_    0.670714 0.711944 0.010059 0.162156
H30   H     H_    0.683158 0.835077 0.950064 0.156352
C103  C     C_3   0.864367 0.308800 0.989212 -0.347981
H31   H     H_    0.844989 0.359442 0.943051 0.123567
H32   H     H_    0.851738 0.214388 0.978965 0.166261
H33   H     H_    0.839203 0.337045 0.039718 0.152718
C104  C     C_3   0.159112 0.306484 0.001042 -0.362942
H34   H     H_    0.180184 0.355179 0.047184 0.110964
H35   H     H_    0.170712 0.211942 0.010061 0.162159
H36   H     H_    0.183158 0.335073 0.950065 0.156353
O53   O     O_3   0.114923 0.590859 0.449081 -0.547585
C105  C     C_3   0.089530 0.702578 0.471508 -0.147975
H37   H     H_    0.050669 0.731776 0.431744 0.114540
H38   H     H_    0.131258 0.771563 0.475927 0.121495
H39   H     H_    0.063290 0.694490 0.523887 0.093150
O54   O     O_3   0.885101 0.591665 0.550907 -0.545894
C106  C     C_3   0.912858 0.700841 0.526300 -0.149809
H40   H     H_    0.952106 0.730647 0.565631 0.114169
H41   H     H_    0.872622 0.771306 0.519962 0.121354
H42   H     H_    0.939279 0.688538 0.474365 0.093595
O55   O     O_3   0.614923 0.090859 0.449081 -0.547585
C107  C     C_3   0.589530 0.202578 0.471508 -0.147975
H43   H     H_    0.550669 0.231776 0.431744 0.114540
H44   H     H_    0.631258 0.271563 0.475927 0.121495
H45   H     H_    0.563290 0.194490 0.523887 0.093150
O56   O     O_3   0.385101 0.091665 0.550907 -0.545894
C108  C     C_3   0.412858 0.200841 0.526300 -0.149809
H46   H     H_    0.452106 0.230647 0.565631 0.114169
H47   H     H_    0.372622 0.271306 0.519962 0.121354
H48   H     H_    0.439279 0.188538 0.474365 0.093594
C109  C     C_3   0.368566 0.503934 0.417995 -0.364008
H49   H     H_    0.416820 0.498271 0.449612 0.132355
H50   H     H_    0.362666 0.412981 0.395204 0.154543
H51   H     H_    0.376707 0.571014 0.375109 0.134746
C110  C     C_3   0.630637 0.510634 0.583658 -0.364116
H52   H     H_    0.582126 0.506697 0.552501 0.133695
H53   H     H_    0.635214 0.419466 0.606253 0.151941
H54   H     H_    0.624008 0.577921 0.626714 0.134348
C111  C     C_3   0.868566 0.003934 0.417995 -0.364008
H55   H     H_    0.916820 0.998270 0.449612 0.132355
H56   H     H_    0.862666 0.912981 0.395204 0.154543
H57   H     H_    0.876707 0.071014 0.375109 0.134746
C112  C     C_3   0.130637 0.010634 0.583658 -0.364117
H58   H     H_    0.082126 0.006697 0.552501 0.133695
H59   H     H_    0.135214 0.919466 0.606253 0.151941
H60   H     H_    0.124008 0.077922 0.626714 0.134348
O57   O     O_3   0.379334 0.568174 0.562425 -0.551971
C113  C     C_3   0.402917 0.466036 0.599213 -0.108836
H61   H     H_    0.361523 0.399448 0.612573 0.104669
H62   H     H_    0.426755 0.494000 0.650406 0.160458
H63   H     H_    0.445578 0.426076 0.567713 0.067400
O58   O     O_3   0.619852 0.574322 0.438744 -0.548131
C114  C     C_3   0.594552 0.471048 0.403895 -0.108710
H64   H     H_    0.554975 0.428690 0.438619 0.065670
H65   H     H_    0.566724 0.497856 0.354774 0.158258
H66   H     H_    0.635674 0.406977 0.386778 0.104319
O59   O     O_3   0.879334 0.068174 0.562426 -0.551971
C115  C     C_3   0.902917 0.966036 0.599213 -0.108837
H67   H     H_    0.861523 0.899448 0.612573 0.104668
H68   H     H_    0.926755 0.994000 0.650406 0.160457
H69   H     H_    0.945578 0.926076 0.567713 0.067401
O60   O     O_3   0.119852 0.074322 0.438744 -0.548131
C116  C     C_3   0.094552 0.971049 0.403896 -0.108710
H70   H     H_    0.054975 0.928690 0.438619 0.065670
H71   H     H_    0.066724 0.997856 0.354774 0.158258
H72   H     H_    0.135673 0.906977 0.386779 0.104320
O61   O     O_3   0.560469 0.630173 0.922080 -0.507883
C117  C     C_3   0.508308 0.542747 0.909773 -0.023680
H73   H     H_    0.509704 0.516206 0.852721 0.133869
H74   H     H_    0.454873 0.572552 0.923511 0.148653
H75   H     H_    0.518787 0.461119 0.940155 0.110339
O62   O     O_3   0.457582 0.624800 0.062629 -0.508987
C118  C     C_3   0.507772 0.536805 0.078819 -0.032412
H76   H     H_    0.505033 0.515696 0.136565 0.146075
H77   H     H_    0.562028 0.562526 0.064733 0.143669
H78   H     H_    0.494695 0.452286 0.051720 0.098630
O63   O     O_3   0.060471 0.130176 0.922078 -0.507884
C119  C     C_3   0.008311 0.042748 0.909769 -0.023683
H79   H     H_    0.009713 0.016200 0.852719 0.133865
H80   H     H_    0.954875 0.072555 0.923500 0.148652
H81   H     H_    0.018788 0.961125 0.940157 0.110340
O64   O     O_3   0.957579 0.124800 0.062627 -0.508993
C120  C     C_3   0.007767 0.036802 0.078817 -0.032422
H82   H     H_    0.005030 0.015699 0.136564 0.146081
H83   H     H_    0.062023 0.062517 0.064728 0.143664
H84   H     H_    0.994685 0.952282 0.051722 0.098641
C121  C     C_3   0.337147 0.410823 0.914007 -0.377849
H85   H     H_    0.392623 0.414564 0.927597 0.110216
H86   H     H_    0.317270 0.321251 0.929018 0.119680
H87   H     H_    0.331651 0.416541 0.855280 0.143943
C122  C     C_3   0.664706 0.405912 0.091948 -0.389487
H88   H     H_    0.626547 0.357911 0.059150 0.117970
H89   H     H_    0.699325 0.338042 0.116279 0.135915
H90   H     H_    0.634347 0.447136 0.135323 0.135393
C123  C     C_3   0.837156 0.910825 0.914014 -0.377829
H91   H     H_    0.892635 0.914566 0.927624 0.110229
H92   H     H_    0.817271 0.821249 0.929023 0.119684
H93   H     H_    0.831678 0.916546 0.855275 0.143934
C124  C     C_3   0.164708 0.905914 0.091949 -0.389480
H94   H     H_    0.126556 0.857896 0.059150 0.117971
H95   H     H_    0.199327 0.838055 0.116291 0.135913
H96   H     H_    0.134340 0.947142 0.135317 0.135390
O65   O     O_3   0.354456 0.481515 0.067480 -0.515866
C125  C     C_3   0.362077 0.357411 0.072216 -0.081541
H97   H     H_    0.312102 0.309699 0.063617 0.143505
H98   H     H_    0.382510 0.336051 0.125966 0.159172
H99   H     H_    0.401320 0.325093 0.033500 0.072268
O66   O     O_3   0.648453 0.476493 0.938643 -0.530602
C126  C     C_3   0.641636 0.355618 0.922189 -0.083967
H100  H     H_    0.690402 0.306911 0.932785 0.153230
H101  H     H_    0.626290 0.348048 0.865397 0.174716
H102  H     H_    0.598132 0.315050 0.952623 0.057819
O67   O     O_3   0.854453 0.981506 0.067482 -0.515870
C127  C     C_3   0.862067 0.857399 0.072216 -0.081544
H103  H     H_    0.812087 0.809697 0.063616 0.143506
H104  H     H_    0.882499 0.836034 0.125967 0.159190
H105  H     H_    0.901309 0.825071 0.033500 0.072256
O68   O     O_3   0.148454 0.976494 0.938643 -0.530604
C128  C     C_3   0.141636 0.855619 0.922189 -0.083972
H106  H     H_    0.190402 0.806911 0.932785 0.153231
H107  H     H_    0.126290 0.848050 0.865397 0.174713
H108  H     H_    0.098131 0.815052 0.952623 0.057819

loop_
_geom_bond_atom_site_label_1
_geom_bond_atom_site_label_2
_ccdc_geom_bond_type
C49   H1    S    
C44   H24   S    
C55   C59   A    
C107  H45   S    
C56   O56   S    
C126  H101  S    
C121  H87   S    
Cr8   O28   S    
C7    C99   S    
Cr3   O47   S    
Cr6   O30   S    
C5    C6    S    
Cr9   O37   S    
O63   C119  S    
C86   O42   A    
C109  H51   S    
C26   H14   S    
C103  H32   S    
C9    C13   A    
C11   C15   A    
C12   C16   A    
Cr9   O33   S    
C119  H79   S    
C113  H62   S    
C78   O50   A    
C91   C100  S    
C40   C44   A    
C127  H105  S    
C46   C98   S    
C49   C69   A    
C5    O61   S    
C40   C83   S    
C51   C71   A    
C22   H10   S    
C25   C29   A    
C48   C100  S    
Cr7   O31   S    
C113  H63   S    
C27   C31   A    
Cr2   O46   S    
C28   C32   A    
Cr6   O50   S    
Cr1   O1    S    
C105  H37   S    
C17   C21   A    
Cr4   O4    S    
C50   H2    S    
C84   O12   A    
C19   C23   A    
C43   C44   A    
C110  H52   S    
C52   C72   A    
C10   C30   A    
C47   O35   A    
C126  H100  S    
C68   C72   A    
C13   O65   S    
C14   O66   S    
C8    O64   S    
C58   C79   S    
C38   C81   S    
C125  H97   S    
Cr7   O7    S    
C90   H6    S    
Cr8   O8    S    
C66   O58   S    
C114  H66   S    
C12   C124  S    
C1    C20   S    
C2    C19   S    
Cr8   O52   S    
Cr9   O9    S    
Cr10  O14   S    
C117  H74   S    
C57   C61   A    
C124  H96   S    
C59   C63   A    
C33   C38   A    
C60   C64   A    
C42   H22   S    
C35   C40   A    
C50   C70   A    
C122  H89   S    
C83   O7    A    
C66   C70   A    
C73   O1    A    
C119  H81   S    
C49   C53   A    
C7    O63   S    
C95   C99   S    
C61   C65   A    
C102  H28   S    
Cr11  O19   S    
Cr7   O19   S    
C115  H67   S    
Cr5   O17   S    
Cr2   O22   S    
C41   H21   S    
C7    C8    S    
C108  H46   S    
C64   C68   A    
C107  H44   S    
C39   C84   S    
C74   O38   A    
C110  H54   S    
C86   O14   A    
C55   O55   S    
O61   C117  S    
C30   C74   S    
C118  H78   S    
C128  H107  S    
C84   O8    A    
C92   C96   S    
C47   C99   S    
O68   C128  S    
C116  H70   S    
C101  H26   S    
C6    O62   S    
C111  H55   S    
Cr3   O43   S    
Cr8   O32   S    
C120  H82   S    
C3    O23   A    
C104  H35   S    
C57   C80   S    
C8    C95   S    
C59   C78   S    
O56   C108  S    
C127  H104  S    
C109  H49   S    
Cr10  O38   S    
C62   C66   A    
C10   C14   A    
C91   C92   S    
C23   H11   S    
C65   O57   S    
C46   O34   A    
C78   O46   A    
C124  H94   S    
C88   O44   A    
C77   O45   A    
C102  H30   S    
C123  H91   S    
C80   O52   A    
C115  H69   S    
Cr12  O40   S    
C89   H5    S    
C26   C30   A    
Cr2   O42   S    
C91   H7    S    
C93   C97   S    
Cr1   O45   S    
C21   C25   A    
O58   C114  S    
C18   C22   A    
C36   C39   A    
C24   C28   A    
Cr7   O27   S    
C45   O33   A    
C32   C76   S    
C118  H76   S    
C117  H73   S    
C93   C101  S    
C121  H86   S    
C13   C17   A    
C89   C98   S    
C116  H72   S    
C112  H59   S    
C92   H8    S    
C75   O3    A    
C96   C100  S    
C109  H50   S    
C79   O47   A    
C5    C97   S    
Cr5   O25   S    
C80   O48   A    
C37   C41   A    
C103  H31   S    
C111  H57   S    
C1    O25   A    
C54   O54   S    
C106  H42   S    
O64   C120  S    
C119  H80   S    
Cr12  O20   S    
C120  H84   S    
Cr10  O10   S    
C92   C99   S    
C58   C62   A    
C34   C37   A    
C41   C42   A    
C35   C36   A    
C10   C122  S    
C82   O6    A    
C117  H75   S    
C5    C94   S    
C69   C85   S    
O59   C115  S    
C15   C19   A    
C7    C96   S    
C74   O2    A    
C50   C54   A    
C6    C98   S    
C108  H48   S    
C105  H38   S    
C94   C98   S    
C123  H93   S    
O65   C125  S    
C25   H13   S    
C27   H15   S    
Cr6   O18   S    
Cr12  O16   S    
Cr6   O6    S    
Cr9   O17   S    
Cr2   O18   S    
C90   C97   S    
C3    O27   A    
C52   H4    S    
Cr1   O21   S    
C2    O26   A    
C125  H98   S    
Cr4   O24   S    
C82   O10   A    
C90   C94   S    
C126  H102  S    
C114  H65   S    
C75   O39   A    
O67   C127  S    
C76   O40   A    
C53   C57   A    
C51   C55   A    
C51   H3    S    
C56   C60   A    
C125  H99   S    
C103  H33   S    
C122  H88   S    
Cr11  O11   S    
C31   C75   S    
C106  H40   S    
Cr8   O20   S    
C2    O22   A    
C6    C93   S    
C113  H61   S    
C64   C112  S    
C71   C87   S    
C4    C17   S    
Cr10  O34   S    
Cr3   O19   S    
Cr4   O48   S    
C37   C82   S    
C35   H19   S    
C115  H68   S    
C33   H17   S    
C46   O30   A    
C15   O67   S    
C73   O37   A    
C36   H20   S    
C110  H53   S    
C118  H77   S    
C128  H106  S    
Cr12  O36   S    
C65   C69   A    
Cr5   O29   S    
C67   C71   A    
Cr6   O26   S    
C8    C100  S    
C101  H25   S    
Cr1   O41   S    
C11   C123  S    
C85   O41   A    
C22   C26   A    
C89   C90   S    
C45   O29   A    
C28   H16   S    
C16   O68   S    
C94   C102  S    
C77   O49   A    
C104  H34   S    
C14   C18   A    
O55   C107  S    
C96   C104  S    
Cr4   O44   S    
O53   C105  S    
C79   O51   A    
Cr11  O39   S    
C38   C42   A    
C122  H90   S    
Cr5   O5    S    
C29   C73   S    
Cr7   O51   S    
C24   H12   S    
C3    C18   S    
Cr2   O2    S    
Cr5   O49   S    
C48   O36   A    
C20   C24   A    
C102  H29   S    
C53   O53   S    
C4    O28   A    
C23   C27   A    
Cr11  O35   S    
C16   C20   A    
C124  H95   S    
C81   O5    A    
C11   C31   A    
C87   O15   A    
C12   C32   A    
C89   C93   S    
C88   O16   A    
C72   C88   S    
C76   O4    A    
C63   C67   A    
C60   C77   S    
C107  H43   S    
C128  H108  S    
C39   C43   A    
C121  H85   S    
C91   C95   S    
C61   C109  S    
Cr12  O12   S    
C116  H71   S    
C101  H27   S    
Cr9   O13   S    
Cr10  O18   S    
Cr3   O3    S    
C63   C111  S    
C47   O31   A    
C68   O60   S    
C48   O32   A    
Cr1   O17   S    
C62   C110  S    
O60   C116  S    
C33   C34   A    
C9    C121  S    
Cr4   O20   S    
C43   H23   S    
C111  H56   S    
C83   O11   A    
C106  H41   S    
C81   O9    A    
C120  H83   S    
C104  H36   S    
C112  H60   S    
C70   C86   S    
C127  H103  S    
C54   C58   A    
O66   C126  S    
C95   C103  S    
Cr11  O15   S    
C114  H64   S    
C9    C29   A    
C1    O21   A    
C108  H47   S    
C45   C97   S    
C105  H39   S    
Cr3   O23   S    
C4    O24   A    
O57   C113  S    
C123  H92   S    
C21   H9    S    
C85   O13   A    
O62   C118  S    
C87   O43   A    
C34   H18   S    
O54   C106  S    
C112  H58   S    
C52   C56   A    
C67   O59   S    
