data_mof_unit_33478.cif
_audit_creation_date              2012-12-10T18:09:52-0500
_audit_creation_method            fapswitch 2.2
_symmetry_space_group_name_H-M    P1
_symmetry_Int_Tables_number       1
_space_group_crystal_system       triclinic
_cell_length_a                    10.631884
_cell_length_b                    12.59713
_cell_length_c                    13.129443
_cell_angle_alpha                 82.374686
_cell_angle_beta                  90.389385
_cell_angle_gamma                 102.411207
_cell_volume                      1701.73286105

loop_
_atom_site_label
_atom_site_type_symbol
_atom_type_description
_atom_site_fract_x
_atom_site_fract_y
_atom_site_fract_z
_atom_type_partial_charge
C1    C     C_R   0.480180 0.438823 0.691141 0.847659
C2    C     C_R   0.464511 0.446454 0.973580 0.085558
C3    C     C_R   0.433385 0.467095 0.869533 0.088100
C4    C     C_R   0.741871 0.500582 0.500292 0.842293
C5    C     C_R   0.463327 0.528878 0.036520 0.056430
C6    C     C_R   0.410984 0.621248 0.000546 0.175420
C7    C     C_R   0.362611 0.631548 0.901753 -0.246617
C8    C     C_R   0.373774 0.555518 0.836766 -0.205590
C9    C     C_R   0.515630 0.522868 0.133815 -0.213234
C10   C     C_R   0.448802 0.687549 0.165372 -0.218303
C11   C     C_R   0.464775 0.399455 0.800674 -0.115781
C12   C     C_3   0.121578 0.500523 0.499588 0.160893
C13   C     C_R   0.322128 0.088132 0.346396 -0.305312
C14   C     C_R   0.651944 0.799498 0.630084 0.022797
C15   C     C_R   0.683025 0.904033 0.658691 -0.250208
C16   C     C_R   0.512582 0.561013 0.308775 0.902051
C17   C     C_R   0.625366 0.985582 0.609564 -0.200743
C18   C     C_R   0.536020 0.962617 0.530897 0.017420
C19   C     C_R   0.508023 0.854694 0.504474 0.240365
C20   C     C_R   0.473553 0.041829 0.477650 -0.014265
C21   C     C_R   0.384719 0.011475 0.399641 0.196993
C22   C     C_R   0.359478 0.905079 0.375165 -0.297338
C23   C     C_3   0.067872 0.480727 0.392251 -0.458238
C24   C     C_R   0.420677 0.828142 0.426686 -0.228361
C25   C     C_R   0.495477 0.150728 0.498163 -0.052479
C26   C     C_R   0.348146 0.194295 0.370452 0.007500
C27   C     C_R   0.258100 0.499748 0.500107 0.815177
C28   C     C_3   0.905028 0.409944 0.582444 -0.434810
C29   C     C_3   0.049330 0.409320 0.582633 -0.398822
C30   C     C_3   0.922344 0.479157 0.391819 -0.148618
C31   C     C_3   0.957671 0.613095 0.526301 -0.370179
C32   C     C_3   0.878930 0.501928 0.499141 0.084635
C33   C     C_2   0.888761 0.556363 0.302076 0.891457
C34   C     C_3   0.100441 0.613602 0.522992 -0.367072
C35   C     C_R   0.406186 0.701029 0.064779 -0.191278
C36   C     C_R   0.500397 0.596307 0.200214 -0.042990
C37   C     C_R   0.498603 0.299994 0.837999 -0.199586
C38   C     C_R   0.509592 0.271152 0.942833 -0.144919
C39   C     C_R   0.495878 0.344413 0.010289 -0.181143
H1    H     H_    0.849326 0.328214 0.567385 0.179492
H2    H     H_    0.534290 0.193799 0.971617 0.143474
H3    H     H_    0.873847 0.423165 0.659726 0.169677
H4    H     H_    0.333850 0.565997 0.760989 0.164549
H5    H     H_    0.301167 0.255045 0.329947 0.132272
H6    H     H_    0.292215 0.881106 0.315617 0.163026
H7    H     H_    0.254235 0.066216 0.286739 0.147587
H8    H     H_    0.561246 0.181656 0.555381 0.120329
H9    H     H_    0.696113 0.735611 0.668109 0.137413
H10   H     H_    0.652580 0.065166 0.634799 0.131504
H11   H     H_    0.751393 0.921795 0.718872 0.149867
H12   H     H_    0.148894 0.680251 0.462668 0.199262
H13   H     H_    0.397821 0.748282 0.403774 0.209772
H14   H     H_    0.088626 0.422857 0.659818 0.159198
H15   H     H_    0.062586 0.327485 0.567474 0.185643
H16   H     H_    0.871132 0.394472 0.380897 0.141114
H17   H     H_    0.083035 0.400807 0.373075 0.167882
H18   H     H_    0.938158 0.683629 0.473010 0.224926
H19   H     H_    0.929910 0.625257 0.604931 0.165720
H20   H     H_    0.142334 0.632185 0.598315 0.172130
H21   H     H_    0.919268 0.709569 0.225066 0.342616
H22   H     H_    0.122046 0.545438 0.332758 0.179916
H23   H     H_    0.435659 0.744905 0.216769 0.151967
H24   H     H_    0.318450 0.699539 0.873962 0.147544
H25   H     H_    0.365179 0.771253 0.038514 0.138024
H26   H     H_    0.564867 0.458641 0.161710 0.185395
H27   H     H_    0.520519 0.246145 0.785979 0.151081
H28   H     H_    0.507130 0.317946 0.090763 0.136270
N1    N     N_R   0.433240 0.222190 0.444680 -0.100671
N2    N     N_R   0.566070 0.776970 0.554790 -0.130727
O1    O     O_R   0.468120 0.366740 0.627160 -0.615780
O2    O     O_R   0.950346 0.667275 0.287840 -0.827464
O3    O     O_R   0.510770 0.544830 0.662520 -0.616030
O4    O     O_R   0.663880 0.410950 0.482330 -0.621321
O5    O     O_R   0.706530 0.589040 0.517700 -0.622194
O6    O     O_R   0.489230 0.455170 0.337480 -0.610574
O7    O     O_R   0.531880 0.633260 0.372840 -0.632616
O8    O     O_R   0.293470 0.410960 0.482300 -0.622115
O9    O     O_R   0.336120 0.589050 0.517670 -0.654559
O10   O     O_2   0.808761 0.520655 0.240830 -0.658377
Zn1   Zn    Zn3+2 0.471520 0.381090 0.476390 0.940270
Zn2   Zn    Zn3+2 0.528480 0.618910 0.523610 0.925641

loop_
_geom_bond_atom_site_label_1
_geom_bond_atom_site_label_2
_ccdc_geom_bond_type
C24   H13   S    
N1    Zn1   S    
C12   C29   S    
C16   O6    A    
C1    C11   S    
C8    H4    S    
C27   O9    A    
C26   H5    S    
C7    C8    A    
C12   C23   S    
C34   H12   S    
C31   H19   S    
C28   C29   S    
C5    C6    A    
C20   C25   A    
C28   H1    S    
C6    C35   A    
C18   C19   A    
C15   H11   S    
C23   H17   S    
C11   C37   A    
C2    C39   A    
C9    C36   A    
C10   C35   A    
O6    Zn1   S    
C25   H8    S    
C4    O5    A    
O3    Zn2   S    
C21   C22   A    
C10   H23   S    
C25   N1    A    
C1    O3    A    
C12   C27   S    
O1    Zn1   S    
C23   C30   S    
C28   C32   S    
C3    C11   A    
C38   H2    S    
C3    C8    A    
C17   H10   S    
C33   O10   D    
C14   H9    S    
H21   O2    S    
C5    C9    A    
C37   C38   A    
C31   C32   S    
C37   H27   S    
C17   C18   A    
C31   C34   S    
C13   C21   A    
C35   H25   S    
C7    H24   S    
C4    O4    A    
C4    C32   S    
C34   H20   S    
C14   N2    A    
C22   C24   A    
C13   C26   A    
C19   N2    A    
C2    C5    A    
O5    Zn2   S    
C12   C34   S    
O8    Zn1   S    
C13   H7    S    
C15   C17   A    
C30   C33   S    
C16   O7    A    
C39   H28   S    
C27   O8    A    
O7    Zn2   S    
C6    C7    A    
C30   H16   S    
C1    O1    A    
C26   N1    A    
C31   H18   S    
C19   C24   A    
C16   C36   S    
C30   C32   S    
O9    Zn2   S    
C38   C39   A    
C29   H14   S    
C28   H3    S    
O4    Zn1   S    
C2    C3    A    
C18   C20   A    
C9    H26   S    
N2    Zn2   S    
C33   O2    S    
C23   H22   S    
C22   H6    S    
C20   C21   A    
C29   H15   S    
C14   C15   A    
C10   C36   A    
