data_mof_unit_66623.cif
_audit_creation_date              2013-03-05T15:41:05-0500
_audit_creation_method            fapswitch 2.2
_symmetry_space_group_name_H-M    P1
_symmetry_Int_Tables_number       1
_space_group_crystal_system       triclinic
_cell_length_a                    8.290985
_cell_length_b                    14.218492
_cell_length_c                    15.009965
_cell_angle_alpha                 93.585596
_cell_angle_beta                  99.135328
_cell_angle_gamma                 91.094975
_cell_volume                      1742.83361265

loop_
_atom_site_label
_atom_site_type_symbol
_atom_site_description
_atom_site_fract_x
_atom_site_fract_y
_atom_site_fract_z
_atom_type_partial_charge
P1    P     P_3+3 0.947560 0.714050 0.560480 0.491966
O1    O     O_2   0.113690 0.728200 0.532750 -0.361850
O2    O     O_3   0.871900 0.612110 0.540440 -0.397378
O3    O     O_3   0.325660 0.668890 0.372600 -0.372304
O4    O     O_2   0.218952 0.834928 0.427068 -0.410066
O5    O     O_3   0.983509 0.745564 0.677411 -0.512562
O6    O     O_3   0.271825 0.818913 0.260835 -0.487514
H1    H     H_    0.457886 0.733846 0.224685 0.053467
C1    C     C_3   0.322034 0.791678 0.109560 -0.686911
H2    H     H_    0.236673 0.729435 0.095965 0.271154
H3    H     H_    0.255214 0.856280 0.090797 0.284254
P2    P     P_3+3 0.325150 0.423860 0.297970 0.544651
P3    P     P_3+3 0.855169 0.620784 0.212680 0.552155
O7    O     O_2   0.147570 0.451710 0.282630 -0.307227
O8    O     O_3   0.905540 0.621350 0.329600 -0.375622
O9    O     O_2   0.977023 0.556423 0.171799 -0.324871
O10   O     O_3   0.307873 0.300838 0.280624 -0.524601
O11   O     O_3   0.894666 0.733539 0.179105 -0.485164
C2    C     C_3   0.860847 0.800140 0.246440 0.447491
H4    H     H_    0.955035 0.798567 0.307704 0.153010
H5    H     H_    0.738805 0.786432 0.265189 -0.046180
C3    C     C_3   0.863412 0.898305 0.211747 -0.812119
H6    H     H_    0.984867 0.914772 0.193288 0.288655
H7    H     H_    0.767942 0.902380 0.151285 0.261157
C4    C     C_3   0.757255 0.242906 0.253455 1.078610
C5    C     C_3   0.610503 0.181306 0.265940 -1.080219
H8    H     H_    0.561454 0.207628 0.325796 0.248053
H9    H     H_    0.512583 0.182248 0.206180 0.295183
H10   H     H_    0.646726 0.107201 0.274315 0.233661
Ba1   Ba    Ba6+2 0.142880 0.544780 0.454020 1.635695
C6    C     C_3   0.055908 0.673033 0.727081 0.129402
H11   H     H_    0.168671 0.652246 0.701545 0.065644
H12   H     H_    0.971003 0.610671 0.720047 0.085186
C7    C     C_3   0.099119 0.707149 0.828402 0.746513
H13   H     H_    0.155677 0.648270 0.865638 -0.104106
C8    C     C_3   0.272054 0.262117 0.359329 0.445418
H14   H     H_    0.169514 0.298412 0.383809 0.118758
H15   H     H_    0.379433 0.269466 0.414050 0.088638
C9    C     C_3   0.226519 0.157423 0.338542 -0.944244
H16   H     H_    0.121047 0.147735 0.283054 0.308385
H17   H     H_    0.194688 0.125827 0.399112 0.204506
H18   H     H_    0.329294 0.117771 0.317678 0.249215
P4    P     P_3+3 0.862730 0.285940 0.439440 0.501484
O12   O     O_2   0.696600 0.271740 0.467230 -0.404889
O13   O     O_3   0.938380 0.387880 0.459490 -0.340542
O14   O     O_3   0.484630 0.331100 0.627330 -0.396446
O15   O     O_3   0.883419 0.242618 0.328223 -0.659246
P5    P     P_3+3 0.944762 0.383148 0.788775 0.473479
O16   O     O_3   0.389110 0.548970 0.605210 -0.413010
O17   O     O_3   0.904740 0.378630 0.670330 -0.363436
O18   O     O_2   0.815317 0.446283 0.823267 -0.353926
O19   O     O_3   0.895718 0.272301 0.824031 -0.547906
Ba2   Ba    Ba6+2 0.667290 0.455210 0.545900 1.630863
P6    P     P_3+3 0.343985 0.791426 0.371619 0.451185
C10   C     C_3   0.395869 0.800858 0.208871 0.275842
H19   H     H_    0.486484 0.860731 0.220276 0.076275
H20   H     H_    0.420903 0.781892 0.068272 0.216396
O20   O     O_3   0.421180 0.451020 0.394720 -0.417532
C11   C     C_3   0.552246 0.740631 0.654582 0.456698
H21   H     H_    0.681837 0.722513 0.658708 0.114873
H22   H     H_    0.482214 0.711949 0.588849 0.070062
C12   C     C_3   0.539817 0.847629 0.658239 -0.750128
H23   H     H_    0.567121 0.878402 0.728919 0.301856
H24   H     H_    0.627645 0.879139 0.619495 0.207026
H25   H     H_    0.414933 0.866792 0.627939 0.223499
P7    P     P_3+3 0.482218 0.581994 0.715433 0.503759
O21   O     O_2   0.662730 0.548230 0.717350 -0.329784
O22   O     O_3   0.491163 0.705222 0.728204 -0.487879
H26   H     H_    0.838946 0.951339 0.265131 0.196880
C13   C     C_3   0.023677 0.209297 0.820294 0.992489
H27   H     H_    0.102142 0.226910 0.769832 -0.147737
C14   C     C_3   0.125297 0.206043 0.914442 -0.984697
H28   H     H_    0.044256 0.197571 0.965840 0.310549
H29   H     H_    0.209452 0.146276 0.916671 0.249157
H30   H     H_    0.200154 0.271459 0.932717 0.206503
P8    P     P_3+3 0.464356 0.210154 0.634542 0.503147
C15   C     C_3   0.501521 0.255072 0.805218 0.419093
H31   H     H_    0.368405 0.267101 0.793363 -0.011971
O23   O     O_2   0.580539 0.164090 0.574926 -0.340872
O24   O     O_3   0.542350 0.182852 0.745029 -0.445986
H32   H     H_    0.567871 0.321878 0.797523 0.151740
H33   H     H_    0.492988 0.158365 0.910839 0.252997
C16   C     C_3   0.549730 0.227796 0.902144 -0.753401
H34   H     H_    0.508414 0.281902 0.949506 0.214909
H35   H     H_    0.684199 0.223020 0.919362 0.302804
C17   C     C_R   0.016021 0.940851 0.549252 -0.018465
C18   C     C_R   0.821694 0.803700 0.498219 0.229164
C19   C     C_R   0.667672 0.772559 0.452989 -0.526594
C20   C     C_R   0.552731 0.835973 0.417117 0.232408
C21   C     C_R   0.595055 0.931718 0.419081 -0.317839
C22   C     C_R   0.751347 0.965562 0.460521 0.077674
C23   C     C_R   0.865179 0.902428 0.503038 -0.035848
H36   H     H_    0.632916 0.698587 0.450578 0.168928
C24   C     C_R   0.942416 0.101387 0.507518 0.019622
C25   C     C_R   0.056090 0.038165 0.550317 0.093900
C26   C     C_R   0.984797 0.200664 0.511590 0.299820
C27   C     C_R   0.138309 0.231994 0.557697 -0.489709
C28   C     C_R   0.253205 0.168152 0.593782 0.201037
C29   C     C_R   0.211579 0.072399 0.591670 -0.300267
C30   C     C_R   0.791416 0.062574 0.462251 -0.130000
H37   H     H_    0.505003 0.979862 0.389582 0.151527
H38   H     H_    0.302205 0.024440 0.620744 0.166563
H39   H     H_    0.174014 0.305680 0.558601 0.158090
H40   H     H_    0.104544 0.895830 0.584504 0.180128
H41   H     H_    0.700589 0.107183 0.429749 0.160079
C31   C     C_R   0.239963 0.469066 0.768913 -0.519058
C32   C     C_R   0.147748 0.437421 0.831602 0.206734
C33   C     C_R   0.203028 0.455930 0.924395 -0.270303
C34   C     C_R   0.355855 0.503158 0.955939 0.069644
C35   C     C_R   0.441665 0.537824 0.889901 -0.180347
C36   C     C_R   0.382850 0.522539 0.797987 0.244798
C37   C     C_R   0.577447 0.565366 0.085555 -0.231805
C38   C     C_R   0.643410 0.576378 0.176975 0.241876
C39   C     C_R   0.411652 0.490634 0.214354 0.343657
C40   C     C_R   0.344459 0.479262 0.122419 -0.184482
C41   C     C_R   0.424163 0.518089 0.055597 0.085137
C42   C     C_R   0.555123 0.544634 0.241533 -0.347818
H42   H     H_    0.652912 0.591695 0.040184 0.168294
H43   H     H_    0.123515 0.433683 0.969747 0.163330
H44   H     H_    0.234799 0.435831 0.105058 0.153434
H45   H     H_    0.551738 0.580033 0.907065 0.196660
H46   H     H_    0.606981 0.553199 0.312501 0.162714
H47   H     H_    0.194721 0.457770 0.697272 0.172001
S1    S     S_3+6 0.244538 0.805014 0.847891 0.030620
O25   O     O_2   0.257987 0.848168 0.760608 -0.277353
O26   O     O_2   0.194476 0.879721 0.912603 -0.208798
O27   O     O_3   0.427632 0.766057 0.893072 -0.557798
H48   H     H_    0.499714 0.823246 0.905656 0.375979
S2    S     S_3+6 0.921379 0.736617 0.877080 0.024153
O28   O     O_2   0.802849 0.654363 0.863699 -0.310436
O29   O     O_2   0.969726 0.760157 0.976899 -0.272686
O30   O     O_3   0.833609 0.830038 0.828095 -0.453198
H49   H     H_    0.780598 0.863216 0.875188 0.384273
S3    S     S_3+6 0.935845 0.094283 0.785790 0.043748
O31   O     O_2   0.829529 0.065086 0.852150 -0.220911
O32   O     O_2   0.834179 0.095476 0.693943 -0.247711
O33   O     O_3   0.083268 0.015535 0.781514 -0.429903
H50   H     H_    0.180767 0.052222 0.771610 0.313608
N1    N     N_R   0.708616 0.338355 0.235320 0.188482
O34   O     O_R   0.618580 0.350955 0.158043 -0.465365
O35   O     O_R   0.795041 0.409226 0.278209 -0.371694
N2    N     N_R   0.826437 0.204242 0.174723 0.224948
O36   O     O_R   0.950926 0.247658 0.150866 -0.366721
O37   O     O_R   0.766278 0.127876 0.127610 -0.399989

loop_
_geom_bond_atom_site_label_1
_geom_bond_atom_site_label_2
_geom_bond_distance
_ccdc_geom_bond_type
P1    C18   1.864770 S    
P7    O22   1.749489 S    
C18   C19   1.397560 A    
O2    Ba2   2.789938 S    
Ba1   O13   2.789420 S    
C2    H4    1.109571 S    
P8    O23   1.543397 D    
O6    C10   1.404185 S    
C10   H19   1.111283 S    
C17   H40   1.079551 S    
S3    O33   1.679290 S    
O14   P8    1.736453 S    
C39   C40   1.401891 A    
C9    H17   1.104889 S    
C15   H31   1.107988 S    
C30   H41   1.071302 S    
P3    O11   1.750675 S    
C8    H14   1.102885 S    
C4    N1    1.452860 S    
C7    H13   1.106088 S    
C35   H45   1.069809 S    
C25   C29   1.402951 A    
P5    C32   1.840063 S    
C31   C32   1.393072 A    
C15   C16   1.522698 S    
P8    C28   1.835748 S    
C40   C41   1.418885 A    
C33   C34   1.420496 A    
P1    O1    1.514208 D    
C35   C36   1.390407 A    
C12   H24   1.106233 S    
C34   C41   1.513298 S    
C2    H5    1.109405 S    
O12   Ba2   2.826415 S    
P4    Ba2   3.385538 S    
P5    O18   1.542983 D    
C16   H34   1.110649 S    
C7    S2    1.791150 S    
O30   H49   0.990060 S    
C31   H47   1.082061 S    
C32   C33   1.402184 A    
C6    H12   1.110742 S    
C13   H27   1.110684 S    
C1    C10   1.515476 S    
O10   C8    1.404772 S    
C24   C30   1.410725 A    
P7    C36   1.832315 S    
C1    H2    1.110568 S    
C4    O15   1.407715 S    
C3    H26   1.110718 S    
C40   H44   1.076587 S    
S2    O30   1.680409 S    
P2    Ba1   3.383146 S    
P5    O17   1.752882 S    
P7    O21   1.576921 D    
O13   Ba2   2.915997 S    
C11   H21   1.102756 S    
C18   C23   1.437159 A    
C33   H43   1.076803 S    
O7    Ba1   2.824651 S    
C14   H30   1.103415 S    
H1    C10   1.112126 S    
C37   C38   1.392173 A    
C27   C28   1.398395 A    
C9    H18   1.105905 S    
P2    C39   1.843860 S    
C31   C36   1.389920 A    
Ba1   Ba2   4.563607 S    
C11   H22   1.111589 S    
O17   Ba2   2.778197 S    
O16   P7    1.742699 S    
P1    O5    1.760834 S    
O4    P6    1.544032 D    
C2    C3    1.520870 S    
P6    C20   1.841632 S    
C14   H29   1.108562 S    
C9    H16   1.107754 S    
O11   C2    1.406161 S    
S3    O32   1.498633 D    
C4    C5    1.528024 S    
P1    O2    1.560653 S    
P2    O10   1.752023 S    
O2    Ba1   2.915306 S    
C42   H46   1.082008 S    
C21   H37   1.083773 S    
C12   H23   1.109101 S    
C11   O22   1.403081 S    
P4    O13   1.560634 S    
C6    H11   1.103870 S    
C15   H32   1.110030 S    
Ba2   O20   2.797255 S    
C26   C27   1.399071 A    
P4    C26   1.878921 S    
C5    H8    1.091971 S    
C6    C7    1.550684 S    
C24   C26   1.443320 A    
C1    H3    1.110054 S    
C27   H39   1.081936 S    
S1    O27   1.680286 S    
C38   C42   1.394917 A    
C16   H35   1.108136 S    
Ba1   O16   2.797956 S    
P2    O7    1.517752 D    
C28   C29   1.395310 A    
P3    O8    1.737747 S    
P4    O12   1.514689 D    
C22   C30   1.410297 A    
C3    H7    1.110736 S    
O27   H48   0.990161 S    
C22   C23   1.420069 A    
N2    O37   1.303494 A    
O8    Ba1   2.777489 S    
S1    O26   1.503288 D    
S2    O28   1.495962 D    
C15   O24   1.406979 S    
C19   H36   1.082082 S    
C11   C12   1.524961 S    
C7    S1    1.802350 S    
C12   H25   1.109009 S    
O3    P6    1.747178 S    
C3    H6    1.110548 S    
C8    C9    1.529320 S    
P8    O24   1.751785 S    
C14   H28   1.110985 S    
N1    O34   1.300361 A    
C37   C41   1.420315 A    
S3    O31   1.502667 D    
O33   H50   0.989639 S    
C5    H9    1.111107 S    
O1    Ba1   2.825944 S    
C8    H15   1.109804 S    
P2    O20   1.562986 S    
C17   C23   1.412350 A    
C34   C35   1.415376 A    
C37   H42   1.074073 S    
N1    O35   1.299267 A    
C4    N2    1.474382 S    
C21   C22   1.407271 A    
O16   Ba2   2.917226 S    
Ba1   O20   2.918011 S    
O14   Ba2   2.767100 S    
P1    Ba1   3.384973 S    
O5    C6    1.399069 S    
C1    H20   1.109175 S    
C24   C25   1.421742 A    
Ba2   O21   2.824972 S    
O3    Ba1   2.767618 S    
C39   C42   1.393809 A    
O19   C13   1.407156 S    
C17   C25   1.415321 A    
P5    O19   1.754302 S    
C29   H38   1.082911 S    
C19   C20   1.393449 A    
C5    H10   1.110341 S    
H33   C16   1.109417 S    
P3    O9    1.548105 D    
C13   S3    1.789298 S    
N2    O36   1.302024 A    
C13   C14   1.529902 S    
O6    P6    1.746455 S    
C20   C21   1.396674 A    
P4    O15   1.778190 S    
P3    C38   1.839798 S    
S1    O25   1.499878 D    
S2    O29   1.503003 D    
