data_mof_unit_47358.cif
_audit_creation_date              2013-03-05T15:39:43-0500
_audit_creation_method            fapswitch 2.2
_symmetry_space_group_name_H-M    P1
_symmetry_Int_Tables_number       1
_space_group_crystal_system       triclinic
_cell_length_a                    20.217551
_cell_length_b                    17.243134
_cell_length_c                    15.523261
_cell_angle_alpha                 89.99524
_cell_angle_beta                  51.603528
_cell_angle_gamma                 90.001324
_cell_volume                      4241.26219704

loop_
_atom_site_label
_atom_site_type_symbol
_atom_site_description
_atom_site_fract_x
_atom_site_fract_y
_atom_site_fract_z
_atom_type_partial_charge
C1    C     C_R   0.372192 0.195541 0.998406 0.160939
C2    C     C_R   0.630324 0.805315 0.998308 0.179974
C3    C     C_R   0.627629 0.195610 0.001781 0.160558
C4    C     C_R   0.369633 0.805326 0.001757 0.179720
C5    C     C_R   0.872287 0.695578 0.998312 0.160687
C6    C     C_R   0.130248 0.305291 0.998413 0.178756
C7    C     C_R   0.127673 0.695593 0.001740 0.160601
C8    C     C_R   0.869598 0.305338 0.001792 0.180108
N1    N     N_R   0.408680 0.130810 0.995780 -0.061192
N2    N     N_R   0.591320 0.869190 0.004220 -0.060309
N3    N     N_R   0.591320 0.130810 0.004220 -0.061277
N4    N     N_R   0.408680 0.869190 0.995780 -0.060249
N5    N     N_R   0.908680 0.630810 0.995780 -0.061261
N6    N     N_R   0.091320 0.369190 0.004220 -0.060318
N7    N     N_R   0.091320 0.630810 0.004220 -0.061299
N8    N     N_R   0.908680 0.369190 0.995780 -0.060262
C9    C     C_R   0.386245 0.804612 0.217266 -0.073974
C10   C     C_R   0.653338 0.167779 0.777754 -0.076660
C11   C     C_R   0.613114 0.804432 0.782969 -0.075144
C12   C     C_R   0.346703 0.167824 0.222251 -0.076346
C13   C     C_R   0.886823 0.304443 0.217064 -0.074839
C14   C     C_R   0.153358 0.667744 0.777812 -0.075469
C15   C     C_R   0.113323 0.304491 0.782901 -0.075246
C16   C     C_R   0.846700 0.667821 0.222272 -0.076797
H1    H     H_    0.382666 0.747914 0.191987 0.155613
H2    H     H_    0.675632 0.216442 0.796397 0.144962
H3    H     H_    0.616605 0.747716 0.808299 0.156332
H4    H     H_    0.324453 0.216524 0.203605 0.144918
H5    H     H_    0.883348 0.247724 0.191737 0.156208
H6    H     H_    0.175577 0.716462 0.796469 0.144548
H7    H     H_    0.116862 0.247786 0.808216 0.156328
H8    H     H_    0.824407 0.716488 0.203633 0.145024
N9    N     N_R   0.421410 0.867210 0.153620 -0.040145
N10   N     N_R   0.578590 0.132790 0.846380 -0.040642
N11   N     N_R   0.578590 0.867210 0.846380 -0.040120
N12   N     N_R   0.421410 0.132790 0.153620 -0.040673
N13   N     N_R   0.921410 0.367210 0.153620 -0.040089
N14   N     N_R   0.078590 0.632790 0.846380 -0.040695
N15   N     N_R   0.078590 0.367210 0.846380 -0.040173
N16   N     N_R   0.921410 0.632790 0.153620 -0.040613
C17   C     C_R   0.354718 0.895592 0.912368 -0.054306
C18   C     C_R   0.642986 0.105659 0.090749 -0.039287
C19   C     C_R   0.645213 0.895555 0.087732 -0.054437
C20   C     C_R   0.356830 0.105546 0.909489 -0.040923
C21   C     C_R   0.854718 0.395595 0.912363 -0.054461
C22   C     C_R   0.143040 0.605622 0.090680 -0.039389
C23   C     C_R   0.145134 0.395525 0.087842 -0.054130
C24   C     C_R   0.856931 0.605617 0.909358 -0.039719
H9    H     H_    0.343534 0.924008 0.860360 0.141923
H10   H     H_    0.653937 0.077249 0.142990 0.144511
H11   H     H_    0.656381 0.923964 0.139757 0.141844
H12   H     H_    0.345815 0.077097 0.857339 0.145325
H13   H     H_    0.843536 0.424016 0.860355 0.141833
H14   H     H_    0.154002 0.577201 0.142904 0.144560
H15   H     H_    0.156274 0.423935 0.139893 0.141933
H16   H     H_    0.845957 0.577204 0.857147 0.144670
N17   N     N_R   0.403840 0.921910 0.935760 -0.068737
N18   N     N_R   0.596160 0.078090 0.064240 -0.070005
N19   N     N_R   0.596160 0.921910 0.064240 -0.068748
N20   N     N_R   0.403840 0.078090 0.935760 -0.069934
N21   N     N_R   0.903840 0.421910 0.935760 -0.068726
N22   N     N_R   0.096160 0.578090 0.064240 -0.070042
N23   N     N_R   0.096160 0.421910 0.064240 -0.068743
N24   N     N_R   0.903840 0.578090 0.935760 -0.069997
C25   C     C_R   0.356682 0.078156 0.317601 -0.107884
C26   C     C_R   0.604791 0.895862 0.688222 -0.134623
C27   C     C_R   0.643345 0.078116 0.682419 -0.108216
C28   C     C_R   0.394691 0.895949 0.312032 -0.135845
C29   C     C_R   0.856711 0.578155 0.317612 -0.107486
C30   C     C_R   0.104964 0.395895 0.688139 -0.135125
C31   C     C_R   0.143457 0.578051 0.682469 -0.109098
C32   C     C_R   0.895147 0.395863 0.311811 -0.134924
H17   H     H_    0.346139 0.045328 0.384353 0.101756
H18   H     H_    0.599322 0.923087 0.630147 0.104035
H19   H     H_    0.653912 0.045234 0.615695 0.101780
H20   H     H_    0.400096 0.923029 0.370241 0.104797
H21   H     H_    0.846172 0.545266 0.384320 0.101574
H22   H     H_    0.099527 0.423080 0.630012 0.104329
H23   H     H_    0.154072 0.545232 0.615667 0.102438
H24   H     H_    0.900612 0.423066 0.369898 0.104150
N25   N     N_R   0.426250 0.076100 0.213650 -0.050366
N26   N     N_R   0.573750 0.923900 0.786350 -0.045635
N27   N     N_R   0.573750 0.076100 0.786350 -0.050451
N28   N     N_R   0.426250 0.923900 0.213650 -0.045566
N29   N     N_R   0.926250 0.576100 0.213650 -0.050377
N30   N     N_R   0.073750 0.423900 0.786350 -0.045571
N31   N     N_R   0.073750 0.576100 0.786350 -0.050419
N32   N     N_R   0.926250 0.423900 0.213650 -0.045638
C33   C     C_R   0.335013 0.179339 0.951508 0.053447
C34   C     C_R   0.668738 0.822473 0.043417 0.039004
C35   C     C_R   0.664657 0.179511 0.048888 0.054942
C36   C     C_R   0.331159 0.822522 0.956740 0.039752
C37   C     C_R   0.835196 0.679441 0.951295 0.054745
C38   C     C_R   0.168604 0.322422 0.043611 0.038150
C39   C     C_R   0.164746 0.679460 0.048783 0.055277
C40   C     C_R   0.831139 0.322531 0.956751 0.039320
C41   C     C_R   0.368652 0.822126 0.315707 0.029752
C42   C     C_R   0.694487 0.134538 0.675409 0.016110
C43   C     C_R   0.630246 0.821855 0.684769 0.029967
C44   C     C_R   0.305553 0.134587 0.324603 0.015899
C45   C     C_R   0.869632 0.321871 0.315293 0.029859
C46   C     C_R   0.194648 0.634419 0.675501 0.015674
C47   C     C_R   0.130607 0.321949 0.684622 0.029909
C48   C     C_R   0.805601 0.634612 0.324637 0.016033
Ni1   Ni    Ni4+2 0.500000 0.131570 0.000000 0.278507
Ni2   Ni    Ni4+2 0.500000 0.868430 0.000000 0.269663
Ni3   Ni    Ni4+2 0.000000 0.631570 0.000000 0.278549
Ni4   Ni    Ni4+2 0.000000 0.368430 0.000000 0.269549
Ni5   Ni    Ni4+2 0.488900 0.000000 0.862310 0.227365
Ni6   Ni    Ni4+2 0.511100 0.000000 0.137690 0.227587
Ni7   Ni    Ni4+2 0.988900 0.500000 0.862310 0.227439
Ni8   Ni    Ni4+2 0.011100 0.500000 0.137690 0.227523
C49   C     C_3   0.204297 0.150739 0.542226 -0.137372
C50   C     C_3   0.708410 0.796048 0.476050 -0.126335
C51   C     C_3   0.795372 0.150757 0.457836 -0.137757
C52   C     C_3   0.287455 0.796786 0.524918 -0.126335
C53   C     C_3   0.705204 0.650904 0.542125 -0.137984
C54   C     C_3   0.209775 0.296332 0.475726 -0.126266
C55   C     C_3   0.297724 0.650377 0.457612 -0.136874
C56   C     C_3   0.790960 0.296146 0.524106 -0.126142
C57   C     C_3   0.626348 0.699352 0.581483 -0.121331
C58   C     C_3   0.286840 0.247483 0.438801 -0.128257
C59   C     C_3   0.374089 0.701933 0.420845 -0.119988
C60   C     C_3   0.713523 0.247744 0.561436 -0.128453
C61   C     C_3   0.126224 0.200184 0.580743 -0.121099
C62   C     C_3   0.786268 0.748182 0.438275 -0.128709
C63   C     C_3   0.873815 0.199750 0.418914 -0.121264
C64   C     C_3   0.212120 0.745858 0.560076 -0.126709
H25   H     H_    0.559486 0.681395 0.643302 0.151143
H26   H     H_    0.353714 0.266215 0.379034 0.145889
H27   H     H_    0.441771 0.685987 0.360647 0.150368
H28   H     H_    0.646784 0.266774 0.621427 0.145909
H29   H     H_    0.059082 0.182856 0.642046 0.150814
H30   H     H_    0.852852 0.767562 0.378009 0.146164
H31   H     H_    0.940828 0.182138 0.357373 0.150898
H32   H     H_    0.144690 0.763176 0.618763 0.145315
H33   H     H_    0.202620 0.090039 0.567367 0.133660
H34   H     H_    0.709726 0.856359 0.450006 0.132394
H35   H     H_    0.796633 0.090147 0.432748 0.133678
H36   H     H_    0.283270 0.857627 0.551324 0.132036
H37   H     H_    0.704417 0.590400 0.567176 0.133606
H38   H     H_    0.212018 0.356834 0.449551 0.132295
H39   H     H_    0.301284 0.589332 0.432293 0.134139
H40   H     H_    0.789149 0.356560 0.550212 0.132300
C65   C     C_3   0.666802 0.769240 0.593515 0.148390
C66   C     C_3   0.247072 0.177895 0.424441 0.139724
C67   C     C_3   0.332203 0.769413 0.406865 0.149322
C68   C     C_3   0.753062 0.177804 0.575530 0.139842
C69   C     C_3   0.167152 0.269315 0.593394 0.148705
C70   C     C_3   0.746981 0.677835 0.424528 0.139788
C71   C     C_3   0.833109 0.269230 0.406535 0.148625
C72   C     C_3   0.252854 0.677917 0.575752 0.139852
C73   C     C_3   0.243875 0.220794 0.556918 -0.150954
C74   C     C_3   0.669432 0.725219 0.461301 -0.141985
C75   C     C_3   0.756016 0.221155 0.443425 -0.150887
C76   C     C_3   0.327891 0.728391 0.541566 -0.147196
C77   C     C_3   0.744310 0.721703 0.556181 -0.150369
C78   C     C_3   0.170314 0.226271 0.460375 -0.143611
C79   C     C_3   0.257195 0.718810 0.441562 -0.152897
C80   C     C_3   0.830193 0.225731 0.539195 -0.142945
H41   H     H_    0.273468 0.219882 0.597837 0.139840
H42   H     H_    0.639851 0.724943 0.420449 0.154559
H43   H     H_    0.726168 0.220608 0.402832 0.139950
H44   H     H_    0.355808 0.730565 0.584486 0.158279
H45   H     H_    0.774439 0.721591 0.596410 0.139816
H46   H     H_    0.141247 0.226796 0.418862 0.155737
H47   H     H_    0.228749 0.716227 0.399239 0.140478
H48   H     H_    0.859497 0.225883 0.580406 0.155189
C81   C     C_2   0.215587 0.734678 0.051480 -0.160244
C82   C     C_2   0.779961 0.267609 0.954159 -0.139469
C83   C     C_2   0.784317 0.734649 0.948650 -0.159626
C84   C     C_2   0.219722 0.267469 0.046299 -0.139072
C85   C     C_2   0.715506 0.234743 0.051560 -0.160012
C86   C     C_2   0.280023 0.767582 0.954104 -0.139329
C87   C     C_2   0.284032 0.234468 0.948963 -0.158050
C88   C     C_2   0.719890 0.767531 0.046038 -0.139365
I1    I     I_    0.401918 0.309841 0.015573 -0.344732
I2    I     I_    0.598513 0.690128 0.988563 -0.379280
I3    I     I_    0.597907 0.309843 0.984387 -0.345299
I4    I     I_    0.401505 0.690118 0.011342 -0.380366
I5    I     I_    0.901985 0.809844 0.015633 -0.345071
I6    I     I_    0.098300 0.190126 0.988796 -0.378970
I7    I     I_    0.097959 0.809851 0.984414 -0.345251
I8    I     I_    0.901304 0.190119 0.011610 -0.379904
C89   C     C_2   0.183812 0.761847 0.162838 1.056214
O1    O     O_2   0.188978 0.830170 0.179253 -0.624002
O2    O     O_R   0.144479 0.709168 0.250140 -0.812367
H49   H     H_    0.124960 0.734182 0.321580 0.322253
C90   C     C_2   0.812134 0.239255 0.843072 1.029505
O3    O     O_2   0.846034 0.284640 0.765963 -0.668340
O4    O     O_R   0.807117 0.160611 0.825528 -0.784296
H50   H     H_    0.831532 0.149071 0.746793 0.316127
C91   C     C_2   0.816065 0.761870 0.837330 1.055941
O5    O     O_2   0.811141 0.830258 0.820891 -0.623932
O6    O     O_R   0.855074 0.709157 0.750093 -0.812165
H51   H     H_    0.874606 0.734210 0.678666 0.322101
C92   C     C_2   0.187702 0.239299 0.157394 1.029354
O7    O     O_2   0.153992 0.284810 0.234336 -0.668445
O8    O     O_R   0.192664 0.160685 0.175142 -0.784262
H52   H     H_    0.168360 0.149261 0.253866 0.316024
C93   C     C_2   0.683731 0.261962 0.162894 1.056270
O9    O     O_2   0.688908 0.330298 0.179248 -0.624034
O10   O     O_R   0.644398 0.209314 0.250244 -0.812203
H53   H     H_    0.624876 0.234361 0.321664 0.322201
C94   C     C_2   0.312202 0.739307 0.842982 1.029317
O11   O     O_2   0.346221 0.784724 0.765901 -0.669141
O12   O     O_R   0.307083 0.660706 0.825356 -0.784382
H54   H     H_    0.331519 0.649238 0.746593 0.316288
C95   C     C_2   0.315521 0.261528 0.837725 1.055122
O13   O     O_2   0.311744 0.330107 0.820842 -0.623351
O14   O     O_R   0.352811 0.208385 0.751114 -0.811623
H55   H     H_    0.372264 0.233359 0.679681 0.321889
C96   C     C_2   0.687747 0.739196 0.157128 1.029363
O15   O     O_2   0.653848 0.784586 0.234219 -0.668392
O16   O     O_R   0.692797 0.660562 0.174695 -0.784224
H56   H     H_    0.668403 0.649034 0.253428 0.316085

loop_
_geom_bond_atom_site_label_1
_geom_bond_atom_site_label_2
_geom_bond_distance
_ccdc_geom_bond_type
N16   N29   1.395205 A    
O10   H53   1.013900 S    
C27   N27   1.328163 A    
C10   C42   1.379502 A    
C30   H22   1.081270 S    
C41   C67   1.440845 S    
C93   O9    1.223473 D    
N13   N32   1.395309 A    
C29   H21   1.079416 S    
C8    C40   1.362572 A    
C3    N3    1.324481 A    
N5    Ni3   1.887698 S    
N29   Ni8   1.882214 S    
C67   C79   1.528527 S    
C55   C59   1.550791 S    
C18   N18   1.332493 A    
C31   H23   1.079484 S    
C25   H17   1.079416 S    
C94   O11   1.222946 D    
C80   H48   1.109542 S    
C60   C68   1.535750 S    
C82   C90   1.497546 S    
C35   C85   1.420748 S    
C6    I6    2.121959 S    
C85   C93   1.496956 S    
C56   H40   1.110136 S    
C63   H31   1.110275 S    
C12   N12   1.335111 A    
C64   H32   1.111273 S    
C23   N23   1.331243 A    
C50   C62   1.535054 S    
C89   O2    1.398259 S    
C26   N26   1.326868 A    
C32   C45   1.364602 A    
C92   O7    1.223082 D    
N1    Ni1   1.887698 S    
C14   N14   1.335067 A    
C34   C88   1.421622 S    
N14   Ni3   1.872172 S    
N19   Ni6   1.906617 S    
C51   C63   1.550314 S    
C60   H28   1.111178 S    
C3    C35   1.360953 A    
C18   C35   1.371880 A    
C54   C58   1.535055 S    
N7    Ni3   1.887697 S    
N23   Ni8   1.906617 S    
C90   O4    1.399189 S    
C69   C73   1.528320 S    
C28   C41   1.365082 A    
C3    I3    2.124933 S    
N20   Ni5   1.906617 S    
C27   C42   1.373909 A    
C38   C84   1.421726 S    
C19   H11   1.081533 S    
C1    I1    2.124991 S    
C64   C72   1.535850 S    
C15   C47   1.370367 A    
C22   C39   1.371831 A    
C72   C76   1.529818 S    
C44   C66   1.442741 S    
C91   O6    1.398408 S    
C10   H2    1.073805 S    
N8    N21   1.348019 A    
N3    Ni1   1.887697 S    
C86   C94   1.497541 S    
C81   C86   1.362943 D    
N27   Ni5   1.882023 S    
C53   C70   1.531665 S    
C21   C40   1.371526 A    
C71   C75   1.528262 S    
C4    N4    1.324170 A    
N3    N18   1.348017 A    
C11   H3    1.072562 S    
C81   C89   1.497005 S    
C57   H25   1.110222 S    
C5    N5    1.324500 A    
C84   C87   1.362775 D    
C19   N19   1.331277 A    
C63   C71   1.531671 S    
C20   H12   1.081469 S    
N6    Ni4   1.887696 S    
C43   C65   1.440730 S    
C21   H13   1.081533 S    
O8    H52   1.013766 S    
C8    N8    1.324231 A    
C40   C82   1.421525 S    
C93   O10   1.398379 S    
N15   Ni4   1.872177 S    
C9    N9    1.331885 A    
C4    I4    2.122000 S    
C75   H43   1.110705 S    
C17   H9    1.081530 S    
C32   N32   1.326896 A    
N11   N26   1.395208 A    
C59   C76   1.555059 S    
C96   O16   1.399192 S    
C55   H39   1.110204 S    
N17   Ni5   1.906428 S    
C19   C34   1.371558 A    
C24   C37   1.371898 A    
C53   C77   1.541873 S    
O4    H50   1.013758 S    
C28   N28   1.327098 A    
N26   Ni5   1.882214 S    
C1    N1    1.324527 A    
C25   C44   1.373934 A    
N13   Ni4   1.872172 S    
C57   C74   1.555449 S    
C77   H45   1.110645 S    
C11   C43   1.370411 A    
C30   C47   1.364713 A    
C58   C66   1.535771 S    
C49   C73   1.542132 S    
C7    N7    1.324510 A    
C12   H4    1.073788 S    
C58   H26   1.111223 S    
C6    C38   1.362641 A    
C96   O15   1.223017 D    
C13   H5    1.072552 S    
C51   C68   1.531656 S    
C45   C71   1.440780 S    
N28   Ni6   1.882024 S    
O12   H54   1.013796 S    
C73   H41   1.110739 S    
C16   C48   1.379502 A    
C15   H7    1.072579 S    
C26   C43   1.364536 A    
C54   C69   1.529914 S    
C53   H37   1.110030 S    
O16   H56   1.013753 S    
C16   H8    1.073786 S    
C6    N6    1.324186 A    
C26   H18   1.081244 S    
C65   C77   1.528186 S    
C25   N25   1.328188 A    
O14   H55   1.013843 S    
C5    I5    2.124961 S    
N12   N25   1.395205 A    
C22   H14   1.081481 S    
C95   O13   1.223796 D    
N22   Ni8   1.906426 S    
C84   C92   1.497374 S    
C20   N20   1.332380 A    
C39   C81   1.420663 S    
C62   H30   1.111123 S    
C61   C69   1.531689 S    
C18   H10   1.081478 S    
N16   Ni3   1.872178 S    
C31   N31   1.328395 A    
N4    N17   1.348019 A    
C50   H34   1.110064 S    
C55   C79   1.542550 S    
C31   C46   1.374209 A    
C22   N22   1.332441 A    
N8    Ni4   1.887699 S    
C51   C75   1.541996 S    
C70   C74   1.529681 S    
C58   C73   1.532856 S    
C49   H33   1.110148 S    
C54   C78   1.545612 S    
C27   H19   1.079428 S    
N10   N27   1.395312 A    
C33   C87   1.420637 S    
C30   N30   1.326917 A    
C29   N29   1.328105 A    
C78   H46   1.109559 S    
C23   H15   1.081530 S    
C29   C48   1.373835 A    
C61   H29   1.110321 S    
C55   C72   1.531436 S    
C24   H16   1.081481 S    
C62   C70   1.535697 S    
C37   C83   1.420743 S    
C56   C71   1.529938 S    
C1    C33   1.361185 A    
C14   H6    1.073778 S    
C59   H27   1.110375 S    
N12   Ni1   1.872178 S    
N18   Ni6   1.906426 S    
N10   Ni1   1.872172 S    
C74   H42   1.109506 S    
N9    Ni2   1.872172 S    
C50   C65   1.529930 S    
C59   C67   1.531790 S    
C54   H38   1.110196 S    
C52   C67   1.529793 S    
C5    C37   1.361020 A    
C48   C70   1.442889 S    
C66   C78   1.529732 S    
C53   C57   1.550185 S    
C52   H36   1.110300 S    
C28   H20   1.081295 S    
C68   C80   1.529726 S    
C7    C39   1.360998 A    
C83   C88   1.362957 D    
C14   C46   1.379375 A    
C7    I7    2.124965 S    
N14   N31   1.395313 A    
N1    N20   1.348120 A    
C36   C86   1.421435 S    
C62   C77   1.532714 S    
C92   O8    1.399200 S    
N2    N19   1.348118 A    
C13   C45   1.370400 A    
C9    H1    1.072539 S    
C12   C44   1.379439 A    
C32   H24   1.081254 S    
N11   Ni2   1.872177 S    
C11   N11   1.332167 A    
N31   Ni7   1.882021 S    
N4    Ni2   1.887699 S    
C83   C91   1.496828 S    
C8    I8    2.121945 S    
C89   O1    1.223466 D    
N5    N24   1.348120 A    
C42   C68   1.442871 S    
C10   N10   1.335168 A    
N21   Ni7   1.906428 S    
C15   N15   1.332045 A    
N6    N23   1.348118 A    
C49   C61   1.550390 S    
C21   N21   1.331229 A    
C16   N16   1.335160 A    
N7    N22   1.348017 A    
C79   H47   1.110750 S    
N30   Ni7   1.882216 S    
C57   C65   1.531616 S    
C87   C95   1.496336 S    
C90   O3    1.222991 D    
N9    N28   1.395310 A    
C52   C76   1.545438 S    
C49   C66   1.531630 S    
C24   N24   1.332476 A    
N24   Ni7   1.906617 S    
C47   C69   1.440685 S    
C17   N17   1.331190 A    
O6    H51   1.013900 S    
N32   Ni8   1.882025 S    
O2    H49   1.013943 S    
C17   C36   1.371533 A    
C13   N13   1.332142 A    
N25   Ni6   1.882214 S    
C76   H44   1.109522 S    
C2    C34   1.362577 A    
C91   O5    1.223574 D    
C52   C64   1.534963 S    
C60   C75   1.532763 S    
C56   C80   1.545648 S    
N2    Ni2   1.887696 S    
C95   O14   1.398874 S    
C88   C96   1.497532 S    
C2    I2    2.121871 S    
N15   N30   1.395207 A    
C4    C36   1.362523 A    
C51   H35   1.110091 S    
C94   O12   1.399179 S    
C9    C41   1.370320 A    
C63   C80   1.555433 S    
C50   C74   1.545678 S    
C23   C38   1.371484 A    
C20   C33   1.371799 A    
C56   C60   1.535036 S    
C64   C79   1.533016 S    
C46   C72   1.442671 S    
C61   C78   1.555344 S    
C82   C85   1.362967 D    
C2    N2    1.324199 A    
