data_mof_unit_35946.cif
_audit_creation_date              2012-12-10T18:06:47-0500
_audit_creation_method            fapswitch 2.2
_symmetry_space_group_name_H-M    P1
_symmetry_Int_Tables_number       1
_space_group_crystal_system       triclinic
_cell_length_a                    12.59324
_cell_length_b                    13.140002
_cell_length_c                    15.406842
_cell_angle_alpha                 82.533209
_cell_angle_beta                  99.446374
_cell_angle_gamma                 96.549133
_cell_volume                      2482.32205123

loop_
_atom_site_label
_atom_site_type_symbol
_atom_type_description
_atom_site_fract_x
_atom_site_fract_y
_atom_site_fract_z
_atom_type_partial_charge
C1    C     C_R   0.445110 0.308096 0.513517 0.915545
C2    C     C_R   0.665135 0.456872 0.942759 0.151675
C3    C     C_R   0.579242 0.516497 0.903644 0.123005
C4    C     C_R   0.435271 0.517341 0.335511 1.009307
C5    C     C_R   0.726404 0.417178 0.888871 -0.148823
C6    C     C_R   0.697446 0.429831 0.796868 -0.187931
C7    C     C_R   0.550960 0.527115 0.811789 -0.234341
C8    C     C_R   0.731651 0.926143 0.561857 -0.133817
C9    C     C_R   0.595675 0.798282 0.501902 -0.064532
C10   C     C_R   0.301844 0.163879 0.506409 -0.263732
C11   C     C_R   0.269162 0.059427 0.504190 0.455421
C12   C     C_R   0.449898 0.542949 0.097401 -0.132527
C13   C     C_R   0.347188 0.989938 0.514154 -0.235347
C14   C     C_R   0.458936 0.023854 0.530766 0.031923
C15   C     C_R   0.489849 0.126219 0.548293 0.089330
C16   C     C_R   0.557263 0.691403 0.492221 0.891321
C17   C     C_R   0.541180 0.959695 0.529849 0.096317
C18   C     C_R   0.650686 0.991430 0.561415 0.157539
C19   C     C_R   0.677181 0.087306 0.592592 -0.210077
C20   C     C_R   0.597745 0.154206 0.586059 -0.169520
C21   C     C_R   0.517364 0.866085 0.495094 -0.200962
C22   C     C_R   0.703906 0.828773 0.533374 -0.171515
C23   C     C_R   0.377783 0.618865 0.061219 -0.211878
C24   C     C_R   0.412008 0.197946 0.526077 -0.158210
C25   C     C_R   0.138912 0.647189 0.616902 -0.218126
C26   C     C_R   0.757468 0.374789 0.401421 -0.128772
C27   C     C_R   0.853145 0.347520 0.380097 0.432576
C28   C     C_R   0.565524 0.487287 0.664138 0.831046
C29   C     C_R   0.950696 0.396258 0.417350 -0.162739
C30   C     C_R   0.952862 0.470594 0.476629 -0.078895
C31   C     C_R   0.853531 0.495468 0.495020 0.223517
C32   C     C_R   0.049116 0.520656 0.518543 0.027678
C33   C     C_R   0.044352 0.595445 0.576595 0.183678
C34   C     C_R   0.527344 0.519963 0.047873 0.123315
C35   C     C_R   0.945392 0.617242 0.594255 -0.233308
C36   C     C_R   0.851308 0.566895 0.554579 -0.187542
C37   C     C_R   0.150859 0.499561 0.505371 0.022194
C38   C     C_R   0.237038 0.624250 0.599323 0.039602
C39   C     C_R   0.397181 0.541553 0.240199 -0.347760
C40   C     C_R   0.606945 0.481952 0.758675 -0.055609
C41   C     C_R   0.300237 0.638320 0.112051 0.411584
C42   C     C_R   0.323566 0.616687 0.204650 0.207754
C43   C     C_R   0.440077 0.490933 0.181693 0.287532
C44   C     C_R   0.517717 0.556876 0.957362 -0.005820
C45   C     C_R   0.450894 0.636331 0.923989 -0.277115
C46   C     C_R   0.386672 0.672182 0.976512 0.504997
C47   C     C_R   0.617153 0.465781 0.086791 -0.071055
C48   C     C_R   0.686416 0.436119 0.034818 -0.208517
H1    H     H_    0.793828 0.373256 0.917903 0.162507
H2    H     H_    0.480351 0.564919 0.780738 0.157342
H3    H     H_    0.940630 0.672907 0.639312 0.171454
H4    H     H_    0.136848 0.704599 0.661012 0.190003
H5    H     H_    0.163550 0.443541 0.463969 0.119977
H6    H     H_    0.680750 0.336336 0.376163 0.205876
H7    H     H_    0.022685 0.373492 0.398954 0.179064
H8    H     H_    0.777968 0.584844 0.572380 0.205451
H9    H     H_    0.742662 0.395357 0.756142 0.162254
H10   H     H_    0.753803 0.393371 0.066390 0.176609
H11   H     H_    0.455140 0.677794 0.859154 0.188135
H12   H     H_    0.765728 0.776390 0.539376 0.166214
H13   H     H_    0.636185 0.448604 0.157714 0.187076
H14   H     H_    0.389078 0.929238 0.854318 0.391012
H15   H     H_    0.068463 0.113718 0.560535 0.342228
H16   H     H_    0.778360 0.247427 0.303470 0.356493
H17   H     H_    0.007548 0.580154 0.098477 0.387700
H18   H     H_    0.165650 0.548185 0.301318 0.358129
H19   H     H_    0.343280 0.325749 0.071705 0.368508
H20   H     H_    0.759682 0.111647 0.619946 0.157875
H21   H     H_    0.815436 0.949141 0.586543 0.174361
H22   H     H_    0.436816 0.842831 0.464012 0.205099
H23   H     H_    0.241576 0.218744 0.490778 0.194708
H24   H     H_    0.318397 0.909768 0.510796 0.179246
H25   H     H_    0.621616 0.227496 0.611837 0.162049
H26   H     H_    0.311704 0.663643 0.629010 0.135118
N1    N     N_R   0.239390 0.551900 0.544730 -0.100663
N2    N     N_R   0.759950 0.448600 0.455730 -0.150595
O1    O     O_R   0.374950 0.371210 0.521360 -0.626887
O2    O     O_2   0.331460 0.851083 0.016609 -0.219192
O3    O     O_3   0.423623 0.864888 0.876556 -0.568480
O4    O     O_2   0.104754 0.991603 0.387943 -0.163338
O5    O     O_2   0.106932 0.919485 0.542562 -0.317652
O6    O     O_3   0.053382 0.106807 0.496306 -0.524530
O7    O     O_3   0.854044 0.273825 0.324178 -0.691949
O8    O     O_2   0.132602 0.752188 0.045088 -0.153243
O9    O     O_2   0.143939 0.596380 0.976344 -0.289419
O10   O     O_3   0.082083 0.574752 0.130269 -0.546157
O11   O     O_2   0.353934 0.731554 0.339606 -0.301092
O12   O     O_R   0.542050 0.338030 0.492790 -0.604657
O13   O     O_2   0.215328 0.779829 0.216660 -0.143060
O14   O     O_3   0.171531 0.616599 0.323013 -0.483430
O15   O     O_2   0.536706 0.319393 0.252959 -0.306438
O16   O     O_2   0.341977 0.312456 0.249195 -0.268538
O17   O     O_3   0.414191 0.304387 0.102111 -0.481331
O18   O     O_R   0.368720 0.526070 0.390200 -0.564188
O19   O     O_R   0.535820 0.492890 0.361630 -0.584866
O20   O     O_R   0.457950 0.661970 0.507210 -0.586955
O21   O     O_R   0.625050 0.628790 0.478640 -0.635894
O22   O     O_R   0.464180 0.507110 0.638370 -0.620009
O23   O     O_R   0.631280 0.473930 0.609800 -0.650280
O24   O     O_2   0.228739 0.780797 0.883806 -0.238807
S1    S     S_3+6 0.338158 0.794400 0.939276 0.076160
S2    S     S_3+6 0.130869 0.015893 0.482162 0.068376
S3    S     S_3+6 0.162504 0.643134 0.062246 0.115527
S4    S     S_3+6 0.266247 0.690015 0.271573 0.136435
S5    S     S_3+6 0.433911 0.353826 0.199507 0.056097
Zn1   Zn    Zn3+2 0.388420 0.522150 0.519080 1.004070
Zn2   Zn    Zn3+2 0.611580 0.477850 0.480920 0.962111

loop_
_geom_bond_atom_site_label_1
_geom_bond_atom_site_label_2
_ccdc_geom_bond_type
C27   C29   A    
C1    O1    A    
C41   C42   A    
O15   S5    D    
C19   C20   A    
C6    H9    S    
H17   O10   S    
H18   O14   S    
C45   C46   A    
C12   C23   A    
C26   C27   A    
O1    Zn1   S    
C9    C16   S    
C12   C43   A    
C3    C7    A    
C22   H12   S    
C30   C31   A    
C9    C22   A    
C28   C40   S    
C18   C19   A    
C43   S5    S    
O17   S5    S    
O18   Zn1   S    
C35   C36   A    
C26   N2    A    
C7    C40   A    
O22   Zn1   S    
O9    S3    D    
O5    S2    D    
C37   H5    S    
C10   H23   S    
C1    O12   A    
C37   N1    A    
C23   C46   A    
C13   C14   A    
O2    S1    D    
C14   C17   A    
C5    H1    S    
O10   S3    S    
C26   H6    S    
C39   C42   A    
C38   N1    A    
O6    S2    S    
C15   C20   A    
C46   S1    S    
C3    C44   A    
C16   O20   A    
H15   O6    S    
H14   O3    S    
C34   C44   A    
O12   Zn2   S    
C39   C43   A    
C29   H7    S    
C10   C24   A    
C8    C18   A    
C41   S3    S    
O4    S2    D    
H16   O7    S    
C29   C30   A    
C36   H8    S    
C25   C38   A    
C4    O19   A    
C8    C22   A    
C47   C48   A    
C4    C39   S    
C17   C18   A    
C8    H21   S    
C19   H20   S    
C32   C37   A    
O14   S4    S    
O19   Zn2   S    
C1    C24   S    
C4    O18   A    
C28   O23   A    
C15   C24   A    
N2    Zn2   S    
O13   S4    D    
C35   H3    S    
C6    C40   A    
C2    C5    A    
C12   C34   A    
C44   C45   A    
C38   H26   S    
C28   O22   A    
O20   Zn1   S    
C45   H11   S    
C14   C15   A    
C7    H2    S    
C42   S4    S    
C47   H13   S    
C48   H10   S    
C13   H24   S    
O23   Zn2   S    
C23   C41   A    
C21   H22   S    
C2    C48   A    
C32   C33   A    
C27   O7    S    
C2    C3    A    
C25   H4    S    
C30   C32   A    
C11   C13   A    
C9    C21   A    
C31   N2    A    
C5    C6    A    
O24   S1    D    
C33   C35   A    
C20   H25   S    
C11   S2    S    
C16   O21   A    
C17   C21   A    
C10   C11   A    
O11   S4    D    
O21   Zn2   S    
O16   S5    D    
N1    Zn1   S    
H19   O17   S    
O8    S3    D    
C31   C36   A    
O3    S1    S    
C34   C47   A    
C25   C33   A    
