data_mof_unit_5093.cif
_audit_creation_date              2012-12-10T20:46:23-0500
_audit_creation_method            fapswitch 2.2
_symmetry_space_group_name_H-M    P1
_symmetry_Int_Tables_number       1
_space_group_crystal_system       monoclinic
_cell_length_a                    10.691723
_cell_length_b                    8.932492
_cell_length_c                    8.12027
_cell_angle_alpha                 90.0
_cell_angle_beta                  85.248872
_cell_angle_gamma                 90.0
_cell_volume                      772.851302463

loop_
_atom_site_label
_atom_site_type_symbol
_atom_type_description
_atom_site_fract_x
_atom_site_fract_y
_atom_site_fract_z
_atom_type_partial_charge
C1    C     C_R   0.500001 0.218049 0.499972 0.948394
C2    C     C_1   0.500001 0.934794 0.499965 -0.212154
C3    C     C_3   0.835176 0.150510 0.465048 -0.342225
C4    C     C_3   0.164825 0.150511 0.534850 -0.342212
C5    C     C_3   0.882356 0.743969 0.369790 -0.281429
C6    C     C_3   0.117635 0.743972 0.630109 -0.281431
C7    C     C_R   0.500001 0.781960 0.499972 0.900143
C8    C     C_R   0.261649 0.501472 0.508033 0.847171
C9    C     C_R   0.738350 0.501472 0.491889 0.847162
C10   C     C_2   0.931394 0.372056 0.507741 0.395284
C11   C     C_2   0.068607 0.372058 0.492157 0.395284
C12   C     C_2   0.872148 0.497026 0.464164 0.286150
C13   C     C_2   0.127851 0.497028 0.535741 0.286139
C14   C     C_1   0.500001 0.065195 0.499965 -0.205235
H1    H     H_    0.919966 0.103484 0.395135 0.196527
H2    H     H_    0.139824 0.778439 0.499155 0.148973
H3    H     H_    0.202748 0.750263 0.699467 0.181730
H4    H     H_    0.048786 0.825402 0.687279 0.188677
H5    H     H_    0.772564 0.201737 0.377900 0.165436
H6    H     H_    0.783525 0.056066 0.527777 0.187952
H7    H     H_    0.080033 0.103481 0.604755 0.196527
H8    H     H_    0.227432 0.201737 0.622004 0.165432
H9    H     H_    0.216479 0.056070 0.472120 0.187953
H10   H     H_    0.860168 0.778438 0.500744 0.148969
H11   H     H_    0.797242 0.750255 0.300434 0.181734
H12   H     H_    0.951203 0.825400 0.312618 0.188676
N1    N     N_1   0.500000 0.500000 0.073640 -0.017210
N2    N     N_1   0.500000 0.500000 0.926360 -0.017289
O1    O     O_R   0.500000 0.285350 0.636850 -0.605706
O2    O     O_3   0.132859 0.253697 0.413725 -0.624266
O3    O     O_3   0.936222 0.599481 0.357189 -0.618405
O4    O     O_3   0.063773 0.599483 0.642712 -0.618402
O5    O     O_R   0.500000 0.714650 0.636850 -0.619556
O6    O     O_R   0.500000 0.285360 0.363100 -0.605689
O7    O     O_R   0.500000 0.714640 0.363100 -0.619542
O8    O     O_R   0.319080 0.500000 0.636840 -0.629150
O9    O     O_R   0.680920 0.500000 0.636840 -0.589953
O10   O     O_R   0.319090 0.500000 0.363090 -0.589938
O11   O     O_R   0.680910 0.500000 0.363090 -0.629136
O12   O     O_3   0.867146 0.253693 0.586174 -0.624268
Zn1   Zn    Zn3+2 0.500000 0.500000 0.682780 1.014444
Zn2   Zn    Zn3+2 0.500000 0.500000 0.317220 1.014438

loop_
_geom_bond_atom_site_label_1
_geom_bond_atom_site_label_2
_ccdc_geom_bond_type
C1    O6    A    
C6    O4    S    
C3    H5    S    
C8    C13   S    
C4    H8    S    
C13   O4    S    
C2    C7    S    
O6    Zn2   S    
O5    Zn1   S    
C1    O1    A    
C3    H6    S    
C4    H7    S    
C11   C13   D    
N1    Zn2   S    
O8    Zn1   S    
C5    H10   S    
C10   C12   D    
C6    H4    S    
C9    O9    A    
C3    O12   S    
O10   Zn2   S    
O11   Zn2   S    
C8    O10   A    
C12   O3    S    
O9    Zn1   S    
C2    C14   T    
C9    C12   S    
C5    H11   S    
C10   C11   S    
C7    O5    A    
C6    H2    S    
C5    H12   S    
N2    Zn1   S    
C9    O11   A    
C3    H1    S    
C10   O12   S    
C8    O8    A    
N1    N2    T    
O7    Zn2   S    
C6    H3    S    
C1    C14   S    
O1    Zn1   S    
C4    H9    S    
C7    O7    A    
C4    O2    S    
C11   O2    S    
C5    O3    S    
