data_mof_unit_45072.cif
_audit_creation_date              2012-12-10T17:31:54-0500
_audit_creation_method            fapswitch 2.2
_symmetry_space_group_name_H-M    P1
_symmetry_Int_Tables_number       1
_space_group_crystal_system       triclinic
_cell_length_a                    12.069862
_cell_length_b                    11.545374
_cell_length_c                    12.728386
_cell_angle_alpha                 91.136428
_cell_angle_beta                  93.85414
_cell_angle_gamma                 85.692677
_cell_volume                      1764.50947931

loop_
_atom_site_label
_atom_site_type_symbol
_atom_type_description
_atom_site_fract_x
_atom_site_fract_y
_atom_site_fract_z
_atom_type_partial_charge
C1    C     C_R   0.477542 0.500506 0.299729 0.868676
C2    C     C_R   0.522782 0.492897 0.700445 0.869072
C3    C     C_R   0.044955 0.594847 0.608914 -0.262968
C4    C     C_R   0.954926 0.404996 0.390976 -0.238957
C5    C     C_R   0.160654 0.589627 0.597534 0.132224
C6    C     C_R   0.839035 0.411767 0.401508 0.128424
C7    C     C_R   0.140983 0.459511 0.451610 -0.052916
C8    C     C_R   0.859231 0.539181 0.549231 -0.045821
C9    C     C_R   0.024233 0.465426 0.460385 0.046409
C10   C     C_R   0.975931 0.533311 0.540294 0.042898
C11   C     C_R   0.500302 0.281995 0.499673 0.879351
C12   C     C_R   0.499628 0.718002 0.499928 0.893049
C13   C     C_1   0.500773 0.161470 0.499334 -0.186727
C14   C     C_1   0.498973 0.838538 0.499498 -0.186980
C15   C     C_1   0.500269 0.059316 0.499156 0.008580
C16   C     C_1   0.499336 0.940696 0.499209 0.006857
C17   C     C_R   0.541602 0.478736 0.812478 -0.049371
C18   C     C_R   0.464093 0.485041 0.188317 -0.115066
C19   C     C_R   0.435946 0.343193 0.049201 0.004578
C20   C     C_R   0.634222 0.550666 0.970371 -0.010222
C21   C     C_R   0.422094 0.381801 0.151802 -0.223746
C22   C     C_R   0.624724 0.541519 0.862299 -0.339676
C23   C     C_R   0.523357 0.552175 0.125250 0.087870
C24   C     C_R   0.481328 0.403001 0.869354 0.021667
C25   C     C_R   0.551910 0.504887 0.027229 0.131865
C26   C     C_R   0.490980 0.412834 0.981214 0.002022
H1    H     H_    0.680365 0.586607 0.816535 0.156572
H2    H     H_    0.386228 0.326574 0.206590 0.180703
H3    H     H_    0.821762 0.592098 0.610486 0.130434
H4    H     H_    0.178572 0.406091 0.390752 0.144457
H5    H     H_    0.008272 0.648617 0.670199 0.188212
H6    H     H_    0.991234 0.351604 0.329234 0.190795
N1    N     N_R   0.792200 0.479100 0.480660 -0.141988
N2    N     N_R   0.207800 0.520900 0.519340 -0.143645
O1    O     O_R   0.578300 0.494420 0.341180 -0.624027
O2    O     O_R   0.421700 0.505580 0.658820 -0.649075
O3    O     O_R   0.390690 0.507830 0.353590 -0.607839
O4    O     O_R   0.609310 0.492170 0.646410 -0.614290
O5    O     O_R   0.593810 0.327740 0.493800 -0.643772
O6    O     O_R   0.406190 0.672260 0.506200 -0.639245
O7    O     O_R   0.406190 0.341150 0.506220 -0.616934
O8    O     O_R   0.593810 0.658850 0.493780 -0.602654
Zn1   Zn    Zn3+2 0.625270 0.491050 0.491710 0.943293
Zn2   Zn    Zn3+2 0.374730 0.508950 0.508290 0.926902
C27   C     C_3   0.400541 0.324716 0.809533 -0.424214
C28   C     C_3   0.278833 0.370812 0.818901 -0.279159
C29   C     C_3   0.199794 0.304638 0.745451 -0.817222
H7    H     H_    0.219662 0.314040 0.662223 0.265826
H8    H     H_    0.112759 0.340297 0.753926 0.253611
H9    H     H_    0.206586 0.211070 0.765509 0.270241
H10   H     H_    0.254980 0.362838 0.900985 0.245393
H11   H     H_    0.268688 0.464156 0.798597 0.249057
H12   H     H_    0.417316 0.315951 0.725272 0.215474
H13   H     H_    0.413759 0.233361 0.833045 0.180924
C30   C     C_3   0.540096 0.678684 0.157901 -0.405234
C31   C     C_3   0.479460 0.764211 0.078617 -0.383260
C32   C     C_3   0.489639 0.889878 0.115292 -0.806782
H14   H     H_    0.451728 0.905725 0.191915 0.269355
H15   H     H_    0.578558 0.909373 0.123870 0.255768
H16   H     H_    0.445428 0.949237 0.056185 0.272839
H17   H     H_    0.514696 0.752903 0.000444 0.224889
H18   H     H_    0.389783 0.747424 0.069319 0.251045
H19   H     H_    0.505643 0.699874 0.235310 0.192710
H20   H     H_    0.628984 0.695321 0.169555 0.243131
C33   C     C_2   0.413092 0.221061 0.025733 0.377421
H21   H     H_    0.472337 0.164756 0.984520 0.057086
O9    O     O_2   0.330276 0.180924 0.056079 -0.562720
C34   C     C_2   0.735287 0.599443 0.020048 0.402008
H22   H     H_    0.777429 0.662714 0.978562 0.061940
O10   O     O_2   0.776330 0.563996 0.104803 -0.528863
C35   C     C_2   0.771219 0.343222 0.325423 0.457586
H23   H     H_    0.692073 0.315120 0.343707 0.107272
O11   O     O_2   0.804761 0.314981 0.239480 -0.553353
C36   C     C_2   0.227677 0.661798 0.671403 0.379639
H24   H     H_    0.309553 0.683633 0.655581 0.137450
O12   O     O_2   0.190468 0.700219 0.753039 -0.598845

loop_
_geom_bond_atom_site_label_1
_geom_bond_atom_site_label_2
_ccdc_geom_bond_type
C12   O6    A    
C3    H5    S    
C30   C31   S    
C23   C30   S    
C18   C21   A    
O1    Zn1   S    
C9    C10   A    
C2    O4    A    
C17   C22   A    
C6    N1    A    
C1    O3    A    
C8    N1    A    
C25   C26   A    
C30   H20   S    
O3    Zn2   S    
C13   C15   T    
C1    C18   S    
C27   H12   S    
C35   H23   S    
C29   H8    S    
C3    C10   A    
C27   C28   S    
C5    N2    A    
C2    C17   S    
C11   O5    A    
C11   C13   S    
C24   C26   A    
C32   H14   S    
C4    H6    S    
C30   H19   S    
C36   O12   D    
C8    H3    S    
C4    C6    A    
C19   C21   A    
C21   H2    S    
C20   C22   A    
C27   H13   S    
C19   C33   S    
C29   H9    S    
C14   C16   T    
C22   H1    S    
C23   C25   A    
C6    C35   S    
O7    Zn2   S    
C31   H18   S    
O2    Zn2   S    
C17   C24   A    
C32   H15   S    
C20   C25   A    
C24   C27   S    
C12   O8    A    
C15   C16   S    
N1    Zn1   S    
C29   H7    S    
C28   H11   S    
O6    Zn2   S    
C7    N2    A    
N2    Zn2   S    
C31   C32   S    
C1    O1    A    
C34   O10   D    
C33   H21   S    
C36   H24   S    
C11   O7    A    
C2    O2    A    
C5    C36   S    
C35   O11   D    
C19   C26   A    
C7    C9    A    
C28   C29   S    
C32   H16   S    
O5    Zn1   S    
C3    C5    A    
C4    C9    A    
C31   H17   S    
C28   H10   S    
C20   C34   S    
C8    C10   A    
O4    Zn1   S    
C18   C23   A    
O8    Zn1   S    
C12   C14   S    
C34   H22   S    
C33   O9    D    
C7    H4    S    
