data_mof_unit_39082.cif
_audit_creation_date              2012-10-26T20:35:08-0400
_audit_creation_method            fapswitch 2.2
_symmetry_space_group_name_H-M    P1
_symmetry_Int_Tables_number       1
_space_group_crystal_system       triclinic
_cell_length_a                    8.934677
_cell_length_b                    17.73818
_cell_length_c                    16.604968
_cell_angle_alpha                 90.715385
_cell_angle_beta                  98.015894
_cell_angle_gamma                 95.597415
_cell_volume                      2592.58988756

loop_
_atom_site_label
_atom_site_type_symbol
_atom_type_description
_atom_site_fract_x
_atom_site_fract_y
_atom_site_fract_z
_atom_type_partial_charge
C1    C     C_R   0.518697 0.356792 0.500901 0.570940
C2    C     C_R   0.588087 0.555759 0.263031 0.149611
C3    C     C_R   0.420370 0.440278 0.823534 -0.020885
C4    C     C_R   0.579599 0.559731 0.176464 -0.020872
C5    C     C_R   0.506211 0.497827 0.874200 0.023391
C6    C     C_R   0.493794 0.502169 0.125800 0.023397
C7    C     C_1   0.502444 0.499620 0.963232 0.039024
C8    C     C_1   0.497563 0.500375 0.036768 0.039032
C9    C     C_R   0.204039 0.498942 0.479422 0.571073
C10   C     C_R   0.795961 0.501058 0.520578 0.571072
C11   C     C_2   0.038664 0.492914 0.468140 -0.029373
C12   C     C_R   0.481303 0.643208 0.499099 0.570941
C13   C     C_2   0.961336 0.507089 0.531859 -0.029373
C14   C     C_R   0.465290 0.846060 0.571379 0.105177
C15   C     C_R   0.534712 0.153940 0.428620 0.105177
C16   C     C_R   0.442924 0.766415 0.570753 -0.009643
C17   C     C_R   0.557078 0.233586 0.429246 -0.009645
C18   C     C_R   0.451458 0.724763 0.497977 0.002977
C19   C     C_R   0.548540 0.275237 0.502023 0.002975
C20   C     C_R   0.433803 0.763181 0.423443 0.072104
C21   C     C_R   0.566190 0.236818 0.576556 0.072105
C22   C     C_R   0.456689 0.843011 0.423801 -0.009769
C23   C     C_1   0.493201 0.965884 0.499634 0.034135
C24   C     C_R   0.543303 0.156988 0.576197 -0.009771
C25   C     C_R   0.475666 0.884093 0.498437 0.029693
C26   C     C_R   0.524331 0.115907 0.501561 0.029692
C27   C     C_3   0.960642 0.466608 0.383635 -0.349792
C28   C     C_3   0.039359 0.533399 0.616362 -0.349795
C29   C     C_3   0.389727 0.729295 0.644778 -0.330187
C30   C     C_3   0.610279 0.270706 0.355223 -0.330184
C31   C     C_3   0.462862 0.885082 0.345559 -0.342881
C32   C     C_3   0.537124 0.114916 0.654439 -0.342878
C33   C     C_3   0.304218 0.383883 0.687356 -0.318323
C34   C     C_1   0.506796 0.034115 0.500363 0.034135
C35   C     C_3   0.695769 0.616122 0.312641 -0.318319
C36   C     C_3   0.337518 0.373756 0.861175 -0.367890
C37   C     C_3   0.662384 0.626279 0.138826 -0.367883
C38   C     C_R   0.594251 0.554000 0.837733 0.076729
C39   C     C_R   0.405791 0.445982 0.162270 0.076721
C40   C     C_R   0.592871 0.553365 0.751756 0.234411
C41   C     C_R   0.407149 0.446627 0.248246 0.234406
C42   C     C_R   0.411898 0.444246 0.736967 0.149617
Cu1   Cu    Cu3+1 0.499990 0.499980 0.580420 0.980050
Cu2   Cu    Cu3+1 0.500010 0.500020 0.419580 0.980049
H1    H     H_    0.039731 0.453298 0.341664 0.181301
H2    H     H_    0.700781 0.239525 0.334875 0.163192
H3    H     H_    0.515234 0.269698 0.304602 0.199710
H4    H     H_    0.665281 0.328901 0.367642 0.147212
H5    H     H_    0.466135 0.847647 0.292218 0.175535
H6    H     H_    0.363070 0.918039 0.333262 0.180893
H7    H     H_    0.568935 0.924093 0.351347 0.166063
H8    H     H_    0.533845 0.152351 0.707779 0.175542
H9    H     H_    0.431051 0.075905 0.648648 0.166063
H10   H     H_    0.636917 0.081960 0.666738 0.180895
H11   H     H_    0.349388 0.327979 0.694187 0.148253
H12   H     H_    0.883824 0.414219 0.387452 0.142011
H13   H     H_    0.191712 0.379598 0.708957 0.098384
H14   H     H_    0.279403 0.393353 0.622505 0.192825
H15   H     H_    0.808274 0.620406 0.291039 0.098371
H16   H     H_    0.650602 0.672027 0.305810 0.148253
H17   H     H_    0.720590 0.606649 0.377491 0.192826
H18   H     H_    0.213858 0.379663 0.853805 0.161634
H19   H     H_    0.357496 0.319445 0.832657 0.152649
H20   H     H_    0.379140 0.368419 0.926404 0.180316
H21   H     H_    0.786083 0.620443 0.146265 0.161607
H22   H     H_    0.620866 0.631576 0.073573 0.180307
H23   H     H_    0.899587 0.512071 0.353548 0.150955
H24   H     H_    0.642218 0.680577 0.167307 0.152685
H25   H     H_    0.960270 0.546711 0.658332 0.181301
H26   H     H_    0.100414 0.487937 0.646453 0.150955
H27   H     H_    0.116177 0.585787 0.612542 0.142010
H28   H     H_    0.299224 0.760476 0.665126 0.163191
H29   H     H_    0.334727 0.671100 0.632361 0.147214
H30   H     H_    0.484773 0.730305 0.695399 0.199704
I1    I     I_    0.485305 0.908944 0.684096 -0.362490
I2    I     I_    0.514703 0.091057 0.315903 -0.362477
I3    I     I_    0.324986 0.703808 0.313623 -0.373700
I4    I     I_    0.675001 0.296190 0.686379 -0.373669
I5    I     I_    0.734941 0.638178 0.915243 -0.310109
I6    I     I_    0.265198 0.361761 0.084767 -0.310098
I7    I     I_    0.744933 0.637500 0.705700 -0.289703
I8    I     I_    0.255067 0.362500 0.294301 -0.289692
N1    N     N_R   0.499960 0.499970 0.701210 -0.227593
N2    N     N_R   0.500040 0.500030 0.298790 -0.227593
O1    O     O_R   0.499990 0.391240 0.567930 -0.488590
O2    O     O_R   0.500010 0.608760 0.432070 -0.488591
O3    O     O_R   0.500000 0.391270 0.432120 -0.489320
O4    O     O_R   0.500000 0.608730 0.567880 -0.489320
O5    O     O_R   0.274830 0.499990 0.552240 -0.546184
O6    O     O_R   0.725170 0.500010 0.447760 -0.546183
O7    O     O_R   0.274840 0.500020 0.416420 -0.463857
O8    O     O_R   0.725160 0.499980 0.583580 -0.463859

loop_
_geom_bond_atom_site_label_1
_geom_bond_atom_site_label_2
_ccdc_geom_bond_type
C2    C35   S    
C1    O3    A    
C3    C42   A    
C33   H11   S    
C33   H14   S    
Cu1   N1    S    
C2    N2    A    
C28   H25   S    
C9    O7    A    
C7    C8    T    
C39   C41   A    
Cu1   O5    S    
C20   I3    S    
C33   C42   S    
C30   H4    S    
C19   C21   A    
C24   C26   A    
Cu2   O2    S    
C29   H29   S    
C38   I5    S    
C37   H24   S    
C35   H15   S    
C32   H8    S    
C26   C34   S    
C22   C25   A    
C37   H21   S    
C21   I4    S    
C13   C28   S    
C36   H19   S    
C29   H28   S    
C27   H1    S    
C15   I2    S    
C10   O8    A    
C5    C38   A    
C17   C30   S    
C40   N1    A    
C31   H5    S    
C36   H18   S    
C32   H10   S    
C1    O1    A    
C1    C19   S    
C22   C31   S    
C12   O4    A    
Cu1   O1    S    
C30   H3    S    
C4    C6    A    
C9    O5    A    
C5    C7    S    
C27   H12   S    
C15   C26   A    
C6    C8    S    
C29   H30   S    
Cu2   N2    S    
C16   C29   S    
C41   N2    A    
C35   H16   S    
C2    C4    A    
Cu1   Cu2   S    
C24   C32   S    
C11   C27   S    
C23   C34   T    
C37   H22   S    
C35   H17   S    
C9    C11   S    
Cu2   O7    S    
C20   C22   A    
C14   C16   A    
C28   H27   S    
Cu1   O4    S    
C31   H6    S    
Cu2   O3    S    
C32   H9    S    
Cu2   O6    S    
C15   C17   A    
C33   H13   S    
C40   I7    S    
C30   H2    S    
C28   H26   S    
C42   N1    A    
C31   H7    S    
C3    C5    A    
C10   C13   S    
Cu1   O8    S    
C12   O2    A    
C14   I1    S    
C39   I6    S    
C38   C40   A    
C11   C13   D    
C3    C36   S    
C41   I8    S    
C17   C19   A    
C18   C20   A    
C23   C25   S    
C14   C25   A    
C27   H23   S    
C4    C37   S    
C10   O6    A    
C16   C18   A    
C21   C24   A    
C12   C18   S    
C6    C39   A    
C36   H20   S    
