data_mof_unit_48610.cif
_audit_creation_date              2012-10-26T19:03:00-0400
_audit_creation_method            fapswitch 2.2
_symmetry_space_group_name_H-M    P1
_symmetry_Int_Tables_number       1
_space_group_crystal_system       triclinic
_cell_length_a                    15.034724
_cell_length_b                    10.998274
_cell_length_c                    9.922038
_cell_angle_alpha                 111.468689
_cell_angle_beta                  98.516198
_cell_angle_gamma                 92.96604
_cell_volume                      1499.96289227

loop_
_atom_site_label
_atom_site_type_symbol
_atom_type_description
_atom_site_fract_x
_atom_site_fract_y
_atom_site_fract_z
_atom_type_partial_charge
C1    C     C_R   0.489366 0.253921 0.439589 0.547277
C2    C     C_2   0.487090 0.495264 0.920239 0.346594
C3    C     C_R   0.328324 0.500864 0.500022 0.533212
C4    C     C_R   0.671517 0.503654 0.500884 0.542245
C5    C     C_R   0.833145 0.566130 0.634402 0.007504
C6    C     C_R   0.166376 0.469478 0.365573 0.000686
C7    C     C_R   0.768908 0.503340 0.502290 -0.000648
C8    C     C_R   0.229976 0.495011 0.497379 -0.011123
C9    C     C_R   0.797826 0.432560 0.370845 -0.153413
C10   C     C_R   0.198651 0.511139 0.628659 -0.161672
C11   C     C_R   0.889456 0.424173 0.368626 -0.016903
C12   C     C_R   0.508163 0.747297 0.561271 0.544827
C13   C     C_R   0.106389 0.507948 0.631827 -0.014992
C14   C     C_R   0.951790 0.472960 0.501947 0.025328
C15   C     C_R   0.044386 0.468893 0.499038 0.029968
C16   C     C_R   0.921976 0.529214 0.637841 0.037331
C17   C     C_R   0.074969 0.430143 0.363234 0.027336
C18   C     C_R   0.919170 0.360784 0.235989 -0.117245
C19   C     C_R   0.074999 0.537370 0.764839 -0.131407
C20   C     C_3   0.813590 0.687558 0.758876 -0.263053
C21   C     C_3   0.774656 0.790794 0.705161 -0.449578
C22   C     C_3   0.189393 0.511614 0.242488 -0.256686
C23   C     C_R   0.011874 0.358421 0.231923 0.013176
C24   C     C_3   0.222375 0.658676 0.298952 -0.422550
C25   C     C_3   0.040604 0.267994 0.092057 -0.285607
C26   C     C_3   0.001163 0.124910 0.047636 -0.442042
C27   C     C_3   0.950607 0.547071 0.909736 -0.273696
C28   C     C_3   0.879407 0.431391 0.879363 -0.436246
C29   C     C_3   0.572875 0.988838 0.745506 -0.284291
C30   C     C_3   0.578162 0.947861 0.877787 -0.424114
C31   C     C_3   0.387289 0.040751 0.284187 -0.276665
C32   C     C_3   0.417844 0.965306 0.139714 -0.436784
C33   C     C_3   0.401828 0.293937 0.793355 0.004149
C34   C     C_R   0.982446 0.544381 0.769733 0.013063
C35   C     C_3   0.323291 0.226980 0.666099 -0.353487
C36   C     C_3   0.597385 0.705581 0.201796 0.004637
C37   C     C_3   0.674798 0.775131 0.329362 -0.355141
C38   C     C_2   0.467799 0.114054 0.404527 -0.000516
C39   C     C_2   0.519855 0.890423 0.597759 -0.013080
C40   C     C_2   0.512611 0.063384 0.494869 -0.158286
C41   C     C_2   0.488803 0.930527 0.488475 -0.167172
C42   C     C_2   0.513056 0.503489 0.078720 0.347102
Cu1   Cu    Cu3+1 0.515770 0.521810 0.644910 0.937210
Cu2   Cu    Cu3+1 0.484230 0.478190 0.355090 0.942280
H1    H     H_    0.749126 0.386345 0.269355 0.142978
H2    H     H_    0.701738 0.762750 0.659131 0.163535
H3    H     H_    0.781672 0.886728 0.799262 0.122175
H4    H     H_    0.768542 0.660010 0.824722 0.157141
H5    H     H_    0.877623 0.740291 0.832969 0.137749
H6    H     H_    0.286179 0.685508 0.380449 0.171907
H7    H     H_    0.234846 0.685398 0.205152 0.122918
H8    H     H_    0.169894 0.717320 0.350933 0.140264
H9    H     H_    0.238426 0.451180 0.182820 0.159485
H10   H     H_    0.128646 0.497644 0.157936 0.124073
H11   H     H_    0.018882 0.091881 0.140515 0.155118
H12   H     H_    0.246090 0.533221 0.730351 0.165310
H13   H     H_    0.926440 0.112803 0.014141 0.140615
H14   H     H_    0.029696 0.061116 0.952511 0.134769
H15   H     H_    0.018687 0.301509 0.000961 0.137049
H16   H     H_    0.115136 0.268093 0.106383 0.141629
H17   H     H_    0.815733 0.437814 0.811373 0.163124
H18   H     H_    0.905336 0.336764 0.822014 0.146982
H19   H     H_    0.862916 0.433002 0.985097 0.136558
H20   H     H_    0.008437 0.540157 0.989450 0.130754
H21   H     H_    0.924816 0.640364 0.969460 0.127551
H22   H     H_    0.509761 0.911536 0.886070 0.170155
H23   H     H_    0.869989 0.311554 0.135937 0.104426
H24   H     H_    0.624756 0.871653 0.870456 0.166054
H25   H     H_    0.605245 0.034329 0.980305 0.122472
H26   H     H_    0.642695 0.013472 0.731674 0.129532
H27   H     H_    0.539741 0.080589 0.776794 0.132964
H28   H     H_    0.452388 0.035444 0.101995 0.161847
H29   H     H_    0.464950 0.894739 0.153324 0.134680
H30   H     H_    0.358114 0.910074 0.054521 0.136125
H31   H     H_    0.344986 0.973972 0.316561 0.126836
H32   H     H_    0.341864 0.111987 0.265709 0.141927
H33   H     H_    0.391197 0.259255 0.881890 0.090250
H34   H     H_    0.122812 0.554438 0.864949 0.099615
H35   H     H_    0.465812 0.259230 0.758660 0.146305
H36   H     H_    0.329338 0.258309 0.573288 0.168571
H37   H     H_    0.323148 0.118544 0.627081 0.092618
H38   H     H_    0.258152 0.253361 0.702828 0.138660
H39   H     H_    0.533025 0.739500 0.234603 0.142342
H40   H     H_    0.608509 0.738795 0.112455 0.087608
H41   H     H_    0.740492 0.747680 0.295604 0.142049
H42   H     H_    0.674816 0.883365 0.365217 0.093390
H43   H     H_    0.666600 0.746057 0.422504 0.167902
H44   H     H_    0.446471 0.861317 0.388895 0.136846
H45   H     H_    0.569077 0.124452 0.578096 0.124860
H46   H     H_    0.606162 0.580339 0.913240 0.187916
H47   H     H_    0.394358 0.416477 0.084884 0.185563
H48   H     H_    0.811433 0.803956 0.621340 0.145444
N1    N     N_2   0.460520 0.445420 0.137370 -0.339622
N2    N     N_2   0.539480 0.554580 0.862630 -0.342879
O1    O     O_R   0.508410 0.332340 0.577400 -0.500059
O2    O     O_3   0.596935 0.567629 0.159976 -0.543517
O3    O     O_R   0.491590 0.667660 0.422600 -0.504489
O4    O     O_R   0.481780 0.295500 0.332650 -0.493543
O5    O     O_R   0.518220 0.704500 0.667350 -0.497370
O6    O     O_R   0.383570 0.518390 0.622380 -0.443038
O7    O     O_R   0.616430 0.481610 0.377620 -0.440631
O8    O     O_R   0.356940 0.481550 0.377630 -0.519881
O9    O     O_R   0.643060 0.518450 0.622370 -0.518536
O10   O     O_3   0.402923 0.432321 0.839039 -0.552602

loop_
_geom_bond_atom_site_label_1
_geom_bond_atom_site_label_2
_ccdc_geom_bond_type
C24   H8    S    
C11   C18   A    
C9    H1    S    
C42   N1    D    
C26   H11   S    
C35   H37   S    
C32   H28   S    
C5    C20   S    
C20   H5    S    
C42   O2    S    
C37   H41   S    
C36   C37   S    
Cu1   O5    S    
C29   H26   S    
C32   H30   S    
C11   C14   A    
C36   H39   S    
C33   O10   S    
C4    O9    A    
C35   H36   S    
Cu1   N2    S    
C15   C17   A    
C41   H44   S    
C12   O5    A    
Cu2   N1    S    
C16   C34   A    
Cu2   O4    S    
C3    O6    A    
C5    C16   A    
Cu1   O1    S    
C25   H16   S    
C40   H45   S    
C10   H12   S    
C28   H17   S    
C24   H7    S    
C22   H10   S    
C4    C7    S    
C30   H22   S    
C35   H38   S    
H46   N2    S    
C22   H9    S    
C27   C34   S    
C24   H6    S    
C13   C19   A    
C18   C23   A    
C37   H42   S    
C2    N2    D    
Cu1   O6    S    
C39   C41   D    
C3    C8    S    
C32   H29   S    
C5    C7    A    
Cu2   O8    S    
C33   H35   S    
C6    C8    A    
C25   C26   S    
C10   C13   A    
C19   H34   S    
Cu1   Cu2   S    
C29   C30   S    
C27   H21   S    
H47   N1    S    
C26   H14   S    
Cu2   O3    S    
C36   O2    S    
C31   H31   S    
C31   C32   S    
C2    O10   S    
C1    O1    A    
C4    O7    A    
C29   C39   S    
C17   C23   A    
C9    C11   A    
C12   O3    A    
C20   H4    S    
C1    C38   S    
C3    O8    A    
C40   C41   S    
C13   C15   A    
C14   C16   A    
C30   H25   S    
C21   H2    S    
C7    C9    A    
C6    C17   A    
C6    C22   S    
C37   H43   S    
C36   H40   S    
C19   C34   A    
C1    O4    A    
Cu2   O7    S    
C31   C38   S    
C12   C39   S    
C18   H23   S    
C38   C40   D    
C33   H33   S    
C31   H32   S    
C2    C42   S    
C33   C35   S    
C22   C24   S    
C23   C25   S    
C26   H13   S    
Cu1   O9    S    
C27   H20   S    
C28   H19   S    
C20   C21   S    
C8    C10   A    
C27   C28   S    
C14   C15   A    
C25   H15   S    
C21   H3    S    
C30   H24   S    
C29   H27   S    
C21   H48   S    
C28   H18   S    
