data_mof_unit_13138.cif
_audit_creation_date              2012-12-10T19:44:57-0500
_audit_creation_method            fapswitch 2.2
_symmetry_space_group_name_H-M    P1
_symmetry_Int_Tables_number       1
_space_group_crystal_system       triclinic
_cell_length_a                    15.011484
_cell_length_b                    10.826971
_cell_length_c                    13.929615
_cell_angle_alpha                 89.955775
_cell_angle_beta                  89.972599
_cell_angle_gamma                 85.679347
_cell_volume                      2257.53006327

loop_
_atom_site_label
_atom_site_type_symbol
_atom_type_description
_atom_site_fract_x
_atom_site_fract_y
_atom_site_fract_z
_atom_type_partial_charge
C1    C     C_R   0.497989 0.262828 0.499784 0.764938
C2    C     C_R   0.502008 0.737173 0.500216 0.764939
C3    C     C_R   0.062837 0.285928 0.549372 -0.211630
C4    C     C_R   0.937163 0.714072 0.450629 -0.211634
C5    C     C_R   0.307401 0.269249 0.263575 -0.104514
C6    C     C_R   0.692628 0.730818 0.736422 -0.104569
C7    C     C_R   0.343019 0.203161 0.342721 -0.094757
C8    C     C_R   0.656992 0.796878 0.657275 -0.094797
C9    C     C_R   0.423358 0.128730 0.333932 0.128460
C10   C     C_R   0.576635 0.871274 0.666065 0.128501
C11   C     C_R   0.466259 0.118621 0.244356 -0.145743
C12   C     C_R   0.533725 0.881364 0.755641 -0.145713
C13   C     C_R   0.430297 0.184577 0.165262 -0.138176
C14   C     C_R   0.569701 0.815427 0.834737 -0.138181
C15   C     C_R   0.351164 0.260257 0.174971 -0.121841
C16   C     C_R   0.648858 0.739793 0.825028 -0.121810
C17   C     C_R   0.469408 0.936554 0.420739 -0.247935
C18   C     C_R   0.530578 0.063448 0.579262 -0.247934
C19   C     C_R   0.503921 0.871127 0.500810 -0.073884
C20   C     C_R   0.496068 0.128875 0.499190 -0.073884
C21   C     C_R   0.535700 0.935057 0.580897 0.000843
C22   C     C_R   0.464287 0.064945 0.419102 0.000856
C23   C     C_R   0.329237 0.502187 0.500157 0.807341
C24   C     C_R   0.670763 0.497812 0.499843 0.807360
C25   C     C_R   0.566942 0.432733 0.794865 0.288904
C26   C     C_R   0.433061 0.567271 0.205135 0.288907
C27   C     C_R   0.433089 0.567500 0.794692 0.291868
C28   C     C_R   0.566912 0.432502 0.205308 0.291863
C29   C     C_R   0.429373 0.561441 0.897119 -0.007348
C30   C     C_R   0.570628 0.438563 0.102881 -0.007349
C31   C     C_R   0.500010 0.500063 0.948467 0.026964
C32   C     C_R   0.499991 0.499939 0.051534 0.026969
C33   C     C_R   0.570683 0.438834 0.897219 -0.006044
C34   C     C_R   0.429320 0.561172 0.102781 -0.006059
C35   C     C_R   0.356861 0.617039 0.949980 -0.206671
C36   C     C_R   0.643146 0.382976 0.050020 -0.206674
C37   C     C_R   0.356770 0.616736 0.049911 -0.208773
C38   C     C_R   0.643239 0.383282 0.950089 -0.208742
C39   C     C_R   0.806542 0.600976 0.474197 -0.311245
C40   C     C_R   0.193458 0.399023 0.525803 -0.311247
C41   C     C_R   0.767418 0.492773 0.499074 -0.051258
C42   C     C_R   0.232582 0.507226 0.500926 -0.051258
C43   C     C_R   0.820072 0.382792 0.521529 0.120777
C44   C     C_R   0.179928 0.617207 0.478471 0.120780
C45   C     C_R   0.914174 0.386128 0.523570 0.104042
C46   C     C_R   0.085825 0.613872 0.476430 0.104041
C47   C     C_R   0.953181 0.497653 0.499682 0.025080
C48   C     C_R   0.046819 0.502346 0.500319 0.025080
C49   C     C_R   0.898786 0.604522 0.474599 0.114004
C50   C     C_R   0.101214 0.395477 0.525401 0.114007
C51   C     C_R   0.970564 0.281040 0.548511 -0.214014
C52   C     C_R   0.029436 0.718960 0.451489 -0.214013
Cu1   Cu    Cu3+1 0.500010 0.499980 0.597420 0.935502
Cu2   Cu    Cu3+1 0.499990 0.500020 0.402580 0.935496
H1    H     H_    0.764516 0.683151 0.454834 0.136122
H2    H     H_    0.235484 0.316848 0.545166 0.136121
H3    H     H_    0.298379 0.661028 0.915260 0.150327
H4    H     H_    0.701631 0.338996 0.084741 0.150324
H5    H     H_    0.298171 0.660400 0.084627 0.151249
H6    H     H_    0.701851 0.339639 0.915372 0.151237
H7    H     H_    0.944356 0.194150 0.568019 0.157157
H8    H     H_    0.055644 0.805849 0.431981 0.157157
H9    H     H_    0.104389 0.203460 0.568770 0.141322
H10   H     H_    0.895611 0.796539 0.431231 0.141321
H11   H     H_    0.323906 0.312134 0.113907 0.131316
H12   H     H_    0.676132 0.687943 0.886093 0.131311
H13   H     H_    0.246199 0.328000 0.271124 0.127597
H14   H     H_    0.753851 0.672109 0.728875 0.127596
H15   H     H_    0.308999 0.211212 0.411127 0.096388
H16   H     H_    0.691017 0.788844 0.588867 0.096395
H17   H     H_    0.528386 0.061893 0.236397 0.122850
H18   H     H_    0.471583 0.938065 0.763600 0.122836
H19   H     H_    0.464288 0.178104 0.096696 0.135233
H20   H     H_    0.535703 0.821886 0.903302 0.135228
N1    N     N_R   0.499960 0.499900 0.743810 -0.177495
N2    N     N_R   0.500040 0.500100 0.256190 -0.177494
O1    O     O_R   0.500000 0.319630 0.582270 -0.595012
O2    O     O_R   0.500000 0.680370 0.417730 -0.595010
O3    O     O_R   0.499990 0.319660 0.417730 -0.577418
O4    O     O_R   0.500010 0.680340 0.582270 -0.577411
O5    O     O_R   0.370260 0.499960 0.582280 -0.581362
O6    O     O_R   0.629740 0.500040 0.417720 -0.581358
O7    O     O_R   0.370250 0.499990 0.417740 -0.575141
O8    O     O_R   0.629750 0.500010 0.582260 -0.575129
H21   H     H_    0.443647 0.887752 0.360004 0.157499
H22   H     H_    0.556339 0.112248 0.639997 0.157504
C53   C     C_3   0.637342 0.347651 0.745719 -0.799572
H23   H     H_    0.622877 0.324668 0.671920 0.275170
H24   H     H_    0.702820 0.388985 0.747996 0.213837
H25   H     H_    0.643007 0.256016 0.782033 0.183843
C54   C     C_3   0.362664 0.652361 0.254279 -0.799574
H26   H     H_    0.377121 0.675327 0.328086 0.275178
H27   H     H_    0.357019 0.744003 0.217972 0.183844
H28   H     H_    0.297179 0.611048 0.251984 0.213813
C55   C     C_3   0.362865 0.653196 0.745384 -0.768573
H29   H     H_    0.358000 0.744857 0.781526 0.180562
H30   H     H_    0.376295 0.675916 0.671046 0.273315
H31   H     H_    0.297085 0.612827 0.748638 0.206887
C56   C     C_3   0.637138 0.346811 0.254615 -0.768547
H32   H     H_    0.642019 0.255157 0.218455 0.180556
H33   H     H_    0.702915 0.387197 0.251381 0.206901
H34   H     H_    0.623695 0.324064 0.328947 0.273307
C57   C     C_3   0.777170 0.262329 0.539541 -0.918145
H35   H     H_    0.704037 0.269231 0.527718 0.219041
H36   H     H_    0.805439 0.190141 0.489231 0.232870
H37   H     H_    0.790027 0.231380 0.614586 0.235221
C58   C     C_3   0.222830 0.737670 0.460459 -0.918144
H38   H     H_    0.295963 0.730769 0.472283 0.219037
H39   H     H_    0.209974 0.768619 0.385414 0.235220
H40   H     H_    0.194561 0.809858 0.510769 0.232870

loop_
_geom_bond_atom_site_label_1
_geom_bond_atom_site_label_2
_ccdc_geom_bond_type
C53   H23   S    
C27   C29   A    
C18   C21   A    
C1    O1    A    
C27   C55   S    
C55   H29   S    
C51   H7    S    
C5    H13   S    
C55   H31   S    
C39   C41   A    
Cu1   Cu2   S    
C18   H22   S    
C23   C42   S    
C23   O7    A    
C4    C52   A    
Cu1   O8    S    
C17   H21   S    
C14   H20   S    
C19   C21   A    
C36   H4    S    
C11   H17   S    
C9    C22   S    
C45   C51   A    
C34   C37   A    
C46   C52   A    
C25   C53   S    
Cu1   O5    S    
C24   O6    A    
C26   C34   A    
C39   H1    S    
C47   C48   A    
C40   H2    S    
C26   N2    A    
C58   H38   S    
C31   C33   A    
C6    H14   S    
C12   H18   S    
C24   C41   S    
C41   C43   A    
Cu1   N1    S    
C42   C44   A    
C27   N1    A    
Cu2   O7    S    
C3    C50   A    
C44   C46   A    
C45   C47   A    
C10   C21   S    
C46   C48   A    
Cu1   O4    S    
C47   C49   A    
C54   H26   S    
C5    C7    A    
C3    C51   A    
C6    C8    A    
C26   C54   S    
C25   N1    A    
C32   C34   A    
Cu1   O1    S    
C2    O2    A    
C54   H27   S    
C43   C45   A    
C56   H32   S    
C55   H30   S    
C57   H36   S    
C48   C50   A    
C9    C11   A    
C37   H5    S    
C10   C12   A    
C38   H6    S    
C28   C56   S    
C56   H33   S    
C12   C14   A    
C13   C15   A    
C1    O3    A    
C58   H40   S    
C14   C16   A    
C16   H12   S    
C20   C22   A    
C28   N2    A    
Cu2   O6    S    
Cu2   O3    S    
C44   C58   S    
C7    C9    A    
C4    H10   S    
C1    C20   S    
C23   O5    A    
C35   C37   A    
C2    C19   S    
Cu2   N2    S    
C31   C32   A    
C33   C38   A    
C13   H19   S    
C7    H15   S    
C39   C49   A    
C3    H9    S    
C29   C35   A    
C8    H16   S    
C17   C22   A    
C30   C36   A    
C4    C49   A    
C35   H3    S    
C36   C38   A    
C24   O8    A    
C28   C30   A    
C29   C31   A    
C52   H8    S    
C54   H28   S    
C30   C32   A    
C11   C13   A    
C58   H39   S    
C40   C50   A    
C40   C42   A    
C17   C19   A    
C57   H37   S    
C18   C20   A    
C43   C57   S    
C5    C15   A    
C2    O4    A    
C6    C16   A    
C56   H34   S    
C8    C10   A    
C53   H25   S    
C57   H35   S    
C53   H24   S    
C25   C33   A    
Cu2   O2    S    
C15   H11   S    
