data_mof_unit_38484.cif
_audit_creation_date              2012-12-10T18:50:03-0500
_audit_creation_method            fapswitch 2.2
_symmetry_space_group_name_H-M    P1
_symmetry_Int_Tables_number       1
_space_group_crystal_system       triclinic
_cell_length_a                    10.695733
_cell_length_b                    9.82623
_cell_length_c                    10.673153
_cell_angle_alpha                 90.677883
_cell_angle_beta                  89.981956
_cell_angle_gamma                 90.046781
_cell_volume                      1121.6559167

loop_
_atom_site_label
_atom_site_type_symbol
_atom_type_description
_atom_site_fract_x
_atom_site_fract_y
_atom_site_fract_z
_atom_type_partial_charge
C1    C     C_R   0.259814 0.499937 0.500413 0.896121
C2    C     C_3   0.596120 0.381669 0.922268 -0.368418
C3    C     C_R   0.062006 0.404358 0.424858 0.167564
C4    C     C_R   0.062473 0.594032 0.579305 0.156941
C5    C     C_R   0.933501 0.403836 0.428741 -0.197181
C6    C     C_R   0.933679 0.594282 0.576376 -0.194531
C7    C     C_R   0.871243 0.499626 0.501931 -0.103643
C8    C     C_R   0.126690 0.499613 0.501420 -0.068711
C9    C     C_R   0.566248 0.073214 0.587798 -0.065790
C10   C     C_R   0.566277 0.929247 0.587756 -0.076101
C11   C     C_R   0.433677 0.926812 0.412147 -0.070159
C12   C     C_R   0.433792 0.070781 0.412079 -0.098286
C13   C     C_R   0.508477 0.498644 0.257897 0.864448
C14   C     C_R   0.739630 0.499997 0.500946 0.874447
C15   C     C_R   0.506243 0.500744 0.742019 0.865593
C16   C     C_3   0.564957 0.634704 0.074287 -0.446664
C17   C     C_3   0.377885 0.481281 0.073823 -0.462790
C18   C     C_3   0.566549 0.638395 0.930438 -0.004841
C19   C     C_3   0.374700 0.485315 0.929926 -0.031121
C20   C     C_3   0.598819 0.373012 0.067491 0.437840
C21   C     C_3   0.514121 0.494755 0.121209 0.092306
C22   C     C_3   0.511510 0.500864 0.878259 0.085706
H1    H     H_    0.658342 0.657173 0.115280 0.198015
H2    H     H_    0.333430 0.387755 0.110258 0.188770
H3    H     H_    0.380693 0.871250 0.341973 0.126166
H4    H     H_    0.381300 0.124400 0.341568 0.129779
H5    H     H_    0.503384 0.719064 0.107828 0.170151
H6    H     H_    0.320343 0.566909 0.111740 0.151828
H7    H     H_    0.503315 0.722498 0.901344 0.165444
H8    H     H_    0.321665 0.578161 0.903502 0.144385
H9    H     H_    0.691721 0.393006 0.882799 0.156270
H10   H     H_    0.562341 0.284457 0.879966 0.173755
H11   H     H_    0.881573 0.330195 0.373128 0.155560
H12   H     H_    0.881590 0.666265 0.633747 0.148831
H13   H     H_    0.619298 0.128796 0.657917 0.121941
H14   H     H_    0.619368 0.875725 0.657805 0.124343
N1    N     N_R   0.499970 0.857200 0.499970 -0.078639
N2    N     N_R   0.499970 0.142800 0.499970 -0.078322
O1    O     O_R   0.316750 0.614620 0.499990 -0.614503
O2    O     O_R   0.316750 0.385380 0.499990 -0.613715
O3    O     O_R   0.499970 0.614670 0.314790 -0.631274
O4    O     O_R   0.499970 0.385330 0.314790 -0.626275
O5    O     O_R   0.683220 0.614710 0.500010 -0.622183
O6    O     O_R   0.683220 0.385290 0.500010 -0.626083
O7    O     O_R   0.500010 0.614660 0.685200 -0.637575
O8    O     O_R   0.500010 0.385340 0.685200 -0.625771
Zn1   Zn    Zn3+2 0.499980 0.653120 0.500000 0.931208
Zn2   Zn    Zn3+2 0.499980 0.346880 0.500000 0.929284
C23   C     C_3   0.697926 0.676700 0.881168 -0.950624
H15   H     H_    0.770826 0.604287 0.910924 0.248083
H16   H     H_    0.700157 0.681359 0.777704 0.250282
H17   H     H_    0.724122 0.779192 0.917594 0.241053
C24   C     C_3   0.299120 0.363965 0.876189 -0.887788
H18   H     H_    0.348140 0.266012 0.890232 0.253138
H19   H     H_    0.206559 0.358451 0.923175 0.237890
H20   H     H_    0.280321 0.377434 0.774880 0.251593
C25   C     C_3   0.735595 0.384810 0.115040 -0.936948
H21   H     H_    0.782592 0.478706 0.084139 0.229662
H22   H     H_    0.738060 0.383719 0.218751 0.234899
H23   H     H_    0.792605 0.297880 0.079773 0.242244
C26   C     C_3   0.554014 0.226941 0.103410 -0.874031
H24   H     H_    0.604785 0.149072 0.046625 0.213781
H25   H     H_    0.576145 0.200683 0.201546 0.267669
H26   H     H_    0.453188 0.210410 0.086182 0.220797
C27   C     C_3   0.126286 0.305329 0.336687 -0.900290
H27   H     H_    0.172063 0.223704 0.390934 0.256589
H28   H     H_    0.059281 0.255773 0.270941 0.227383
H29   H     H_    0.196481 0.359566 0.279436 0.228099
C28   C     C_3   0.127745 0.691929 0.667974 -0.884658
H30   H     H_    0.197113 0.636543 0.725268 0.229266
H31   H     H_    0.175083 0.773263 0.614442 0.262504
H32   H     H_    0.061022 0.742089 0.733580 0.225286

loop_
_geom_bond_atom_site_label_1
_geom_bond_atom_site_label_2
_ccdc_geom_bond_type
C2    C22   S    
C26   H26   S    
C11   C12   A    
C16   C21   S    
C6    C7    A    
N1    Zn1   S    
C1    C8    S    
C9    C10   A    
C14   O6    A    
N2    Zn2   S    
C15   O8    A    
C28   H32   S    
C4    C8    A    
C27   H29   S    
C19   C24   S    
C16   H5    S    
C13   O3    A    
O3    Zn1   S    
C3    C5    A    
C13   C21   S    
C4    C28   S    
O7    Zn1   S    
C18   H7    S    
O4    Zn2   S    
C24   H18   S    
C17   H6    S    
C25   H21   S    
C28   H30   S    
C10   N1    A    
O1    Zn1   S    
C2    H10   S    
C16   C18   S    
C13   O4    A    
C17   C19   S    
C23   H15   S    
C16   H1    S    
C5    C7    A    
C5    H11   S    
C24   H19   S    
C3    C8    A    
C12   N2    A    
C26   H24   S    
C3    C27   S    
O8    Zn2   S    
C25   H22   S    
C4    C6    A    
C28   H31   S    
C1    O1    A    
C2    C20   S    
C17   H2    S    
C6    H12   S    
C19   C22   S    
C20   C21   S    
C18   C23   S    
C14   O5    A    
C26   H25   S    
C27   H27   S    
C24   H20   S    
C20   C26   S    
C11   N1    A    
C11   H3    S    
O2    Zn2   S    
C9    N2    A    
C25   H23   S    
C10   H14   S    
C9    H13   S    
C1    O2    A    
C23   H16   S    
C20   C25   S    
C18   C22   S    
C19   H8    S    
O5    Zn1   S    
C15   C22   S    
C7    C14   S    
O6    Zn2   S    
C23   H17   S    
C12   H4    S    
C2    H9    S    
C27   H28   S    
C15   O7    A    
C17   C21   S    
