data_mof_unit_7490.cif
_audit_creation_date              2013-03-05T15:44:59-0500
_audit_creation_method            fapswitch 2.2
_symmetry_space_group_name_H-M    P1
_symmetry_Int_Tables_number       1
_space_group_crystal_system       triclinic
_cell_length_a                    11.075641
_cell_length_b                    11.057537
_cell_length_c                    18.777907
_cell_angle_alpha                 90.075772
_cell_angle_beta                  90.70961
_cell_angle_gamma                 120.252601
_cell_volume                      1986.29639301

loop_
_atom_site_label
_atom_site_type_symbol
_atom_site_description
_atom_site_fract_x
_atom_site_fract_y
_atom_site_fract_z
_atom_type_partial_charge
O1    O     O_R   0.766500 0.250040 0.579790 -0.503682
O2    O     O_R   0.798570 0.516780 0.574780 -0.498811
C1    C     C_R   0.862850 0.640658 0.601148 0.561707
O3    O     O_R   0.984000 0.732950 0.581090 -0.464282
O4    O     O_R   0.218600 0.700890 0.574760 -0.418352
C2    C     C_R   0.270052 0.632244 0.603627 0.567030
O5    O     O_R   0.249390 0.515350 0.579940 -0.540687
O6    O     O_R   0.982790 0.280900 0.573700 -0.454185
C3    C     C_R   0.865363 0.228315 0.603825 0.575663
O7    O     O_R   0.766600 0.251130 0.419260 -0.518862
O8    O     O_R   0.798660 0.517790 0.425980 -0.528570
C4    C     C_R   0.868266 0.635948 0.396165 0.563768
O9    O     O_R   0.984100 0.734040 0.420570 -0.452527
O10   O     O_R   0.218690 0.701900 0.425960 -0.511024
C5    C     C_R   0.272133 0.635819 0.397576 0.528817
O11   O     O_R   0.249490 0.516440 0.419420 -0.479067
O12   O     O_R   0.982880 0.281910 0.424890 -0.420783
C6    C     C_R   0.882894 0.280449 0.388244 0.536304
Cr1   Cr    Cr6+3 0.791660 0.390250 0.499930 1.057641
Cr2   Cr    Cr6+3 0.098520 0.708290 0.500540 1.150443
Cr3   Cr    Cr6+3 0.109770 0.401430 0.499480 1.107591
O13   O     O_3   0.999980 0.499990 0.499980 -0.308800
C7    C     C_R   0.195028 0.620879 0.726781 0.113988
C8    C     C_R   0.224948 0.638123 0.799404 -0.106848
H1    H     H_    0.141641 0.607041 0.837204 0.178396
C9    C     C_R   0.362353 0.694646 0.822508 0.021909
C10   C     C_R   0.471837 0.740923 0.774010 -0.138643
H2    H     H_    0.579275 0.788618 0.792575 0.098136
C11   C     C_R   0.442678 0.720151 0.701611 -0.177819
H3    H     H_    0.526852 0.750708 0.664287 0.108926
C12   C     C_R   0.304571 0.660072 0.678117 0.105389
C13   C     C_R   0.843548 0.181487 0.826403 0.043719
C14   C     C_R   0.091703 0.272459 0.841656 0.211992
C15   C     C_R   0.206845 0.266611 0.817334 0.164892
C16   C     C_R   0.216164 0.244734 0.744622 -0.186570
C17   C     C_R   0.106973 0.218024 0.696009 0.079918
C18   C     C_R   0.980796 0.208590 0.720960 -0.011491
C19   C     C_R   0.973194 0.225200 0.796194 -0.098751
H4    H     H_    0.304684 0.237942 0.726074 0.126801
C20   C     C_R   0.729689 0.126912 0.710870 -0.092705
C21   C     C_R   0.731947 0.164908 0.781909 -0.018018
C22   C     C_R   0.601173 0.059536 0.673296 -0.088209
C23   C     C_R   0.482336 0.052841 0.701667 0.186688
C24   C     C_R   0.492408 0.115169 0.767917 -0.119992
C25   C     C_R   0.618557 0.177815 0.806771 0.189722
C26   C     C_R   0.857102 0.170129 0.676938 0.000443
H5    H     H_    0.594388 0.015144 0.620888 0.162175
H6    H     H_    0.404214 0.120222 0.787505 0.180892
C27   C     C_R   0.695748 0.568190 0.701613 -0.146364
H7    H     H_    0.621545 0.472288 0.674204 0.134982
C28   C     C_R   0.676417 0.587069 0.773546 0.062614
C29   C     C_R   0.781778 0.703461 0.812129 0.092043
C30   C     C_R   0.894548 0.807880 0.774011 0.026768
C31   C     C_R   0.902032 0.795877 0.701404 -0.128239
H8    H     H_    0.988750 0.879693 0.674175 0.194201
C32   C     C_R   0.813171 0.670530 0.666634 -0.026109
C33   C     C_R   0.436855 0.653344 0.307424 -0.059927
H9    H     H_    0.477777 0.606240 0.343902 0.152026
C34   C     C_R   0.470600 0.664861 0.235797 0.079376
C35   C     C_R   0.414629 0.719084 0.186741 0.104707
C36   C     C_R   0.326422 0.766484 0.211177 0.033013
C37   C     C_R   0.288521 0.750131 0.282703 -0.134705
H10   H     H_    0.212475 0.777944 0.299885 0.162943
C38   C     C_R   0.339400 0.687486 0.329913 0.011051
C39   C     C_R   0.736746 0.141326 0.288521 -0.126827
H11   H     H_    0.644718 0.099658 0.321334 0.169618
C40   C     C_R   0.718862 0.101506 0.218636 -0.089339
H12   H     H_    0.614200 0.026378 0.200065 0.151111
C41   C     C_R   0.833320 0.158505 0.172923 0.039090
C42   C     C_R   0.966089 0.252925 0.197421 -0.041481
H13   H     H_    0.052546 0.290162 0.160952 0.202041
C43   C     C_R   0.989239 0.276208 0.270614 0.202925
C44   C     C_R   0.871160 0.229727 0.315714 0.017403
C45   C     C_R   0.909536 0.778945 0.291777 0.156179
C46   C     C_R   0.924864 0.790506 0.218884 0.112224
C47   C     C_R   0.840782 0.669517 0.174475 -0.041250
C48   C     C_R   0.773089 0.535212 0.204729 0.134979
C49   C     C_R   0.774300 0.525090 0.278974 -0.198867
H14   H     H_    0.726677 0.422401 0.302891 0.185509
C50   C     C_R   0.838399 0.646523 0.322180 -0.083290
O14   O     O_R   0.895110 0.806860 0.920430 -0.440145
O15   O     O_R   0.872260 0.046970 0.925000 -0.483005
C51   C     C_R   0.806282 0.106100 0.895924 0.584468
O16   O     O_R   0.691430 0.085060 0.918550 -0.464301
O17   O     O_R   0.451490 0.822460 0.925250 -0.494150
C52   C     C_R   0.396452 0.701541 0.896709 0.559474
O18   O     O_R   0.413330 0.603360 0.920440 -0.445630
O19   O     O_R   0.676110 0.626250 0.926750 -0.415842
C53   C     C_R   0.774547 0.726912 0.889360 0.568448
O20   O     O_R   0.895350 0.809870 0.080950 -0.456749
O21   O     O_R   0.872490 0.049760 0.073800 -0.452351
C54   C     C_R   0.807202 0.107728 0.101225 0.576189
O22   O     O_R   0.691680 0.088070 0.079070 -0.469051
O23   O     O_R   0.451720 0.825250 0.074050 -0.470036
C55   C     C_R   0.452419 0.726432 0.111506 0.574498
O24   O     O_R   0.413580 0.606370 0.080960 -0.431220
O25   O     O_R   0.676340 0.629040 0.075550 -0.446871
C56   C     C_R   0.802792 0.694810 0.103173 0.607312
Cr4   Cr    Cr6+3 0.874790 0.925890 0.000070 1.187361
Cr5   Cr    Cr6+3 0.574120 0.948670 0.999300 1.158165
Cr6   Cr    Cr6+3 0.551420 0.625320 0.000920 1.216787
O26   O     O_3   0.666780 0.833290 0.000090 -0.388926
N1    N     N_3   0.053461 0.562815 0.702423 -0.579891
H15   H     H_    0.016802 0.625732 0.723109 0.256109
H16   H     H_    0.994008 0.464301 0.725167 0.226464
N2    N     N_R   0.355199 0.993271 0.660618 0.063233
O27   O     O_R   0.235611 0.935185 0.692281 -0.407532
O28   O     O_R   0.358039 0.996468 0.591364 -0.336651
N3    N     N_3   0.549919 0.488086 0.806221 -0.515962
H17   H     H_    0.534310 0.388701 0.795347 0.251970
H18   H     H_    0.468977 0.493872 0.780410 0.220198
N4    N     N_3   0.005132 0.926978 0.808934 -0.540917
H19   H     H_    0.099345 0.932112 0.796989 0.300824
H20   H     H_    0.003968 0.011865 0.787493 0.226990
N5    N     N_3   0.561019 0.618241 0.212927 -0.601560
H21   H     H_    0.649781 0.675910 0.244387 0.203475
H22   H     H_    0.516191 0.512615 0.226325 0.306409
N6    N     N_3   0.270366 0.825451 0.163091 -0.534191
H23   H     H_    0.161484 0.765601 0.165703 0.263331
H24   H     H_    0.305333 0.927314 0.181226 0.300617
N7    N     N_R   0.128824 0.324557 0.296800 0.097237
O29   O     O_R   0.148735 0.255732 0.347205 -0.199138
O30   O     O_R   0.231623 0.394047 0.253705 -0.347004
N8    N     N_R   0.971096 0.903453 0.335502 0.144379
O31   O     O_R   0.893067 0.928086 0.377400 -0.316898
O32   O     O_R   0.106462 0.982748 0.339516 -0.234309
N9    N     N_R   0.011888 0.929719 0.191568 0.123386
O33   O     O_R   0.996627 0.031120 0.214734 -0.291721
O34   O     O_R   0.115496 0.959678 0.149639 -0.287707
N10   N     N_R   0.699176 0.410706 0.161493 0.095298
O35   O     O_R   0.740907 0.406660 0.097507 -0.263200
O36   O     O_R   0.594631 0.297883 0.187382 -0.313080
N11   N     N_R   0.294429 0.248609 0.867802 0.077345
O37   O     O_R   0.373725 0.349693 0.911568 -0.202800
O38   O     O_R   0.259518 0.121755 0.885829 -0.296256
N12   N     N_R   0.092050 0.321670 0.913088 0.090224
O39   O     O_R   0.128164 0.273853 0.967648 -0.226699
O40   O     O_R   0.041988 0.403974 0.924502 -0.325306
N13   N     N_3   0.117063 0.175292 0.625338 -0.559081
H25   H     H_    0.134053 0.090809 0.628434 0.260036
H26   H     H_    0.205944 0.257400 0.602217 0.260877
N14   N     N_R   0.635780 0.264741 0.867526 0.094399
O41   O     O_R   0.538146 0.223265 0.914665 -0.208551
O42   O     O_R   0.754479 0.379045 0.879510 -0.281450

loop_
_geom_bond_atom_site_label_1
_geom_bond_atom_site_label_2
_geom_bond_distance
_ccdc_geom_bond_type
C45   N8    1.439363 S    
Cr6   O26   1.990230 S    
C43   N7    1.437136 S    
C10   C11   1.385229 A    
O15   Cr4   1.955055 S    
N10   O36   1.301320 A    
C55   O24   1.301141 A    
C23   C24   1.397092 A    
C27   C28   1.401941 A    
N4    H20   1.027799 S    
O19   Cr6   1.969890 S    
O4    Cr2   1.944719 S    
C48   C49   1.399234 A    
C24   C25   1.400882 A    
C20   C26   1.403345 A    
C4    O9    1.270585 A    
O8    Cr1   1.954700 S    
C9    C10   1.401774 A    
C37   H10   1.084235 S    
C17   C18   1.432769 A    
C8    C9    1.385422 A    
N3    H18   1.043938 S    
O17   C52   1.270947 A    
O4    C2    1.274365 A    
C49   C50   1.409799 A    
C33   C34   1.389197 A    
N2    O27   1.297562 A    
C47   C56   1.467493 S    
C5    O11   1.282205 A    
C39   C44   1.395019 A    
O12   C6    1.289653 A    
C15   C16   1.400425 A    
N6    H23   1.045004 S    
C37   C38   1.402082 A    
O18   Cr6   2.061449 S    
C7    N1    1.430718 S    
C16   C17   1.412492 A    
O6    C3    1.267551 A    
N5    H22   1.045701 S    
C5    C38   1.446463 S    
C42   H13   1.084039 S    
C13   C19   1.392403 A    
C41   C54   1.426979 S    
C36   C37   1.396783 A    
C9    C52   1.430919 S    
C22   H5    1.083881 S    
O14   C53   1.301861 A    
C20   C22   1.408590 A    
C2    C12   1.436840 S    
O2    Cr1   1.955278 S    
C3    C26   1.501117 S    
C28   N3    1.419595 S    
C45   C50   1.393426 A    
Cr3   O13   2.000512 S    
C29   C53   1.483127 S    
C41   C42   1.378049 A    
N4    H19   1.043320 S    
O25   C56   1.309248 A    
C31   C32   1.386785 A    
O1    Cr1   2.076369 S    
N14   O41   1.299334 A    
C45   C46   1.379513 A    
C28   C29   1.416444 A    
O16   Cr5   2.083802 S    
O10   Cr2   1.969364 S    
Cr1   O13   1.993695 S    
O1    C3    1.308985 A    
C8    H1    1.081948 S    
N12   O40   1.300962 A    
O21   C54   1.293960 A    
C49   H14   1.083035 S    
C43   C44   1.429335 A    
O14   Cr4   2.078706 S    
C15   N11   1.432136 S    
C39   C40   1.363606 A    
C30   C31   1.377242 A    
O15   C51   1.316088 A    
O12   Cr3   1.938650 S    
C1    O3    1.271825 A    
C40   H12   1.083676 S    
C35   C36   1.402174 A    
C40   C41   1.401573 A    
C23   N2    1.431094 S    
C7    C12   1.411929 A    
C16   H4    1.082019 S    
C46   C47   1.440452 A    
N9    O34   1.298645 A    
C18   C19   1.433364 A    
C1    C32   1.456979 S    
C51   O16   1.252284 A    
O23   Cr5   1.964306 S    
O7    Cr1   2.071553 S    
C7    C8    1.389358 A    
Cr5   O26   2.000038 S    
C14   C15   1.391600 A    
N1    H16   1.043089 S    
C47   C48   1.407558 A    
O22   Cr5   2.058721 S    
N7    O29   1.299817 A    
C30   N4    1.420206 S    
C20   C21   1.394160 A    
Cr2   O13   1.990745 S    
C39   H11   1.083481 S    
C6    C44   1.451392 S    
C25   N14   1.438318 S    
N14   O42   1.301577 A    
C22   C23   1.393187 A    
C13   C21   1.416048 A    
N9    O33   1.290928 A    
O20   Cr4   2.072498 S    
N1    H15   1.042857 S    
C29   C30   1.405944 A    
C33   C38   1.381086 A    
N8    O32   1.301809 A    
C13   C51   1.496336 S    
C31   H8    1.076728 S    
O9    Cr2   2.063893 S    
C36   N6    1.421795 S    
C52   O18   1.271157 A    
N12   O39   1.301381 A    
O6    Cr3   1.965034 S    
N13   H25   1.043309 S    
O11   Cr3   2.086096 S    
C2    O5    1.272337 A    
C27   C32   1.394118 A    
C14   C19   1.415837 A    
O2    C1    1.278744 A    
C11   C12   1.390788 A    
O17   Cr5   1.940103 S    
O5    Cr3   2.057937 S    
N3    H17   1.042297 S    
N13   H26   1.045427 S    
C14   N12   1.446075 S    
C33   H9    1.084905 S    
N11   O37   1.298705 A    
N2    O28   1.301313 A    
O7    C6    1.304475 A    
C4    C50   1.442648 S    
C54   O22   1.250490 A    
N10   O35   1.301421 A    
C46   N9    1.442581 S    
C48   N10   1.438630 S    
O23   C55   1.303514 A    
C17   N13   1.432500 S    
N6    H24   1.044413 S    
N7    O30   1.297892 A    
C11   H3    1.083485 S    
O3    Cr2   2.089477 S    
C35   C55   1.469132 S    
C24   H6    1.075360 S    
C34   C35   1.397922 A    
Cr4   O26   1.994790 S    
O19   C53   1.311020 A    
C34   N5    1.408308 S    
C27   H7    1.083868 S    
C10   H2    1.082834 S    
N11   O38   1.299865 A    
C21   C25   1.417916 A    
O10   C5    1.269235 A    
C42   C43   1.394581 A    
O21   Cr4   1.955649 S    
C18   C26   1.457737 A    
O24   Cr6   2.090194 S    
O20   C56   1.241584 A    
O25   Cr6   1.942766 S    
N5    H21   1.036831 S    
O8    C4    1.269854 A    
N8    O31   1.301356 A    
