data_mof_unit_61087.cif
_audit_creation_date              2012-12-10T18:03:37-0500
_audit_creation_method            fapswitch 2.2
_symmetry_space_group_name_H-M    P1
_symmetry_Int_Tables_number       1
_space_group_crystal_system       monoclinic
_cell_length_a                    21.58129
_cell_length_b                    21.58129
_cell_length_c                    47.190978
_cell_angle_alpha                 90.000036
_cell_angle_beta                  90.0
_cell_angle_gamma                 90.0
_cell_volume                      21979.2960694

loop_
_atom_site_label
_atom_site_type_symbol
_atom_type_description
_atom_site_fract_x
_atom_site_fract_y
_atom_site_fract_z
_atom_type_partial_charge
C1    C     C_R   1.000000 0.120246 0.000000 0.855684
C2    C     C_R   0.499999 0.000000 0.764924 -0.007596
C3    C     C_R   0.041022 0.718058 0.017740 -0.140130
C4    C     C_R   0.281942 0.958980 0.982258 -0.140131
C5    C     C_R   0.958978 0.718058 0.982260 -0.140129
C6    C     C_R   0.718057 0.040998 0.982248 -0.140146
C7    C     C_R   0.041022 0.281942 0.982260 -0.140130
C8    C     C_R   0.781941 0.541025 0.517739 -0.140130
C9    C     C_R   0.458962 0.781941 0.517733 -0.140120
C10   C     C_R   0.218058 0.458975 0.517739 -0.140130
C11   C     C_R   0.541022 0.218058 0.517740 -0.140131
C12   C     C_R   0.781942 0.458975 0.482261 -0.140130
C13   C     C_R   0.000000 0.500000 0.235076 -0.007596
C14   C     C_R   0.458977 0.218058 0.482260 -0.140132
C15   C     C_R   0.218058 0.541025 0.482261 -0.140129
C16   C     C_R   0.541038 0.781941 0.482267 -0.140121
C17   C     C_R   0.313584 0.000000 0.000000 -0.041541
C18   C     C_R   1.000000 0.313584 0.000000 -0.041545
C19   C     C_R   0.686415 0.000000 0.000000 -0.041536
C20   C     C_R   1.000000 0.686416 0.000000 -0.041545
C21   C     C_R   0.813584 0.500000 0.500000 -0.041548
C22   C     C_R   0.500000 0.813583 0.500000 -0.041553
C23   C     C_R   0.186416 0.500000 0.500000 -0.041549
C24   C     C_R   0.499997 0.999998 0.235076 -0.007596
C25   C     C_R   0.500000 0.186416 0.500000 -0.041549
C26   C     C_R   0.186341 0.000000 0.000000 -0.024505
C27   C     C_R   1.000000 0.186341 0.000000 -0.024502
C28   C     C_R   0.813658 0.000000 0.000000 -0.024538
C29   C     C_R   0.000000 0.813659 1.000000 -0.024502
C30   C     C_R   0.686341 0.500000 0.500000 -0.024497
C31   C     C_R   0.500000 0.686341 0.500000 -0.024476
C32   C     C_R   0.313659 0.500000 0.500000 -0.024497
C33   C     C_R   0.500000 0.313659 0.500000 -0.024500
C34   C     C_R   0.500000 0.000000 0.055452 0.958477
C35   C     C_R   0.499997 0.999997 0.264924 -0.007596
C36   C     C_R   0.000000 0.500000 0.055452 0.958479
C37   C     C_R   0.500000 1.000000 0.944548 0.958479
C38   C     C_R   0.000000 0.500000 0.944548 0.958481
C39   C     C_R   1.000000 0.500000 0.555452 0.958482
C40   C     C_R   0.500000 1.000000 0.555452 0.958482
C41   C     C_R   0.000000 0.500000 0.444548 0.958484
C42   C     C_R   0.500000 1.000000 0.444548 0.958484
C43   C     C_R   0.379717 0.000000 0.000000 0.942361
C44   C     C_R   1.000000 0.379717 0.000000 0.942363
C45   C     C_R   0.620283 0.000000 0.000000 0.942350
C46   C     C_R   0.000000 0.500000 0.264924 -0.007596
C47   C     C_R   0.000000 0.620283 0.000000 0.942363
C48   C     C_R   0.879717 0.500000 0.500000 0.942367
C49   C     C_R   0.500000 0.879717 0.500000 0.942373
C50   C     C_R   0.120283 0.500000 0.500000 0.942366
C51   C     C_R   0.500000 0.120283 0.500000 0.942366
C52   C     C_R   0.039109 0.460730 0.809466 0.589431
C53   C     C_R   0.539268 0.039111 0.809466 0.589434
C54   C     C_R   0.960890 0.539270 0.809466 0.589430
C55   C     C_R   0.460729 0.960890 0.809466 0.589434
C56   C     C_R   0.039110 0.539270 0.190534 0.589431
C57   C     C_R   0.500000 1.000000 0.735076 -0.007595
C58   C     C_R   0.539268 0.960889 0.190534 0.589432
C59   C     C_R   0.960890 0.460730 0.190534 0.589432
C60   C     C_R   0.460726 0.039107 0.190534 0.589432
C61   C     C_R   0.539111 0.960731 0.309466 0.589433
C62   C     C_R   0.039267 0.539112 0.309466 0.589433
C63   C     C_R   0.460885 0.039264 0.309466 0.589432
C64   C     C_R   0.960732 0.460887 0.309466 0.589432
C65   C     C_R   0.539112 0.039267 0.690534 0.589431
C66   C     C_R   0.039267 0.460887 0.690534 0.589432
C67   C     C_R   0.460889 0.960731 0.690534 0.589432
C68   C     C_R   0.000000 0.500000 0.735076 -0.007596
C69   C     C_R   0.960733 0.539113 0.690534 0.589433
C70   C     C_R   0.960042 0.540082 0.779810 -0.019295
C71   C     C_R   0.459918 0.960042 0.779810 -0.019295
C72   C     C_R   0.039957 0.459918 0.779810 -0.019294
C73   C     C_R   0.540080 0.039959 0.779810 -0.019295
C74   C     C_R   0.960042 0.459918 0.220190 -0.019294
C75   C     C_R   0.459915 0.039955 0.220190 -0.019295
C76   C     C_R   0.039958 0.540082 0.220190 -0.019294
C77   C     C_R   0.540080 0.960040 0.220190 -0.019295
C78   C     C_R   0.460037 0.040076 0.279810 -0.019294
C79   C     C_R   0.920329 0.579761 0.764768 -0.125651
C80   C     C_R   0.959921 0.460039 0.279810 -0.019295
C81   C     C_R   0.539959 0.959919 0.279810 -0.019295
C82   C     C_R   0.040079 0.539960 0.279810 -0.019295
C83   C     C_R   0.460040 0.959919 0.720190 -0.019294
C84   C     C_R   0.959921 0.539961 0.720190 -0.019295
C85   C     C_R   0.539959 0.040080 0.720190 -0.019296
C86   C     C_R   0.040079 0.460039 0.720190 -0.019295
C87   C     C_2   0.594815 0.067117 0.147504 0.980320
C88   C     C_2   0.932885 0.594819 0.147504 0.980321
C89   C     C_2   0.405180 0.932882 0.147503 0.980320
C90   C     C_R   0.420240 0.920326 0.764768 -0.125650
C91   C     C_2   0.067114 0.405180 0.147504 0.980321
C92   C     C_2   0.594818 0.932885 0.852496 0.980319
C93   C     C_2   0.932886 0.405180 0.852496 0.980321
C94   C     C_2   0.405180 0.067115 0.852496 0.980321
C95   C     C_2   0.067114 0.594820 0.852496 0.980321
C96   C     C_2   0.094823 0.567110 0.647504 0.980319
C97   C     C_2   0.432890 0.094822 0.647504 0.980321
C98   C     C_2   0.905177 0.432890 0.647504 0.980320
C99   C     C_2   0.567110 0.905176 0.647503 0.980322
C100  C     C_2   0.094823 0.432890 0.352496 0.980320
C101  C     C_R   0.079671 0.420239 0.764768 -0.125650
C102  C     C_2   0.432891 0.905174 0.352497 0.980321
C103  C     C_2   0.905177 0.567110 0.352496 0.980321
C104  C     C_2   0.567107 0.094822 0.352496 0.980321
C105  C     C_2   0.593187 0.070206 0.085759 0.998326
C106  C     C_2   0.929800 0.593191 0.085758 0.998322
C107  C     C_2   0.406810 0.929797 0.085758 0.998325
C108  C     C_2   0.070200 0.406808 0.085758 0.998321
C109  C     C_2   0.593188 0.929796 0.914241 0.998323
C110  C     C_2   0.929800 0.406808 0.914242 0.998321
C111  C     C_2   0.406809 0.070202 0.914242 0.998322
C112  C     C_R   0.879754 0.000000 0.000000 0.855689
C113  C     C_R   0.579758 0.079674 0.764768 -0.125651
C114  C     C_2   0.070200 0.593192 0.914242 0.998321
C115  C     C_2   0.093194 0.570197 0.585758 0.998319
C116  C     C_2   0.429803 0.093194 0.585758 0.998319
C117  C     C_2   0.906806 0.429803 0.585758 0.998319
C118  C     C_2   0.570195 0.906805 0.585758 0.998318
C119  C     C_2   0.093194 0.429803 0.414242 0.998318
C120  C     C_2   0.429806 0.906803 0.414242 0.998317
C121  C     C_2   0.906806 0.570197 0.414242 0.998318
C122  C     C_2   0.570196 0.093194 0.414241 0.998317
C123  C     C_R   0.920328 0.420239 0.235232 -0.125650
C124  C     C_R   0.420235 0.079668 0.235232 -0.125651
C125  C     C_R   0.079672 0.579761 0.235232 -0.125651
C126  C     C_R   0.579759 0.920327 0.235232 -0.125651
C127  C     C_R   0.420319 0.079751 0.264768 -0.125651
C128  C     C_R   0.920245 0.420322 0.264768 -0.125651
C129  C     C_R   0.579676 0.920243 0.264768 -0.125650
C130  C     C_R   0.079755 0.579677 0.264768 -0.125651
C131  C     C_R   0.420324 0.920243 0.735232 -0.125650
C132  C     C_R   0.000000 0.879754 0.000000 0.855685
C133  C     C_R   0.920245 0.579678 0.735232 -0.125650
C134  C     C_R   0.579675 0.079757 0.735232 -0.125651
C135  C     C_R   0.079755 0.420322 0.735232 -0.125650
C136  C     C_R   0.545672 0.033933 0.131363 -0.052647
C137  C     C_R   0.966068 0.545675 0.131362 -0.052646
C138  C     C_R   0.454324 0.966066 0.131362 -0.052647
C139  C     C_R   0.033931 0.454324 0.131362 -0.052646
C140  C     C_R   0.545674 0.966068 0.868637 -0.052647
C141  C     C_R   0.966069 0.454324 0.868637 -0.052647
C142  C     C_R   0.454324 0.033932 0.868637 -0.052646
C143  C     C_R   0.120246 0.000000 0.000000 0.855680
C144  C     C_R   0.033931 0.545675 0.868637 -0.052646
C145  C     C_R   0.045677 0.533930 0.631363 -0.052645
C146  C     C_R   0.466070 0.045676 0.631363 -0.052646
C147  C     C_R   0.954323 0.466070 0.631363 -0.052646
C148  C     C_R   0.533929 0.954322 0.631362 -0.052645
C149  C     C_R   0.045677 0.466070 0.368637 -0.052646
C150  C     C_R   0.466071 0.954321 0.368638 -0.052644
C151  C     C_R   0.954323 0.533929 0.368637 -0.052645
C152  C     C_R   0.533928 0.045676 0.368637 -0.052645
C153  C     C_R   0.545525 0.034264 0.101485 -0.131055
C154  C     C_R   0.500000 0.620245 0.500000 0.855670
C155  C     C_R   0.965738 0.545528 0.101484 -0.131053
C156  C     C_R   0.454472 0.965736 0.101484 -0.131053
C157  C     C_R   0.034262 0.454472 0.101484 -0.131052
C158  C     C_R   0.545526 0.965737 0.898515 -0.131055
C159  C     C_R   0.965739 0.454472 0.898516 -0.131053
C160  C     C_R   0.454472 0.034263 0.898516 -0.131051
C161  C     C_R   0.034262 0.545528 0.898516 -0.131053
C162  C     C_R   0.045529 0.534260 0.601484 -0.131051
C163  C     C_R   0.465740 0.045529 0.601484 -0.131052
C164  C     C_R   0.954471 0.465740 0.601484 -0.131051
C165  C     C_R   0.379754 0.500000 0.500000 0.855674
C166  C     C_R   0.534259 0.954470 0.601484 -0.131051
C167  C     C_R   0.045529 0.465740 0.398516 -0.131053
C168  C     C_R   0.465741 0.954469 0.398516 -0.131051
C169  C     C_R   0.954471 0.534260 0.398516 -0.131051
C170  C     C_R   0.534259 0.045529 0.398516 -0.131051
C171  C     C_R   0.499999 0.000000 0.086616 -0.196004
C172  C     C_R   1.000000 0.500000 0.086616 -0.196002
C173  C     C_R   0.499999 1.000000 0.913384 -0.196004
C174  C     C_R   0.000000 0.500000 0.913384 -0.196002
C175  C     C_R   0.000000 0.500000 0.586616 -0.196002
C176  C     C_R   0.500000 0.379754 0.500000 0.855677
C177  C     C_R   0.500000 1.000000 0.586616 -0.196001
C178  C     C_R   0.000000 0.500000 0.413384 -0.196002
C179  C     C_R   0.500000 0.999999 0.413384 -0.196001
C180  C     C_R   0.499998 0.999999 0.146057 0.147310
C181  C     C_R   0.000000 0.500000 0.146057 0.147309
C182  C     C_R   0.499999 0.000000 0.853943 0.147308
C183  C     C_R   0.000000 0.500000 0.853943 0.147310
C184  C     C_R   0.000000 0.500000 0.646057 0.147308
C185  C     C_R   0.500000 0.999999 0.646057 0.147309
C186  C     C_R   0.000000 0.500000 0.353943 0.147309
C187  C     C_R   0.620246 0.500000 0.500000 0.855673
C188  C     C_R   0.499999 0.999998 0.353943 0.147308
C189  C     C_R   0.217961 0.040323 0.018072 -0.166801
C190  C     C_R   0.959674 0.217961 0.018071 -0.166797
C191  C     C_R   0.782037 0.959699 0.018082 -0.166794
C192  C     C_R   0.040326 0.782039 0.018070 -0.166803
C193  C     C_R   0.217961 0.959677 0.981928 -0.166801
C194  C     C_R   0.959674 0.782039 0.981929 -0.166797
C195  C     C_R   0.782037 0.040301 0.981918 -0.166794
C196  C     C_R   0.040326 0.217961 0.981929 -0.166803
C197  C     C_R   0.717961 0.540328 0.518069 -0.166805
C198  C     C_R   1.000000 0.500000 0.764924 -0.007596
C199  C     C_R   0.459658 0.717960 0.518064 -0.166807
C200  C     C_R   0.282039 0.459671 0.518069 -0.166802
C201  C     C_R   0.540326 0.282039 0.518070 -0.166803
C202  C     C_R   0.717961 0.459672 0.481930 -0.166802
C203  C     C_R   0.459674 0.282039 0.481930 -0.166802
C204  C     C_R   0.282039 0.540329 0.481931 -0.166806
C205  C     C_R   0.540342 0.717960 0.481936 -0.166808
C206  C     C_R   0.281942 0.041020 0.017742 -0.140131
C207  C     C_R   0.958978 0.281942 0.017740 -0.140130
C208  C     C_R   0.718057 0.959002 0.017751 -0.140146
H1    H     H_    0.193158 0.071679 0.031970 0.159300
H2    H     H_    0.428287 0.693157 0.531955 0.159281
H3    H     H_    0.306842 0.428311 0.531965 0.159296
H4    H     H_    0.571685 0.306842 0.531967 0.159298
H5    H     H_    0.693158 0.428312 0.468034 0.159296
H6    H     H_    0.428315 0.306842 0.468033 0.159298
H7    H     H_    0.306842 0.571689 0.468035 0.159295
H8    H     H_    0.571713 0.693157 0.468045 0.159282
H9    H     H_    0.306726 0.072526 0.031574 0.176537
H10   H     H_    0.927469 0.306726 0.031572 0.176538
H11   H     H_    0.693272 0.927512 0.031591 0.176550
H12   H     H_    0.928316 0.193158 0.031968 0.159298
H13   H     H_    0.072531 0.693274 0.031572 0.176538
H14   H     H_    0.306726 0.927474 0.968426 0.176538
H15   H     H_    0.927469 0.693274 0.968428 0.176538
H16   H     H_    0.693272 0.072488 0.968409 0.176551
H17   H     H_    0.072531 0.306726 0.968428 0.176538
H18   H     H_    0.806726 0.572535 0.531570 0.176538
H19   H     H_    0.427441 0.806725 0.531559 0.176531
H20   H     H_    0.193274 0.427464 0.531569 0.176538
H21   H     H_    0.572532 0.193274 0.531571 0.176540
H22   H     H_    0.806726 0.427465 0.468430 0.176538
H23   H     H_    0.806840 0.928360 0.031988 0.159324
H24   H     H_    0.427468 0.193274 0.468429 0.176540
H25   H     H_    0.193274 0.572536 0.468431 0.176538
H26   H     H_    0.572559 0.806725 0.468441 0.176532
H27   H     H_    0.889199 0.610954 0.775750 0.201825
H28   H     H_    0.389048 0.889196 0.775750 0.201825
H29   H     H_    0.110801 0.389046 0.775750 0.201825
H30   H     H_    0.610950 0.110804 0.775750 0.201825
H31   H     H_    0.889199 0.389046 0.224249 0.201825
H32   H     H_    0.389042 0.110797 0.224250 0.201825
H33   H     H_    0.110801 0.610953 0.224250 0.201825
H34   H     H_    0.071684 0.806842 0.031967 0.159298
H35   H     H_    0.610952 0.889198 0.224249 0.201825
H36   H     H_    0.389187 0.110941 0.275751 0.201825
H37   H     H_    0.889054 0.389191 0.275750 0.201825
H38   H     H_    0.610808 0.889053 0.275750 0.201825
H39   H     H_    0.110946 0.610809 0.275750 0.201825
H40   H     H_    0.389194 0.889051 0.724249 0.201825
H41   H     H_    0.889055 0.610810 0.724250 0.201825
H42   H     H_    0.610806 0.110948 0.724249 0.201825
H43   H     H_    0.110945 0.389190 0.724249 0.201825
H44   H     H_    0.685944 0.085291 0.152201 0.363604
H45   H     H_    0.193158 0.928321 0.968030 0.159301
H46   H     H_    0.914713 0.685949 0.152200 0.363604
H47   H     H_    0.314051 0.914707 0.152199 0.363604
H48   H     H_    0.085286 0.314051 0.152200 0.363604
H49   H     H_    0.685947 0.914712 0.847800 0.363604
H50   H     H_    0.914714 0.314050 0.847800 0.363604
H51   H     H_    0.314050 0.085288 0.847801 0.363604
H52   H     H_    0.085286 0.685949 0.847800 0.363603
H53   H     H_    0.185954 0.585278 0.652200 0.363603
H54   H     H_    0.414722 0.185952 0.652200 0.363604
H55   H     H_    0.814046 0.414722 0.652200 0.363604
H56   H     H_    0.928316 0.806842 0.968032 0.159299
H57   H     H_    0.585278 0.814046 0.652200 0.363604
H58   H     H_    0.185953 0.414722 0.347800 0.363604
H59   H     H_    0.414725 0.814043 0.347801 0.363604
H60   H     H_    0.814047 0.585278 0.347800 0.363604
H61   H     H_    0.585273 0.185953 0.347799 0.363604
H62   H     H_    0.660480 0.070069 0.056142 0.348181
H63   H     H_    0.929941 0.660485 0.056141 0.348179
H64   H     H_    0.339516 0.929937 0.056140 0.348179
H65   H     H_    0.070058 0.339515 0.056141 0.348178
H66   H     H_    0.660481 0.929933 0.943859 0.348181
H67   H     H_    0.806840 0.071640 0.968012 0.159324
H68   H     H_    0.929942 0.339514 0.943859 0.348179
H69   H     H_    0.339516 0.070061 0.943859 0.348179
H70   H     H_    0.070058 0.660485 0.943859 0.348179
H71   H     H_    0.160487 0.570054 0.556141 0.348177
H72   H     H_    0.429947 0.160487 0.556141 0.348178
H73   H     H_    0.839513 0.429946 0.556141 0.348177
H74   H     H_    0.570049 0.839510 0.556141 0.348176
H75   H     H_    0.160487 0.429946 0.443859 0.348179
H76   H     H_    0.429953 0.839509 0.443860 0.348176
H77   H     H_    0.839513 0.570054 0.443859 0.348178
H78   H     H_    0.071684 0.193158 0.968032 0.159298
H79   H     H_    0.570052 0.160488 0.443858 0.348178
H80   H     H_    0.693158 0.571688 0.531965 0.159295
N1    N     N_R   1.000000 0.500000 0.823555 -0.343748
N2    N     N_R   0.499999 0.000001 0.823555 -0.343749
N3    N     N_R   0.000000 0.500000 0.176444 -0.343749
N4    N     N_R   0.499997 0.999998 0.176445 -0.343749
N5    N     N_R   0.499998 0.999998 0.323555 -0.343749
N6    N     N_R   0.000000 0.500000 0.323555 -0.343749
N7    N     N_R   0.500000 0.999999 0.676444 -0.343748
N8    N     N_R   0.000000 0.500000 0.676445 -0.343749
O1    O     O_R   0.999960 0.091640 0.023680 -0.614330
O2    O     O_R   0.408360 0.499960 0.523680 -0.614329
O3    O     O_R   0.959101 0.629458 0.065219 -0.813578
O4    O     O_2   0.399153 0.874794 0.090924 -0.579863
O5    O     O_R   0.370542 0.959097 0.065218 -0.813578
O6    O     O_2   0.125202 0.399150 0.090925 -0.579862
O7    O     O_R   0.040899 0.370542 0.065219 -0.813578
O8    O     O_2   0.600844 0.874793 0.909074 -0.579859
O9    O     O_R   0.629455 0.959094 0.934781 -0.813595
O10   O     O_2   0.874798 0.399150 0.909075 -0.579862
O11   O     O_R   0.959102 0.370541 0.934781 -0.813577
O12   O     O_2   0.399152 0.125204 0.909076 -0.579862
O13   O     O_R   0.500040 0.408360 0.523680 -0.614330
O14   O     O_R   0.370542 0.040901 0.934782 -0.813579
O15   O     O_2   0.125202 0.600850 0.909075 -0.579862
O16   O     O_R   0.040899 0.629458 0.934781 -0.813578
O17   O     O_2   0.100854 0.625199 0.590925 -0.579862
O18   O     O_R   0.129459 0.540895 0.565218 -0.813578
O19   O     O_2   0.374801 0.100854 0.590925 -0.579862
O20   O     O_R   0.459105 0.129459 0.565219 -0.813580
O21   O     O_2   0.899146 0.374801 0.590925 -0.579863
O22   O     O_R   0.870541 0.459105 0.565218 -0.813577
O23   O     O_2   0.625197 0.899144 0.590924 -0.579864
O24   O     O_R   0.591640 0.500040 0.523680 -0.614329
O25   O     O_R   0.540892 0.870539 0.565218 -0.813568
O26   O     O_2   0.100854 0.374801 0.409075 -0.579862
O27   O     O_R   0.129459 0.459105 0.434781 -0.813577
O28   O     O_2   0.374804 0.899142 0.409076 -0.579864
O29   O     O_R   0.459110 0.870538 0.434782 -0.813569
O30   O     O_2   0.899146 0.625199 0.409075 -0.579862
O31   O     O_R   0.870541 0.540895 0.434781 -0.813578
O32   O     O_2   0.625197 0.100855 0.409074 -0.579862
O33   O     O_R   0.540894 0.129459 0.434781 -0.813580
O34   O     O_R   0.499960 0.408360 0.476320 -0.614329
O35   O     O_R   0.408360 0.500040 0.476320 -0.614328
O36   O     O_R   0.500040 0.591640 0.476320 -0.614323
O37   O     O_R   0.591640 0.499960 0.476320 -0.614328
O38   O     O_R   0.499950 0.051720 0.041990 -0.607986
O39   O     O_R   0.948280 0.499950 0.041990 -0.607987
O40   O     O_R   0.500050 0.948280 0.041990 -0.607990
O41   O     O_R   0.908360 0.999960 0.023680 -0.614339
O42   O     O_R   0.051720 0.500050 0.041990 -0.607988
O43   O     O_R   0.499950 0.948280 0.958010 -0.607985
O44   O     O_R   0.948280 0.500050 0.958010 -0.607987
O45   O     O_R   0.500050 0.051720 0.958010 -0.607990
O46   O     O_R   0.051720 0.499950 0.958010 -0.607987
O47   O     O_R   0.999950 0.551720 0.541990 -0.607988
O48   O     O_R   0.448280 0.999950 0.541990 -0.607985
O49   O     O_R   0.000050 0.448280 0.541990 -0.607987
O50   O     O_R   0.551720 0.000050 0.541990 -0.607989
O51   O     O_R   0.999950 0.448280 0.458010 -0.607986
O52   O     O_R   0.000040 0.908360 0.023680 -0.614330
O53   O     O_R   0.448280 0.000050 0.458010 -0.607988
O54   O     O_R   0.000050 0.551720 0.458010 -0.607987
O55   O     O_R   0.551720 0.999950 0.458010 -0.607985
O56   O     O_R   0.408360 0.051710 0.000060 -0.617000
O57   O     O_R   0.948290 0.408360 0.000060 -0.617000
O58   O     O_R   0.591640 0.948290 0.000060 -0.616992
O59   O     O_R   0.051710 0.591640 0.000060 -0.617001
O60   O     O_R   0.408360 0.948290 0.999940 -0.617000
O61   O     O_R   0.948290 0.591640 0.999940 -0.617000
O62   O     O_R   0.591640 0.051710 0.999940 -0.616992
O63   O     O_R   0.091640 0.000040 0.023680 -0.614331
O64   O     O_R   0.051710 0.408360 0.999940 -0.617001
O65   O     O_R   0.908360 0.551710 0.500060 -0.617001
O66   O     O_R   0.448290 0.908360 0.500060 -0.617007
O67   O     O_R   0.091640 0.448290 0.500060 -0.617001
O68   O     O_R   0.551710 0.091640 0.500060 -0.617001
O69   O     O_R   0.908360 0.448290 0.499940 -0.617001
O70   O     O_R   0.448290 0.091640 0.499940 -0.617000
O71   O     O_R   0.091640 0.551710 0.499940 -0.617002
O72   O     O_R   0.551710 0.908360 0.499940 -0.617007
O73   O     O_2   0.077095 0.422896 0.824187 -0.520309
O74   O     O_R   0.999960 0.908360 0.976320 -0.614329
O75   O     O_2   0.577100 0.077098 0.824187 -0.520310
O76   O     O_2   0.922905 0.577103 0.824187 -0.520309
O77   O     O_2   0.422897 0.922904 0.824187 -0.520309
O78   O     O_2   0.077095 0.577103 0.175813 -0.520309
O79   O     O_2   0.577102 0.922904 0.175813 -0.520310
O80   O     O_2   0.922905 0.422897 0.175813 -0.520310
O81   O     O_2   0.422893 0.077092 0.175814 -0.520309
O82   O     O_2   0.577100 0.922901 0.324186 -0.520308
O83   O     O_2   0.077098 0.577101 0.324187 -0.520308
O84   O     O_2   0.422897 0.077094 0.324187 -0.520308
O85   O     O_R   0.908360 0.000040 0.976320 -0.614338
O86   O     O_2   0.922902 0.422899 0.324187 -0.520308
O87   O     O_2   0.577099 0.077099 0.675813 -0.520308
O88   O     O_2   0.077097 0.422899 0.675813 -0.520308
O89   O     O_2   0.422901 0.922899 0.675813 -0.520308
O90   O     O_2   0.922902 0.577101 0.675813 -0.520308
O91   O     O_2   0.581064 0.099731 0.167740 -0.595249
O92   O     O_R   0.656938 0.060614 0.139623 -0.760712
O93   O     O_2   0.900270 0.581070 0.167739 -0.595251
O94   O     O_R   0.939390 0.656942 0.139622 -0.760707
O95   O     O_2   0.418930 0.900266 0.167738 -0.595249
O96   O     O_R   0.000040 0.091640 0.976320 -0.614329
O97   O     O_R   0.343058 0.939385 0.139621 -0.760708
O98   O     O_2   0.099730 0.418930 0.167739 -0.595250
O99   O     O_R   0.060610 0.343058 0.139622 -0.760707
O100  O     O_2   0.581068 0.900270 0.832261 -0.595248
O101  O     O_R   0.656940 0.939389 0.860377 -0.760713
O102  O     O_2   0.900270 0.418930 0.832261 -0.595250
O103  O     O_R   0.939391 0.343057 0.860378 -0.760707
O104  O     O_2   0.418929 0.099730 0.832261 -0.595249
O105  O     O_R   0.343057 0.060611 0.860378 -0.760709
O106  O     O_2   0.099729 0.581070 0.832261 -0.595250
O107  O     O_R   0.091640 0.999960 0.976320 -0.614330
O108  O     O_R   0.060609 0.656942 0.860378 -0.760707
O109  O     O_2   0.081075 0.599726 0.667739 -0.595249
O110  O     O_R   0.156945 0.560603 0.639622 -0.760706
O111  O     O_2   0.400274 0.081074 0.667739 -0.595251
O112  O     O_R   0.439397 0.156944 0.639622 -0.760706
O113  O     O_2   0.918925 0.400274 0.667739 -0.595250
O114  O     O_R   0.843055 0.439398 0.639622 -0.760707
O115  O     O_2   0.599726 0.918924 0.667738 -0.595250
O116  O     O_R   0.560602 0.843054 0.639622 -0.760704
O117  O     O_2   0.081075 0.400274 0.332261 -0.595249
O118  O     O_R   0.499960 0.591640 0.523680 -0.614324
O119  O     O_R   0.156945 0.439397 0.360378 -0.760708
O120  O     O_2   0.400275 0.918921 0.332262 -0.595250
O121  O     O_R   0.439400 0.843052 0.360379 -0.760705
O122  O     O_2   0.918925 0.599725 0.332261 -0.595250
O123  O     O_R   0.843055 0.560602 0.360378 -0.760708
O124  O     O_2   0.599723 0.081074 0.332261 -0.595250
O125  O     O_R   0.560599 0.156944 0.360377 -0.760708
O126  O     O_2   0.600842 0.125208 0.090926 -0.579860
O127  O     O_R   0.629455 0.040908 0.065219 -0.813594
O128  O     O_2   0.874797 0.600850 0.090925 -0.579862
Zn1   Zn    Zn3+2 0.000000 0.000000 0.031620 1.015843
Zn2   Zn    Zn3+2 0.430930 0.000000 0.500000 1.055802
Zn3   Zn    Zn3+2 0.000000 0.430930 0.500000 1.055803
Zn4   Zn    Zn3+2 0.569070 0.000000 0.500000 1.055801
Zn5   Zn    Zn3+2 0.000000 0.000000 0.968380 1.015843
Zn6   Zn    Zn3+2 0.500000 0.500000 0.531620 1.015853
Zn7   Zn    Zn3+2 0.500000 0.500000 0.468380 1.015853
Zn8   Zn    Zn3+2 0.500000 0.069070 0.000000 1.055805
Zn9   Zn    Zn3+2 0.930930 0.500000 0.000000 1.055804
Zn10  Zn    Zn3+2 0.500000 0.930930 0.000000 1.055805
Zn11  Zn    Zn3+2 0.069070 0.500000 0.000000 1.055803
Zn12  Zn    Zn3+2 0.000000 0.569070 0.500000 1.055802

loop_
_geom_bond_atom_site_label_1
_geom_bond_atom_site_label_2
_ccdc_geom_bond_type
C147  C184  A    
C176  O34   A    
C91   O98   D    
C112  O41   A    
C8    C197  A    
C96   C145  S    
C145  C184  A    
C110  O11   S    
C194  H56   S    
C17   C206  A    
C41   O51   A    
C51   O70   A    
C147  C164  A    
H79   O33   S    
C29   C132  S    
C59   N3    A    
C72   C101  A    
C92   O100  D    
H59   O121  S    
C28   C195  A    
C103  O122  D    
C122  O32   D    
O74   Zn5   S    
C122  C170  S    
C36   O39   A    
C57   C83   A    
C201  H4    S    
C14   H24   S    
C139  C181  A    
C21   C48   S    
C74   C123  A    
C88   O94   S    
C149  C186  A    
C76   C125  A    
C78   C127  A    
C122  O33   S    
C6    H16   S    
C30   C202  A    
C84   C133  A    
O35   Zn7   S    
C8    H18   S    
C51   O68   A    
C114  C161  S    
C126  C129  A    
C33   C203  A    
C10   C200  A    
C193  H45   S    
C111  C160  S    
C17   C43   S    
C83   C131  A    
C52   C72   A    
C18   C44   S    
C152  C170  A    
C65   N7    A    
C81   C129  A    
C204  H7    S    
C66   N8    A    
C189  C206  A    
C119  O26   D    
C150  C168  A    
C44   O64   A    
C166  C177  A    
C22   C49   S    
C90   C131  A    
O70   Zn2   S    
C142  C182  A    
C72   C198  A    
O71   Zn12  S    
C134  H42   S    
O65   Zn12  S    
C2    C71   A    
C119  C167  S    
C120  C168  S    
C34   O40   A    
C70   C79   A    
C87   C136  S    
C37   O43   A    
C36   O42   A    
C69   O90   S    
C99   O115  D    
C130  H39   S    
O107  Zn5   S    
C108  C157  S    
C7    H17   S    
C35   C78   A    
C93   O103  S    
C107  O4    D    
C30   C187  S    
C104  C152  S    
C136  C153  A    
C116  O20   S    
C56   N3    A    
C120  O28   D    
C62   N6    A    
C57   C85   A    
C20   C47   S    
H49   O101  S    
C131  H40   S    
C107  C156  S    
C24   C77   A    
C167  C178  A    
C139  C157  A    
C191  H23   S    
C89   C138  S    
C27   C196  A    
C7    C196  A    
H58   O119  S    
C55   C71   A    
C34   C171  S    
C61   O82   S    
C151  C186  A    
C105  C153  S    
C67   C83   A    
C161  C174  A    
C160  C173  A    
C146  C185  A    
C52   N1    A    
O85   Zn5   S    
O45   Zn8   S    
C25   C51   S    
C97   O111  D    
C2    C57   A    
C5    C20   A    
O67   Zn3   S    
C6    C19   A    
C180  N4    S    
C49   O72   A    
C114  O16   S    
C128  H37   S    
C31   C205  A    
C89   O97   S    
C54   N1    A    
C150  C188  A    
C121  O30   D    
C38   C174  S    
C137  C181  A    
C98   C147  S    
C11   C25   A    
O62   Zn8   S    
H52   O108  S    
C109  O9    S    
C63   N5    A    
C137  C155  A    
C164  C175  A    
C33   C176  S    
C107  O5    S    
C58   C77   A    
C143  O63   A    
C46   C82   A    
C56   O78   S    
C141  C159  A    
C111  O14   S    
C95   O108  S    
C205  H8    S    
O41   Zn1   S    
C103  O123  S    
C85   C134  A    
C38   O44   A    
C208  H11   S    
C120  O29   S    
C109  O8    D    
C11   H21   S    
C34   O38   A    
O38   Zn8   S    
H50   O103  S    
C15   H25   S    
C196  H78   S    
C96   O109  D    
C132  O74   A    
C26   C189  A    
O13   Zn6   S    
C8    C21   A    
C123  H31   S    
C101  C135  A    
C206  H9    S    
C88   C137  S    
C36   C172  S    
C200  H3    S    
C101  H29   S    
C75   C124  A    
C94   C142  S    
O61   Zn9   S    
C183  N1    S    
C39   C175  S    
C16   C205  A    
H70   O16   S    
C162  C175  A    
C80   C128  A    
C40   O50   A    
O1    Zn1   S    
C140  C182  A    
C18   C207  A    
C141  C183  A    
C47   O61   A    
H72   O20   S    
C69   N8    A    
O54   Zn12  S    
C52   O73   S    
C143  O107  A    
C2    C73   A    
C37   O45   A    
C113  H30   S    
C119  O27   S    
C195  H67   S    
C176  O13   A    
O24   Zn6   S    
C26   C143  S    
C28   C191  A    
C133  H41   S    
C31   C154  S    
H47   O97   S    
O43   Zn10  S    
H74   O25   S    
C135  H43   S    
C190  H12   S    
C66   C86   A    
C19   C45   S    
C1    O96   A    
C151  C169  A    
O51   Zn3   S    
C170  C179  A    
C94   O105  S    
C48   O69   A    
C98   O113  D    
C94   O104  D    
C69   C84   A    
C61   C81   A    
C3    C192  A    
H60   O123  S    
C46   C80   A    
C19   C208  A    
C95   O106  D    
C62   O83   S    
H48   O99   S    
C40   C177  S    
C190  C207  A    
C95   C144  S    
C55   N2    A    
C138  C180  A    
C102  O120  D    
C5    C194  A    
O37   Zn7   S    
C105  O127  S    
H77   O31   S    
C63   C78   A    
C106  O128  D    
C87   O92   S    
C144  C161  A    
H71   O18   S    
C148  C166  A    
C116  C163  S    
H76   O29   S    
C149  C167  A    
C152  C188  A    
C31   C199  A    
C43   O56   A    
C28   C112  S    
C1    O1    A    
C50   O67   A    
C124  H32   S    
C117  O22   S    
C138  C156  A    
C73   C113  A    
C44   O57   A    
C115  O18   S    
C6    C195  A    
C64   C80   A    
C155  C172  A    
O118  Zn6   S    
C41   O54   A    
H57   O116  S    
C132  O52   A    
C159  C174  A    
C163  C177  A    
O39   Zn9   S    
C185  N7    S    
C27   C190  A    
O58   Zn10  S    
C106  O3    S    
C103  C151  S    
C58   N4    A    
C62   C82   A    
C144  C183  A    
O60   Zn10  S    
C3    H13   S    
C32   C165  S    
O66   Zn2   S    
C4    C193  A    
C102  O121  S    
C58   O79   S    
C129  H38   S    
C117  C164  S    
C60   O81   S    
O53   Zn2   S    
C192  H34   S    
C45   O62   A    
C110  O10   D    
C68   C84   A    
O49   Zn3   S    
C23   C50   S    
C148  C185  A    
C93   O102  D    
C53   O75   S    
C32   C204  A    
C59   O80   S    
C42   O53   A    
C158  C173  A    
C16   H26   S    
C42   C179  S    
C90   H28   S    
C3    C20   A    
C9    H19   S    
C59   C74   A    
C102  C150  S    
C91   C139  S    
C4    C17   A    
C65   O87   S    
C60   N4    A    
C88   O93   D    
C154  O118  A    
C61   N5    A    
C113  C134  A    
O68   Zn4   S    
C91   O99   S    
C92   C140  S    
C197  H80   S    
C93   C141  S    
H46   O94   S    
C207  H10   S    
C16   C22   A    
C100  O117  D    
O36   Zn7   S    
C54   O76   S    
H64   O5    S    
C24   C75   A    
C12   H22   S    
C100  C149  S    
C168  C179  A    
C118  O23   D    
C60   C75   A    
C64   O86   S    
C199  H2    S    
H63   O3    S    
C32   C200  A    
C189  H1    S    
C13   C46   A    
H55   O114  S    
C4    H14   S    
H73   O22   S    
C202  H5    S    
C186  N6    S    
C53   N2    A    
C79   H27   S    
C108  O7    S    
C13   C74   A    
C67   N7    A    
C126  H35   S    
C181  N3    S    
C26   C193  A    
C77   C126  A    
H66   O9    S    
C121  C169  S    
C99   C148  S    
C56   C76   A    
C68   C86   A    
C97   C146  S    
C203  H6    S    
C48   O65   A    
C96   O110  S    
C99   O116  S    
C184  N8    S    
C15   C204  A    
C35   C81   A    
C67   O89   S    
C92   O101  S    
C71   C90   A    
C112  O85   A    
C89   O95   D    
H68   O11   S    
C157  C172  A    
C55   O77   S    
H69   O14   S    
C116  O19   D    
C9    C22   A    
O64   Zn11  S    
C145  C162  A    
C29   C194  A    
C68   C198  A    
C11   C201  A    
O47   Zn12  S    
C125  C130  A    
O57   Zn9   S    
C54   C70   A    
O42   Zn11  S    
C104  O124  D    
C125  H33   S    
C49   O66   A    
C39   O47   A    
C82   C130  A    
O55   Zn4   S    
O52   Zn1   S    
C188  N5    S    
C140  C158  A    
C187  O37   A    
C15   C23   A    
C10   H20   S    
C100  O119  S    
C187  O24   A    
C109  C158  S    
C50   O71   A    
C97   O112  S    
C66   O88   S    
C111  O12   D    
C79   C133  A    
C24   C35   A    
O48   Zn2   S    
C114  O15   D    
C41   C178  S    
O2    Zn6   S    
C165  O2    A    
C118  O25   S    
C121  O31   S    
C12   C21   A    
C118  C166  S    
H53   O110  S    
C42   O55   A    
O40   Zn10  S    
C154  O36   A    
C98   O114  S    
O59   Zn11  S    
C86   C135  A    
H61   O125  S    
C13   C76   A    
C7    C18   A    
C14   C203  A    
C153  C171  A    
C63   O84   S    
C165  O35   A    
C29   C192  A    
C182  N2    S    
C38   O46   A    
C5    H15   S    
H51   O105  S    
C12   C202  A    
C45   O58   A    
C124  C127  A    
C169  C178  A    
C47   O59   A    
C105  O126  D    
O63   Zn1   S    
C87   O91   D    
O96   Zn5   S    
O56   Zn8   S    
C104  O125  S    
C39   O49   A    
C53   C73   A    
C127  H36   S    
H65   O7    S    
C142  C160  A    
C65   C85   A    
C10   C23   A    
C146  C163  A    
C136  C180  A    
C156  C171  A    
C115  C162  S    
H54   O112  S    
O34   Zn7   S    
C14   C25   A    
C40   O48   A    
C123  C128  A    
O72   Zn4   S    
C117  O21   D    
C33   C201  A    
O46   Zn11  S    
C191  C208  A    
O44   Zn9   S    
C115  O17   D    
H75   O27   S    
C37   C173  S    
C9    C199  A    
C30   C197  A    
C43   O60   A    
H44   O92   S    
C70   C198  A    
C106  C155  S    
O50   Zn4   S    
C1    C27   S    
C64   N6    A    
H62   O127  S    
C110  C159  S    
O69   Zn3   S    
C108  O6    D    
