data_mof_unit_25073.cif
_audit_creation_date              2012-12-10T18:33:33-0500
_audit_creation_method            fapswitch 2.2
_symmetry_space_group_name_H-M    P1
_symmetry_Int_Tables_number       1
_space_group_crystal_system       triclinic
_cell_length_a                    8.72099
_cell_length_b                    15.111151
_cell_length_c                    13.976069
_cell_angle_alpha                 89.73834
_cell_angle_beta                  97.921827
_cell_angle_gamma                 91.636829
_cell_volume                      1823.50381467

loop_
_atom_site_label
_atom_site_type_symbol
_atom_type_description
_atom_site_fract_x
_atom_site_fract_y
_atom_site_fract_z
_atom_type_partial_charge
C1    C     C_R   0.503841 0.329919 0.500750 0.807129
C2    C     C_R   0.499093 0.669435 0.499649 0.803937
C3    C     C_R   0.607288 0.552093 0.117299 -0.299146
C4    C     C_R   0.406532 0.439920 0.883941 -0.301043
C5    C     C_R   0.603516 0.552849 0.217670 0.155087
C6    C     C_R   0.405576 0.441884 0.783148 0.149346
C7    C     C_R   0.395843 0.447720 0.200168 0.159905
C8    C     C_R   0.595097 0.557671 0.798923 0.158537
C9    C     C_R   0.393012 0.448064 0.099247 -0.301461
C10   C     C_R   0.594475 0.559487 0.899527 -0.300160
C11   C     C_R   0.500510 0.499841 0.054743 0.128261
C12   C     C_R   0.500456 0.499766 0.945294 0.129370
C13   C     C_R   0.203965 0.499862 0.475213 0.890869
C14   C     C_R   0.796057 0.500208 0.524796 0.885687
C15   C     C_2   0.037986 0.499632 0.461672 -0.334871
C16   C     C_2   0.962074 0.500504 0.538354 -0.343296
C17   C     C_R   0.575610 0.092815 0.580954 -0.149921
C18   C     C_R   0.369216 0.902973 0.458044 -0.146670
C19   C     C_R   0.578435 0.185346 0.584039 0.166223
C20   C     C_R   0.364423 0.810357 0.458195 0.149174
C21   C     C_R   0.509268 0.232827 0.502102 -0.033126
C22   C     C_R   0.497416 0.765281 0.498472 -0.010461
C23   C     C_R   0.444448 0.186395 0.418832 -0.211083
C24   C     C_R   0.632090 0.812136 0.536898 -0.207027
C25   C     C_R   0.443377 0.094547 0.416855 -0.170931
C26   C     C_R   0.636016 0.903983 0.535778 -0.167331
C27   C     C_R   0.507871 0.047218 0.498067 0.068334
C28   C     C_R   0.504554 0.950012 0.496790 0.064795
Cu1   Cu    Cu3+1 0.500000 0.499990 0.596430 0.962511
Cu2   Cu    Cu3+1 0.500000 0.500010 0.403570 0.965180
H1    H     H_    0.978070 0.498572 0.388121 0.184637
H2    H     H_    0.022039 0.501465 0.611909 0.182097
H3    H     H_    0.624863 0.055925 0.643915 0.133125
H4    H     H_    0.266852 0.938526 0.429208 0.134000
H5    H     H_    0.392891 0.221144 0.355085 0.175449
H6    H     H_    0.734980 0.777467 0.566500 0.163379
H7    H     H_    0.392884 0.060450 0.351540 0.141964
H8    H     H_    0.742255 0.939094 0.564595 0.142666
H9    H     H_    0.695036 0.593071 0.090276 0.130928
H10   H     H_    0.333185 0.390572 0.912307 0.131181
H11   H     H_    0.304590 0.407663 0.057331 0.131118
H12   H     H_    0.668575 0.608469 0.940073 0.131135
N1    N     N_R   0.500000 0.500020 0.258690 -0.217558
N2    N     N_R   0.500000 0.499980 0.741310 -0.217221
O1    O     O_R   0.500010 0.371450 0.581430 -0.581034
O2    O     O_R   0.499990 0.628550 0.418570 -0.581606
O3    O     O_R   0.500010 0.371460 0.418560 -0.588579
O4    O     O_R   0.499990 0.628540 0.581440 -0.582702
O5    O     O_R   0.274840 0.499990 0.562640 -0.579278
O6    O     O_R   0.725160 0.500010 0.437360 -0.579897
O7    O     O_R   0.274840 0.500000 0.399770 -0.585857
O8    O     O_R   0.725160 0.500000 0.600230 -0.590292
C29   C     C_3   0.659577 0.230649 0.673810 -0.819061
H13   H     H_    0.573884 0.262892 0.712918 0.247593
H14   H     H_    0.722721 0.182979 0.724475 0.217827
H15   H     H_    0.745856 0.280586 0.654160 0.236262
C30   C     C_3   0.217402 0.760828 0.417606 -0.845205
H16   H     H_    0.177088 0.717875 0.474374 0.227859
H17   H     H_    0.123225 0.806578 0.391389 0.236330
H18   H     H_    0.238841 0.719072 0.355925 0.245196
C31   C     C_1   0.709933 0.612006 0.275851 0.291731
N3    N     N_1   0.795709 0.659989 0.321919 -0.308874
C32   C     C_1   0.302287 0.381034 0.725157 0.278053
N4    N     N_1   0.218743 0.331877 0.679163 -0.300234
C33   C     C_1   0.284633 0.391401 0.239934 0.282239
N5    N     N_1   0.194254 0.346016 0.270943 -0.316046
C34   C     C_1   0.700279 0.617519 0.758459 0.301269
N6    N     N_1   0.785824 0.665751 0.726869 -0.320416

loop_
_geom_bond_atom_site_label_1
_geom_bond_atom_site_label_2
_ccdc_geom_bond_type
C6    C32   S    
C2    C22   S    
C11   C12   S    
C14   O8    A    
C1    C21   S    
Cu1   Cu2   S    
C7    N1    A    
C7    C33   S    
C18   H4    S    
C9    H11   S    
C13   C15   S    
Cu2   O7    S    
C3    C11   A    
C25   H7    S    
C19   C29   S    
C23   C25   A    
Cu2   O6    S    
C3    C5    A    
C5    C31   S    
C6    N2    A    
C29   H13   S    
C2    O2    A    
C15   H1    S    
C10   H12   S    
C9    C11   A    
C1    O1    A    
C30   H16   S    
C24   H6    S    
C17   H3    S    
C13   O5    A    
C10   C12   A    
C22   C24   A    
C4    C6    A    
C17   C19   A    
C24   C26   A    
C18   C20   A    
C29   H14   S    
Cu1   N2    S    
C5    N1    A    
C31   N3    T    
Cu1   O8    S    
C23   H5    S    
C14   C16   S    
Cu2   N1    S    
C30   H17   S    
C4    C12   A    
C14   O6    A    
Cu1   O4    S    
C3    H9    S    
C34   N6    T    
C17   C27   A    
C8    N2    A    
Cu2   O3    S    
C18   C28   A    
C8    C34   S    
C8    C10   A    
C33   N5    T    
C4    H10   S    
C29   H15   S    
Cu1   O1    S    
C27   C28   S    
C7    C9    A    
C16   H2    S    
C1    O3    A    
C30   H18   S    
Cu1   O5    S    
C2    O4    A    
C20   C30   S    
C13   O7    A    
C26   C28   A    
C21   C23   A    
Cu2   O2    S    
C26   H8    S    
C15   C16   D    
C20   C22   A    
C32   N4    T    
C19   C21   A    
C25   C27   A    
