data_mof_unit_38978.cif
_audit_creation_date              2012-10-26T19:53:25-0400
_audit_creation_method            fapswitch 2.2
_symmetry_space_group_name_H-M    P1
_symmetry_Int_Tables_number       1
_space_group_crystal_system       triclinic
_cell_length_a                    9.117764
_cell_length_b                    7.888098
_cell_length_c                    10.706022
_cell_angle_alpha                 85.31859
_cell_angle_beta                  90.059828
_cell_angle_gamma                 90.624546
_cell_volume                      767.382172866

loop_
_atom_site_label
_atom_site_type_symbol
_atom_type_description
_atom_site_fract_x
_atom_site_fract_y
_atom_site_fract_z
_atom_type_partial_charge
C1    C     C_R   0.220400 0.499714 0.497769 0.582054
C2    C     C_3   0.628497 0.499401 0.052024 0.053058
C3    C     C_3   0.506846 0.480690 0.878893 -0.011015
C4    C     C_3   0.483699 0.517678 0.122273 -0.014843
C5    C     C_1   0.065380 0.499675 0.496755 -0.043786
C6    C     C_1   0.934570 0.501086 0.497257 -0.055779
C7    C     C_2   0.210055 0.501101 0.894916 0.543805
C8    C     C_2   0.774804 0.521118 0.114831 0.582506
C9    C     C_3   0.347625 0.813073 0.021042 -0.261734
C10   C     C_3   0.302289 0.886491 0.888781 -0.398879
C11   C     C_3   0.647111 0.187514 0.972398 -0.271887
C12   C     C_R   0.779606 0.500689 0.498588 0.553535
C13   C     C_3   0.695932 0.102220 0.100183 -0.381524
C14   C     C_3   0.676643 0.769406 0.887913 -0.273241
C15   C     C_3   0.807464 0.701375 0.818988 -0.404025
C16   C     C_3   0.316204 0.236275 0.131484 -0.255901
C17   C     C_3   0.182177 0.175501 0.062284 -0.431203
C18   C     C_R   0.488740 0.506556 0.259501 0.548225
C19   C     C_R   0.507059 0.493266 0.741201 0.570874
C20   C     C_3   0.429926 0.647554 0.016992 -0.022254
C21   C     C_3   0.561706 0.350126 0.985124 -0.026652
C22   C     C_3   0.575126 0.627624 0.946385 -0.022479
C23   C     C_3   0.414359 0.369525 0.055559 -0.017698
C24   C     C_3   0.361668 0.499868 0.950254 0.070804
Cu1   Cu    Cu3+1 0.500000 0.669080 0.500000 1.014405
Cu2   Cu    Cu3+1 0.500000 0.330920 0.500000 1.013650
H1    H     H_    0.075430 0.428151 0.760124 0.319194
H2    H     H_    0.813226 0.066523 0.095840 0.173757
H3    H     H_    0.577813 0.099748 0.922785 0.133978
H4    H     H_    0.745272 0.219833 0.913411 0.159993
H5    H     H_    0.851159 0.584706 0.869373 0.204079
H6    H     H_    0.775489 0.670509 0.724156 0.166749
H7    H     H_    0.895848 0.799566 0.809397 0.157654
H8    H     H_    0.614162 0.857582 0.822425 0.163807
H9    H     H_    0.720605 0.840622 0.964096 0.177993
H10   H     H_    0.143732 0.050495 0.105530 0.132814
H11   H     H_    0.204740 0.168979 0.961968 0.181417
H12   H     H_    0.904392 0.668507 0.214970 0.337708
H13   H     H_    0.091366 0.264868 0.070350 0.238717
H14   H     H_    0.384218 0.127928 0.167509 0.157408
H15   H     H_    0.271181 0.292901 0.214713 0.174481
H16   H     H_    0.330341 0.803410 0.814274 0.192228
H17   H     H_    0.181777 0.904902 0.884660 0.162868
H18   H     H_    0.358151 0.009635 0.863329 0.140558
H19   H     H_    0.249261 0.788446 0.081022 0.176473
H20   H     H_    0.418581 0.904112 0.064819 0.139642
H21   H     H_    0.682351 0.185235 0.177870 0.204551
H22   H     H_    0.632160 0.984973 0.126404 0.150645
N1    N     N_1   0.500000 0.076820 0.500000 -0.096330
N2    N     N_1   0.500000 0.923180 0.500000 -0.095353
O1    O     O_R   0.288390 0.642760 0.500000 -0.496192
O2    O     O_R   0.183234 0.426576 0.783293 -0.707643
O3    O     O_2   0.869357 0.414141 0.109614 -0.545361
O4    O     O_R   0.802167 0.666631 0.177725 -0.704658
O5    O     O_R   0.711610 0.357240 0.500000 -0.494843
O6    O     O_R   0.711610 0.642760 0.500000 -0.497342
O7    O     O_R   0.288390 0.357240 0.500000 -0.485509
O8    O     O_R   0.499960 0.642760 0.316850 -0.483517
O9    O     O_R   0.500040 0.357240 0.683150 -0.489794
O10   O     O_R   0.500040 0.642760 0.683150 -0.520885
O11   O     O_R   0.499960 0.357240 0.316850 -0.531065
O12   O     O_2   0.109482 0.562075 0.950964 -0.538234

loop_
_geom_bond_atom_site_label_1
_geom_bond_atom_site_label_2
_ccdc_geom_bond_type
C8    O3    D    
C14   H8    S    
C13   H22   S    
C2    C4    S    
C23   C24   S    
Cu1   O1    S    
C7    O12   D    
C15   H5    S    
C17   H10   S    
C1    O7    A    
C19   O10   A    
C10   H16   S    
C11   C13   S    
C9    C10   S    
C9    C20   S    
H12   O4    S    
Cu1   O6    S    
C4    C18   S    
Cu2   O5    S    
C14   C22   S    
C2    C21   S    
C10   H17   S    
C15   H6    S    
C13   H2    S    
C17   H11   S    
C2    C22   S    
C3    C19   S    
C1    O1    A    
C3    C24   S    
C12   O6    A    
C16   H14   S    
C1    C5    S    
C9    H19   S    
Cu1   O10   S    
Cu2   O11   S    
C20   C22   S    
C7    O2    S    
C16   C23   S    
C21   C23   S    
C6    C12   S    
C5    C6    T    
Cu2   O7    S    
C3    C21   S    
C12   O5    A    
Cu1   O8    S    
C10   H18   S    
C7    C24   S    
C4    C20   S    
C9    H20   S    
H1    O2    S    
C11   H3    S    
N1    N2    T    
Cu2   O9    S    
Cu2   N1    S    
C8    O4    S    
C14   H9    S    
C13   H21   S    
C4    C23   S    
C17   H13   S    
C14   C15   S    
C16   C17   S    
C3    C22   S    
C19   O9    A    
Cu1   Cu2   S    
Cu1   N2    S    
C16   H15   S    
C11   C21   S    
C18   O11   A    
C2    C8    S    
C20   C24   S    
C11   H4    S    
C15   H7    S    
C18   O8    A    
