data_mof_unit_5593.cif
_audit_creation_date              2012-12-11T14:29:27-0500
_audit_creation_method            fapswitch 2.2
_symmetry_space_group_name_H-M    P1
_symmetry_Int_Tables_number       1
_space_group_crystal_system       triclinic
_cell_length_a                    6.937991
_cell_length_b                    14.662843
_cell_length_c                    16.324804
_cell_angle_alpha                 90.379151
_cell_angle_beta                  89.948969
_cell_angle_gamma                 90.087866
_cell_volume                      1660.69433516

loop_
_atom_site_label
_atom_site_type_symbol
_atom_type_description
_atom_site_fract_x
_atom_site_fract_y
_atom_site_fract_z
_atom_type_partial_charge
O1    O     O_R   0.494400 0.416610 0.413880 -0.542037
O2    O     O_R   0.823920 0.406790 0.585520 -0.543192
O3    O     O_R   0.994250 0.583390 0.586120 -0.539616
C1    C     C_R   0.654639 0.385213 0.613650 0.748957
O4    O     O_R   0.824110 0.405730 0.414490 -0.539813
O5    O     O_R   0.994440 0.582310 0.413870 -0.533408
C2    C     C_R   0.654571 0.381972 0.388010 0.750153
O6    O     O_R   0.494210 0.417690 0.586130 -0.541082
O7    O     O_3   0.660810 0.557940 0.500000 -0.370364
V1    V     V_3+5 0.935650 0.489250 0.500000 1.398237
O8    O     O_R   0.324160 0.593210 0.414480 -0.550014
C3    C     C_R   0.154595 0.618121 0.388523 0.742836
O9    O     O_R   0.323970 0.594270 0.585510 -0.537577
C4    C     C_R   0.154928 0.617256 0.613112 0.692338
V2    V     V_3+5 0.435660 0.510750 0.500000 1.392537
O10   O     O_3   0.160630 0.442060 0.500000 -0.371060
C5    C     C_R   0.002941 0.567570 0.772077 -0.140121
C6    C     C_R   0.926775 0.541298 0.847284 -0.126359
C7    C     C_R   0.913720 0.603893 0.911229 -0.123129
C8    C     C_R   0.976995 0.693219 0.900513 -0.138593
C9    C     C_R   0.052597 0.722469 0.824456 0.067567
C10   C     C_R   0.065474 0.658326 0.758608 0.071662
C11   C     C_R   0.120506 0.813004 0.814236 -0.176791
C12   C     C_R   0.202295 0.839055 0.738112 0.072866
C13   C     C_R   0.211172 0.775810 0.671521 0.044922
C14   C     C_R   0.143974 0.684867 0.681847 -0.174951
C15   C     C_R   0.274153 0.928347 0.726592 -0.194313
C16   C     C_R   0.355677 0.954522 0.652752 -0.129341
C17   C     C_R   0.357211 0.894888 0.585774 0.198411
C18   C     C_R   0.284652 0.806041 0.595259 -0.191072
H1    H     H_    0.879310 0.471675 0.856185 0.119532
H2    H     H_    0.967883 0.738402 0.952965 0.107051
H3    H     H_    0.268814 0.979719 0.774252 0.126074
H4    H     H_    0.287683 0.760848 0.542627 0.098406
C19   C     C_2   0.987521 0.739359 0.301838 0.143434
C20   C     C_2   0.148109 0.694745 0.328554 -0.382018
H5    H     H_    0.287567 0.720035 0.308425 0.120572
C21   C     C_2   0.006347 0.820147 0.245986 0.146599
C22   C     C_2   0.114513 0.814296 0.176836 -0.367933
H6    H     H_    0.200589 0.753741 0.165304 0.105621
C23   C     C_2   0.779766 0.210008 0.782923 -0.128327
C24   C     C_2   0.614306 0.180015 0.816964 -0.317299
H7    H     H_    0.916145 0.183421 0.804918 0.136195
C25   C     C_2   0.791705 0.278560 0.715980 -0.144821
C26   C     C_2   0.638150 0.317699 0.680080 -0.310945
C27   C     C_2   0.761580 0.203103 0.219694 -0.180950
C28   C     C_2   0.619210 0.197170 0.162732 0.004803
H8    H     H_    0.870443 0.149956 0.221547 0.119435
C29   C     C_2   0.785230 0.277682 0.281065 -0.144357
C30   C     C_2   0.637062 0.308468 0.326388 -0.338790
H9    H     H_    0.930145 0.302390 0.293132 0.142283
H10   H     H_    0.494686 0.279035 0.317368 0.136822
O11   O     O_R   0.770210 0.079270 0.910680 -0.535378
O12   O     O_R   0.440150 0.091160 0.082270 -0.541089
O13   O     O_R   0.269970 0.914530 0.082860 -0.536241
C31   C     C_R   0.609335 0.115985 0.108014 0.718268
O14   O     O_R   0.440480 0.090100 0.911240 -0.551526
O15   O     O_R   0.270310 0.913460 0.910610 -0.537153
C32   C     C_R   0.609246 0.111919 0.883269 0.742839
O16   O     O_R   0.769870 0.080340 0.082930 -0.549069
O17   O     O_3   0.603660 0.938980 0.996790 -0.367155
V3    V     V_3+5 0.328750 0.007610 0.996740 1.399591
O18   O     O_R   0.940600 0.902510 0.911180 -0.538757
C33   C     C_R   0.109574 0.880260 0.883130 0.695888
O19   O     O_R   0.940270 0.903570 0.082200 -0.546638
C34   C     C_R   0.108488 0.883085 0.111094 0.743091
V4    V     V_3+5 0.828770 0.986010 0.996670 1.407391
O20   O     O_3   0.103730 0.054750 0.996710 -0.373106
C35   C     C_3   0.442874 0.924784 0.505134 -0.377642
C36   C     C_3   0.364547 0.016683 0.476589 -0.770631
H11   H     H_    0.204910 0.017991 0.480730 0.238068
H12   H     H_    0.424284 0.073260 0.514298 0.220243
H13   H     H_    0.408933 0.028508 0.412164 0.217971
H14   H     H_    0.601747 0.930366 0.512019 0.183641
H15   H     H_    0.411786 0.873358 0.456600 0.178242
C37   C     C_3   0.901326 0.907944 0.269620 -0.316186
C38   C     C_3   0.000037 0.953865 0.342268 -0.797702
H16   H     H_    0.915354 0.014292 0.362202 0.217899
H17   H     H_    0.013427 0.906403 0.394629 0.243701
H18   H     H_    0.146159 0.976800 0.323727 0.229549
H19   H     H_    0.897918 0.958912 0.219995 0.176079
H20   H     H_    0.748306 0.893973 0.284531 0.170448
H21   H     H_    0.476047 0.205335 0.796682 0.125571
H22   H     H_    0.935570 0.297010 0.695615 0.133665
H23   H     H_    0.493066 0.300726 0.699074 0.128536
C39   C     C_3   0.476311 0.273988 0.146480 -0.342464
C40   C     C_3   0.489327 0.307488 0.058073 -0.762731
H24   H     H_    0.639295 0.328720 0.043637 0.222392
H25   H     H_    0.443551 0.253565 0.014204 0.227560
H26   H     H_    0.392751 0.367090 0.050009 0.212225
H27   H     H_    0.327650 0.249316 0.158840 0.175521
H28   H     H_    0.501562 0.334767 0.185404 0.198953
H29   H     H_    0.013923 0.515334 0.725289 0.113365
H30   H     H_    0.856132 0.582889 0.969816 0.111330
H31   H     H_    0.414432 0.022680 0.647807 0.124671
C41   C     C_3   0.784047 0.712209 0.326595 -0.298422
C42   C     C_3   0.732222 0.747592 0.412164 -0.688110
H32   H     H_    0.838348 0.725999 0.458861 0.230799
H33   H     H_    0.727392 0.822884 0.412453 0.196584
H34   H     H_    0.587579 0.722243 0.429824 0.214719
H35   H     H_    0.678464 0.740752 0.282553 0.139835
H36   H     H_    0.762591 0.637439 0.321600 0.182324

loop_
_geom_bond_atom_site_label_1
_geom_bond_atom_site_label_2
_ccdc_geom_bond_type
O15   V3    S    
C40   H24   S    
C41   H36   S    
C23   C24   D    
O2    C1    A    
C7    C8    A    
C12   C15   A    
C1    O6    A    
O13   C34   A    
C42   H32   S    
O11   C32   A    
O14   V3    S    
C21   C37   S    
C38   H16   S    
C15   H3    S    
C27   C29   S    
C16   H31   S    
C16   C17   A    
C39   H27   S    
O5    C3    A    
C21   C22   D    
O14   C32   A    
V2    O10   S    
O13   V3    S    
C6    C7    A    
O8    V2    S    
C19   C20   D    
O16   V4    S    
O19   V4    S    
C30   H10   S    
C11   C12   A    
C36   H11   S    
O1    V2    S    
C3    C20   S    
O7    V1    S    
O9    C4    A    
C23   H7    S    
C35   C36   S    
C42   H33   S    
C17   C35   S    
C1    C26   S    
C38   H17   S    
O15   C33   A    
O18   V4    S    
C18   H4    S    
V4    O20   S    
C28   C39   S    
C19   C21   S    
C41   H35   S    
C12   C13   A    
C37   H20   S    
C22   H6    S    
O4    C2    A    
C39   C40   S    
O12   V3    S    
C29   H9    S    
C13   C14   A    
C19   C41   S    
C31   O16   A    
C37   H19   S    
C26   H23   S    
C17   C18   A    
O17   V4    S    
C41   C42   S    
C36   H13   S    
C5    C6    A    
C35   H14   S    
C4    C14   S    
O3    C4    A    
C7    H30   S    
C11   C33   S    
O19   C34   A    
O6    V2    S    
C9    C11   A    
C22   C34   S    
C5    H29   S    
O2    V1    S    
C42   H34   S    
C25   C26   D    
C8    H2    S    
C38   H18   S    
C13   C18   A    
C27   C28   D    
C20   H5    S    
O1    C2    A    
C24   H21   S    
C2    C30   S    
C25   H22   S    
C24   C32   S    
O5    V1    S    
C36   H12   S    
O8    C3    A    
O12   C31   A    
C5    C10   A    
V3    O20   S    
O9    V2    S    
O7    V2    S    
O4    V1    S    
O3    V1    S    
C39   H28   S    
C37   C38   S    
C23   C25   S    
C35   H15   S    
O17   V3    S    
O11   V4    S    
O18   C33   A    
C27   H8    S    
C8    C9    A    
C29   C30   D    
C10   C14   A    
C40   H26   S    
C15   C16   A    
C40   H25   S    
V1    O10   S    
C6    H1    S    
C9    C10   A    
C28   C31   S    
