data_mof_unit_45715.cif
_audit_creation_date              2013-03-05T15:52:48-0500
_audit_creation_method            fapswitch 2.2
_symmetry_space_group_name_H-M    P1
_symmetry_Int_Tables_number       1
_space_group_crystal_system       triclinic
_cell_length_a                    6.934859
_cell_length_b                    14.864614
_cell_length_c                    21.348925
_cell_angle_alpha                 74.014337
_cell_angle_beta                  90.181373
_cell_angle_gamma                 90.742381
_cell_volume                      2115.4539313

loop_
_atom_site_label
_atom_site_type_symbol
_atom_site_description
_atom_site_fract_x
_atom_site_fract_y
_atom_site_fract_z
_atom_type_partial_charge
O1    O     O_R   0.648150 0.130050 0.214300 -0.595789
O2    O     O_R   0.351850 0.869950 0.785700 -0.598724
O3    O     O_R   0.320490 0.006660 0.340150 -0.614595
O4    O     O_R   0.679510 0.993340 0.659850 -0.613131
O5    O     O_R   0.146100 0.869940 0.285700 -0.595169
O6    O     O_R   0.853900 0.130060 0.714300 -0.594120
C1    C     C_R   0.488891 0.001243 0.367157 0.954115
C2    C     C_R   0.510685 0.996788 0.633297 0.950917
O7    O     O_R   0.318690 0.137980 0.218120 -0.594733
O8    O     O_R   0.681310 0.862020 0.781880 -0.599493
O9    O     O_R   0.144280 0.002190 0.162800 -0.594443
O10   O     O_R   0.855720 0.997810 0.837200 -0.592670
C3    C     C_R   0.488152 0.175536 0.203995 0.977080
C4    C     C_R   0.511127 0.824306 0.793335 0.979448
O11   O     O_R   0.649960 0.997790 0.337200 -0.587690
O12   O     O_R   0.350040 0.002210 0.662800 -0.594759
O13   O     O_3   0.479300 0.955290 0.231990 -0.278141
O14   O     O_3   0.520700 0.044710 0.768010 -0.274299
V1    V     V_3+5 0.206040 0.008290 0.253340 1.153132
V2    V     V_3+5 0.793960 0.991710 0.746660 1.153576
O15   O     O_R   0.814320 0.993320 0.159850 -0.602635
O16   O     O_R   0.185680 0.006680 0.840150 -0.598070
C5    C     C_R   0.982754 0.998696 0.132776 0.900590
C6    C     C_R   0.017259 0.000835 0.867390 0.901493
O17   O     O_R   0.816120 0.862000 0.281880 -0.594408
O18   O     O_R   0.183880 0.138000 0.718120 -0.593623
C7    C     C_R   0.983781 0.824287 0.293033 0.933180
C8    C     C_R   0.016208 0.175501 0.705993 0.936491
V3    V     V_3+5 0.705540 0.991700 0.246660 1.160467
V4    V     V_3+5 0.294460 0.008300 0.753340 1.157164
O19   O     O_3   0.982150 0.044700 0.268010 -0.276443
O20   O     O_3   0.017850 0.955300 0.731990 -0.282811
C9    C     C_R   0.985080 0.722684 0.319571 -0.096244
C10   C     C_R   0.014188 0.276703 0.678373 -0.092581
C11   C     C_R   0.883062 0.570627 0.311017 -0.173716
C12   C     C_R   0.108874 0.429532 0.686566 -0.177405
C13   C     C_R   0.913475 0.665761 0.282380 -0.173080
C14   C     C_R   0.078595 0.334700 0.715718 -0.172351
C15   C     C_R   0.029751 0.684166 0.385254 -0.248256
C16   C     C_R   0.974417 0.313966 0.612085 -0.252827
C17   C     C_R   0.996428 0.587961 0.416025 0.104089
C18   C     C_R   0.006676 0.410156 0.580998 0.106548
C19   C     C_R   0.918958 0.531870 0.377666 0.189312
C20   C     C_R   0.080243 0.466909 0.619444 0.194461
C21   C     C_R   0.028775 0.546811 0.483975 0.068800
C22   C     C_R   0.976086 0.450957 0.512877 0.067355
C23   C     C_R   0.893575 0.399329 0.472856 -0.204060
C24   C     C_R   0.111398 0.598421 0.524006 -0.202428
C25   C     C_R   0.869867 0.438565 0.406492 -0.243317
C26   C     C_R   0.132436 0.559593 0.590431 -0.257583
H1    H     H_    0.806715 0.395990 0.377834 0.134237
H2    H     H_    0.196098 0.601834 0.619116 0.146356
H3    H     H_    0.930988 0.264867 0.585662 0.111707
H4    H     H_    0.077650 0.732609 0.411586 0.110395
H5    H     H_    0.110890 0.305959 0.767000 0.102041
H6    H     H_    0.875857 0.695604 0.231652 0.104821
H7    H     H_    0.824404 0.527927 0.281590 0.110498
H8    H     H_    0.160564 0.473291 0.716099 0.112714
H9    H     H_    0.842117 0.328362 0.491474 0.132324
H10   H     H_    0.163634 0.669273 0.505594 0.132591
C27   C     C_3   0.877792 0.934422 0.989625 -0.123130
C28   C     C_3   0.122315 0.064205 0.010980 -0.129112
C29   C     C_3   0.049179 0.914785 0.038151 -0.157923
C30   C     C_3   0.950896 0.084199 0.962488 -0.150935
H11   H     H_    0.089538 0.845351 0.070344 0.111905
H12   H     H_    0.910911 0.154246 0.931075 0.106080
H13   H     H_    0.777029 0.880731 0.980524 0.103962
H14   H     H_    0.226029 0.115477 0.021477 0.109556
C31   C     C_3   0.991156 0.998927 0.062284 -0.077820
C32   C     C_3   0.008770 0.999985 0.938160 -0.082632
C33   C     C_3   0.819540 0.018710 0.014625 -0.091137
C34   C     C_3   0.180374 0.980070 0.985915 -0.095070
H15   H     H_    0.670447 0.034617 0.026707 0.105397
H16   H     H_    0.329432 0.964001 0.973906 0.110698
C35   C     C_3   0.677573 0.019473 0.474533 -0.189032
C36   C     C_3   0.320987 0.975819 0.526725 -0.190481
C37   C     C_3   0.555315 0.082904 0.506028 -0.201726
C38   C     C_3   0.442867 0.912579 0.495005 -0.200771
H17   H     H_    0.598801 0.153104 0.510336 0.116637
H18   H     H_    0.399069 0.842457 0.490629 0.117082
H19   H     H_    0.824479 0.035385 0.453729 0.135018
H20   H     H_    0.174268 0.959669 0.547702 0.135194
C39   C     C_3   0.502474 0.996465 0.563182 -0.190340
C40   C     C_3   0.496004 0.999205 0.437865 -0.196575
C41   C     C_3   0.621605 0.934496 0.531605 0.284334
C42   C     C_3   0.376388 0.060731 0.469696 0.284342
C43   C     C_R   0.497315 0.277440 0.175098 -0.176773
C44   C     C_R   0.494306 0.722583 0.819414 -0.163329
C45   C     C_R   0.523633 0.434681 0.186133 -0.244859
C46   C     C_R   0.414642 0.569784 0.806832 -0.251826
C47   C     C_R   0.534752 0.338041 0.213770 0.179789
C48   C     C_R   0.451598 0.665190 0.778668 0.178383
C49   C     C_R   0.460597 0.314109 0.108305 -0.264667
C50   C     C_R   0.500811 0.684177 0.886987 -0.258898
C51   C     C_R   0.443324 0.411790 0.079593 0.116458
C52   C     C_R   0.442781 0.590453 0.916277 0.110400
C53   C     C_R   0.475810 0.471595 0.120227 0.151072
C54   C     C_R   0.405004 0.532827 0.874804 0.153526
C55   C     C_R   0.404851 0.452593 0.011584 -0.023532
C56   C     C_R   0.426600 0.551700 0.985328 -0.023724
C57   C     C_R   0.421619 0.608310 0.029287 0.187086
C58   C     C_R   0.340722 0.399946 0.968621 0.181990
C59   C     C_R   0.455746 0.568004 0.095423 -0.325343
C60   C     C_R   0.349460 0.439733 0.901180 -0.320442
H21   H     H_    0.461948 0.612390 0.128106 0.133606
H22   H     H_    0.305300 0.398183 0.868937 0.132075
H23   H     H_    0.551617 0.729312 0.915536 0.139833
H24   H     H_    0.452864 0.264554 0.079852 0.140383
H25   H     H_    0.550892 0.481039 0.216578 0.123432
H26   H     H_    0.388232 0.524923 0.775461 0.117486
N1    N     N_2   0.756084 0.865260 0.567155 -0.110411
H27   H     H_    0.853029 0.891667 0.594427 0.180535
C61   C     C_3   0.847708 0.811008 0.529194 -0.965391
H28   H     H_    0.940737 0.757665 0.561553 0.259632
H29   H     H_    0.938738 0.856994 0.490278 0.243461
H30   H     H_    0.737746 0.774244 0.507036 0.265177
N2    N     N_2   0.238593 0.128709 0.435034 -0.118939
H31   H     H_    0.140895 0.101443 0.408494 0.179433
C62   C     C_3   0.148049 0.182746 0.473345 -0.973693
H32   H     H_    0.052368 0.235153 0.441400 0.260563
H33   H     H_    0.258521 0.220591 0.494475 0.266839
H34   H     H_    0.060008 0.136463 0.513030 0.246884
N3    N     N_2   0.453113 0.701867 0.709565 -0.121557
H35   H     H_    0.505437 0.655371 0.685884 0.176454
C63   C     C_3   0.272448 0.741881 0.681691 -0.960350
H36   H     H_    0.284851 0.765012 0.627716 0.245482
H37   H     H_    0.236465 0.803976 0.698210 0.283721
H38   H     H_    0.153295 0.689392 0.695636 0.250797
N4    N     N_2   0.589718 0.302110 0.279998 -0.123743
H39   H     H_    0.711064 0.335034 0.291509 0.159278
C64   C     C_3   0.435041 0.298156 0.325843 -0.928427
H40   H     H_    0.382816 0.369680 0.322641 0.254510
H41   H     H_    0.488947 0.266599 0.376007 0.261075
H42   H     H_    0.313755 0.254488 0.315900 0.266686
N5    N     N_2   0.361406 0.703324 0.009033 -0.119763
H43   H     H_    0.400587 0.743357 0.039672 0.156702
C65   C     C_3   0.162110 0.716136 0.988283 -0.918797
H44   H     H_    0.138063 0.791049 0.963491 0.244229
H45   H     H_    0.064623 0.693374 0.031097 0.244696
H46   H     H_    0.125715 0.675974 0.952940 0.265198
N6    N     N_2   0.244254 0.311880 0.991733 -0.123340
H47   H     H_    0.245483 0.271586 0.959378 0.155587
C66   C     C_3   0.053562 0.316816 0.017981 -0.911030
H48   H     H_    0.993277 0.245051 0.037768 0.239493
H49   H     H_    0.956115 0.356859 0.979066 0.250714
H50   H     H_    0.059392 0.350750 0.058252 0.266343

loop_
_geom_bond_atom_site_label_1
_geom_bond_atom_site_label_2
_geom_bond_distance
_ccdc_geom_bond_type
C27   C32   1.541309 S    
C66   H50   1.110562 S    
C29   H11   1.109727 S    
O11   V3    1.998745 S    
C43   C47   1.400967 A    
C2    C39   1.499113 S    
O13   V3    1.709045 S    
C5    C31   1.505298 S    
N1    H27   1.030346 S    
O4    C2    1.294624 A    
C64   H42   1.111059 S    
V1    O19   1.708780 S    
C60   H22   1.084904 S    
C6    C32   1.508751 S    
N3    H35   1.032015 S    
C23   C25   1.385782 A    
C21   C22   1.431102 A    
C7    C9    1.459812 S    
C65   H45   1.111136 S    
O9    V1    2.004538 S    
C9    C15   1.396351 A    
C52   C56   1.431514 A    
C10   C16   1.398324 A    
C11   C13   1.391006 A    
C36   C38   1.559330 S    
N4    H39   1.030692 S    
O3    C1    1.294354 A    
N2    C62   1.444498 S    
C49   H24   1.076892 S    
C38   H18   1.110271 S    
C35   C40   1.550118 S    
N3    C63   1.448189 S    
C15   H4    1.077258 S    
C37   C39   1.549552 S    
C51   C55   1.436609 A    
O12   V4    1.998745 S    
C66   H48   1.110205 S    
C45   H25   1.084226 S    
C27   C29   1.551040 S    
C18   C22   1.429484 A    
C30   C33   1.550159 S    
C31   C33   1.541017 S    
O7    C3    1.294674 A    
C28   C30   1.550854 S    
O13   V1    2.159041 S    
O5    C7    1.294196 A    
C13   H6    1.083654 S    
C35   C41   1.540571 S    
O6    C8    1.292372 A    
C14   H5    1.083783 S    
C29   C31   1.536539 S    
O8    V2    2.014533 S    
C25   H1    1.082131 S    
C52   C54   1.413068 A    
C63   H38   1.112250 S    
C26   H2    1.080305 S    
O3    V1    2.007911 S    
O14   V4    1.709044 S    
C58   N6    1.424183 S    
C30   C32   1.539580 S    
C45   C47   1.397648 A    
C11   C19   1.403011 A    
C61   H30   1.110528 S    
C27   C33   1.549396 S    
C16   C18   1.415952 A    
C1    C40   1.502156 S    
C8    C10   1.456994 S    
C2    O12   1.295783 A    
C17   C19   1.419903 A    
C3    C43   1.470434 S    
C18   C20   1.418869 A    
C36   C39   1.548984 S    
O7    V1    2.014534 S    
C24   H10   1.076073 S    
C57   N5    1.426115 S    
O17   V3    2.026475 S    
C65   H46   1.110156 S    
C44   C50   1.398464 A    
C50   H23   1.078657 S    
C44   C48   1.404563 A    
N5    H43   1.031952 S    
C34   H16   1.110458 S    
O8    C4    1.294648 A    
C48   N3    1.425048 S    
C36   H20   1.109407 S    
C33   H15   1.110443 S    
C35   H19   1.108992 S    
C1    O11   1.297463 A    
C41   N1    1.447435 S    
O15   V3    1.997046 S    
C9    C13   1.396284 A    
C28   C31   1.538364 S    
C45   C53   1.402603 A    
C30   H12   1.110174 S    
C58   C60   1.398948 A    
C27   H13   1.110453 S    
C46   C48   1.400107 A    
C55   C56   1.430798 A    
O10   V2    2.004538 S    
O1    V3    2.025307 S    
C66   H49   1.111612 S    
C37   H17   1.110314 S    
C28   C34   1.547754 S    
N1    C61   1.444767 S    
C50   C52   1.414613 A    
C24   C26   1.384014 A    
C35   C37   1.559958 S    
C53   C59   1.392923 A    
C62   H33   1.110541 S    
C47   N4    1.419705 S    
C38   C41   1.541665 S    
C39   C41   1.533219 S    
C37   C42   1.540793 S    
O18   V4    2.026475 S    
O15   C5    1.296635 A    
C63   H36   1.111330 S    
C59   H21   1.084733 S    
O16   C6    1.297600 A    
C12   C20   1.401456 A    
O1    C3    1.293310 A    
O2    V4    2.025308 S    
C46   H26   1.081117 S    
C64   H40   1.111741 S    
C36   C42   1.538518 S    
C61   H28   1.109454 S    
V2    O20   1.708781 S    
C21   C24   1.412036 A    
C20   C26   1.389698 A    
N5    C65   1.448838 S    
C22   C23   1.411759 A    
O16   V4    1.997041 S    
C10   C14   1.394526 A    
O18   C8    1.290436 A    
C19   C25   1.391831 A    
C40   C42   1.533584 S    
C64   H41   1.109961 S    
C62   H32   1.109122 S    
C51   C53   1.418419 A    
O5    V1    2.019024 S    
O17   C7    1.290136 A    
O6    V2    2.019025 S    
C65   H44   1.107967 S    
O10   C6    1.297107 A    
C12   H8    1.080536 S    
C28   H14   1.107814 S    
C11   H7    1.083675 S    
N6    C66   1.448460 S    
C4    C44   1.463598 S    
V3    O19   2.158980 S    
N6    H47   1.031492 S    
C12   C14   1.388692 A    
V4    O20   2.158979 S    
C49   C51   1.418514 A    
C54   C60   1.392389 A    
C43   C49   1.403027 A    
O9    C5    1.296374 A    
C56   C57   1.423353 A    
C62   H34   1.111417 S    
C42   N2    1.445848 S    
O14   V2    2.159040 S    
O2    C4    1.290089 A    
C23   H9    1.076259 S    
O4    V2    2.007914 S    
C38   C40   1.551551 S    
C55   C58   1.426620 A    
C29   C34   1.549393 S    
C15   C17   1.415958 A    
C57   C59   1.394329 A    
C16   H3    1.077758 S    
C63   H37   1.106534 S    
C17   C21   1.428858 A    
C32   C34   1.542242 S    
C61   H29   1.111467 S    
N2    H31   1.030180 S    
C46   C54   1.404500 A    
N4    C64   1.444068 S    
