data_mof_unit_40917.cif
_audit_creation_date              2012-12-11T15:17:53-0500
_audit_creation_method            fapswitch 2.2
_symmetry_space_group_name_H-M    P1
_symmetry_Int_Tables_number       1
_space_group_crystal_system       triclinic
_cell_length_a                    15.744844
_cell_length_b                    15.744686
_cell_length_c                    34.371612
_cell_angle_alpha                 90.009392
_cell_angle_beta                  90.009312
_cell_angle_gamma                 120.006499
_cell_volume                      7378.60785974

loop_
_atom_site_label
_atom_site_type_symbol
_atom_type_description
_atom_site_fract_x
_atom_site_fract_y
_atom_site_fract_z
_atom_type_partial_charge
C1    C     C_R   0.577659 0.442116 0.554655 0.583220
C2    C     C_R   0.558021 0.135866 0.554791 0.528298
C3    C     C_R   0.864474 0.422366 0.554652 0.581496
C4    C     C_R   0.442115 0.577659 0.054655 0.583236
C5    C     C_R   0.135870 0.558019 0.054794 0.528390
C6    C     C_R   0.422365 0.864475 0.054652 0.581512
C7    C     C_R   0.988223 0.502704 0.711629 0.321959
C8    C     C_R   0.497626 0.485558 0.711675 0.321997
C9    C     C_R   0.513915 0.010087 0.711618 0.315087
C10   C     C_R   0.502647 0.988215 0.211632 0.321954
C11   C     C_R   0.485560 0.497622 0.211674 0.322003
C12   C     C_R   0.010028 0.514031 0.211605 0.314963
C13   C     C_R   0.997965 0.439004 0.852657 -0.076438
C14   C     C_R   0.561097 0.558699 0.852774 -0.076293
C15   C     C_R   0.441467 0.001594 0.852557 -0.076609
C16   C     C_R   0.438980 0.997761 0.352693 -0.076295
C17   C     C_R   0.558709 0.561101 0.352773 -0.076297
C18   C     C_R   0.001529 0.441493 0.352530 -0.076554
C19   C     C_R   0.028422 0.444687 0.891346 -0.002624
C20   C     C_R   0.555353 0.583436 0.891464 -0.003790
C21   C     C_R   0.416906 0.971702 0.891312 -0.003823
C22   C     C_R   0.444668 0.028208 0.391389 -0.002537
C23   C     C_R   0.583445 0.555357 0.391463 -0.003793
C24   C     C_R   0.971643 0.416900 0.391285 -0.003806
C25   C     C_R   0.072470 0.616395 0.892195 -0.093633
C26   C     C_R   0.383483 0.456164 0.892151 -0.092489
C27   C     C_R   0.543164 0.925671 0.892009 -0.093773
C28   C     C_R   0.616490 0.072663 0.392166 -0.093615
C29   C     C_R   0.456162 0.383490 0.392152 -0.092512
C30   C     C_R   0.925653 0.543188 0.392013 -0.093699
C31   C     C_R   0.037641 0.609367 0.854151 -0.000083
C32   C     C_R   0.390564 0.428358 0.854118 0.000049
C33   C     C_R   0.570536 0.959573 0.853866 -0.000737
C34   C     C_R   0.609460 0.037828 0.354125 -0.000099
C35   C     C_R   0.428357 0.390571 0.354119 0.000072
C36   C     C_R   0.959538 0.570583 0.353870 -0.000721
C37   C     C_R   0.007464 0.521644 0.833067 -0.030275
C38   C     C_R   0.478418 0.485765 0.833107 -0.030412
C39   C     C_R   0.513655 0.990668 0.832910 -0.029823
C40   C     C_R   0.521666 0.007467 0.333070 -0.030307
C41   C     C_R   0.485770 0.478423 0.333107 -0.030407
C42   C     C_R   0.990622 0.513713 0.332899 -0.029810
C43   C     C_R   0.073995 0.537018 0.910229 -0.045114
C44   C     C_R   0.462932 0.536896 0.910255 -0.042567
C45   C     C_R   0.463053 0.925514 0.910169 -0.043078
C46   C     C_R   0.537051 0.074000 0.410231 -0.045132
C47   C     C_R   0.536898 0.462936 0.410255 -0.042561
C48   C     C_R   0.925487 0.463056 0.410159 -0.043075
C49   C     C_R   0.577241 0.442831 0.445774 0.546019
C50   C     C_R   0.557157 0.134418 0.445767 0.532520
C51   C     C_R   0.865558 0.422767 0.445776 0.545147
C52   C     C_R   0.442830 0.577240 0.945774 0.546022
C53   C     C_R   0.134422 0.557156 0.945764 0.532605
C54   C     C_R   0.422768 0.865564 0.945779 0.545134
C55   C     C_R   0.922306 0.458654 0.590957 0.020522
C56   C     C_R   0.541486 0.463654 0.590983 0.020022
C57   C     C_R   0.537018 0.078742 0.591302 -0.035498
C58   C     C_R   0.458639 0.922303 0.090958 0.020539
C59   C     C_R   0.463651 0.541483 0.090983 0.019985
C60   C     C_R   0.078694 0.536977 0.091297 -0.035533
C61   C     C_R   0.970905 0.412118 0.607903 0.016687
C62   C     C_R   0.588072 0.558801 0.607941 0.017068
C63   C     C_R   0.441590 0.027068 0.607977 0.011836
C64   C     C_R   0.412088 0.970890 0.107902 0.016710
C65   C     C_R   0.558798 0.588059 0.107939 0.017071
C66   C     C_R   0.027223 0.441581 0.108014 0.011893
C67   C     C_R   0.995535 0.427187 0.648095 -0.017365
C68   C     C_R   0.573133 0.568360 0.648144 -0.017858
C69   C     C_R   0.431102 0.995811 0.647426 0.019313
C70   C     C_R   0.427122 0.995494 0.148096 -0.017402
C71   C     C_R   0.568359 0.573119 0.148141 -0.017867
C72   C     C_R   0.995873 0.431107 0.147452 0.019255
C73   C     C_R   0.979672 0.495278 0.669149 -0.002576
C74   C     C_R   0.505096 0.484398 0.669198 -0.006046
C75   C     C_R   0.516287 0.019780 0.669290 -0.013803
C76   C     C_R   0.495212 0.979641 0.169153 -0.002611
C77   C     C_R   0.484397 0.505089 0.169197 -0.006088
C78   C     C_R   0.019631 0.516302 0.169273 -0.013912
C79   C     C_R   0.945585 0.550857 0.650260 -0.104074
C80   C     C_R   0.449499 0.394706 0.650308 -0.115747
C81   C     C_R   0.607521 0.060637 0.651173 -0.112608
C82   C     C_R   0.550808 0.945567 0.150269 -0.104163
C83   C     C_R   0.394702 0.449501 0.150309 -0.115697
C84   C     C_R   0.060285 0.607473 0.151114 -0.112581
C85   C     C_R   0.915901 0.531872 0.611792 -0.137157
C86   C     C_R   0.468369 0.384007 0.611829 -0.139498
C87   C     C_R   0.617698 0.088884 0.612558 -0.130206
C88   C     C_R   0.531845 0.915893 0.111798 -0.137233
C89   C     C_R   0.384001 0.468372 0.111830 -0.139450
C90   C     C_R   0.088569 0.617617 0.112503 -0.130248
C91   C     C_R   0.995155 0.516019 0.790279 0.321418
C92   C     C_R   0.484150 0.479158 0.790320 0.322484
C93   C     C_R   0.520158 0.002577 0.790179 0.324373
C94   C     C_R   0.516009 0.995177 0.290281 0.321450
C95   C     C_R   0.479163 0.484153 0.290319 0.322483
C96   C     C_R   0.002540 0.520263 0.290168 0.324341
Cr1   Cr    Cr6+3 0.522350 0.263930 0.500020 1.059996
Cr2   Cr    Cr6+3 0.736070 0.258420 0.500020 1.068975
Cr3   Cr    Cr6+3 0.741580 0.477650 0.500020 1.072516
Cr4   Cr    Cr6+3 0.263930 0.522350 0.000020 1.060084
Cr5   Cr    Cr6+3 0.258420 0.736070 0.000020 1.068996
Cr6   Cr    Cr6+3 0.477650 0.741580 0.000020 1.072466
N1    N     N_R   0.942722 0.427673 0.772440 -0.206920
N2    N     N_R   0.572526 0.515027 0.772529 -0.206821
N3    N     N_R   0.489677 0.059727 0.772473 -0.209906
N4    N     N_R   0.427662 0.942664 0.272451 -0.206866
N5    N     N_R   0.515043 0.572530 0.272528 -0.206797
N6    N     N_R   0.059739 0.489852 0.272456 -0.209869
N7    N     N_R   0.938983 0.421162 0.733848 -0.192233
N8    N     N_R   0.579116 0.517808 0.733939 -0.189878
N9    N     N_R   0.487131 0.063841 0.733888 -0.217007
N10   N     N_R   0.421128 0.938911 0.233859 -0.192125
N11   N     N_R   0.517823 0.579117 0.233938 -0.189836
N12   N     N_R   0.063840 0.487310 0.233871 -0.216830
N13   N     N_R   0.040357 0.591151 0.729227 -0.192407
N14   N     N_R   0.409158 0.449314 0.729224 -0.204689
N15   N     N_R   0.544828 0.953240 0.729073 -0.195430
N16   N     N_R   0.591091 0.040439 0.229221 -0.192551
N17   N     N_R   0.449305 0.409153 0.229225 -0.204707
N18   N     N_R   0.953143 0.544889 0.229067 -0.195578
N19   N     N_R   0.044813 0.597393 0.767846 -0.216828
N20   N     N_R   0.402839 0.447521 0.767839 -0.218499
N21   N     N_R   0.546530 0.948567 0.767684 -0.216108
N22   N     N_R   0.597354 0.044909 0.267839 -0.216884
N23   N     N_R   0.447514 0.402837 0.267839 -0.218513
N24   N     N_R   0.948484 0.546589 0.267679 -0.216131
O1    O     O_R   0.498680 0.159540 0.541860 -0.520331
O2    O     O_R   0.840460 0.339140 0.541860 -0.482753
O3    O     O_R   0.660860 0.501320 0.541860 -0.483092
O4    O     O_R   0.159540 0.498680 0.041860 -0.520298
O5    O     O_R   0.339140 0.840460 0.041860 -0.482713
O6    O     O_R   0.501320 0.660860 0.041860 -0.483083
O7    O     O_R   0.532760 0.358060 0.540030 -0.507876
O8    O     O_R   0.641940 0.174700 0.540030 -0.502322
O9    O     O_R   0.825300 0.467240 0.540030 -0.515104
O10   O     O_R   0.358060 0.532760 0.040030 -0.507856
O11   O     O_R   0.174700 0.641940 0.040030 -0.502334
O12   O     O_R   0.467240 0.825300 0.040030 -0.515129
O13   O     O_R   0.498590 0.161190 0.456930 -0.521125
O14   O     O_R   0.838810 0.337400 0.456930 -0.512096
O15   O     O_R   0.662600 0.501410 0.456930 -0.513182
O16   O     O_R   0.161190 0.498590 0.956930 -0.521091
O17   O     O_R   0.337400 0.838810 0.956930 -0.512069
O18   O     O_R   0.501410 0.662600 0.956930 -0.513180
O19   O     O_R   0.532680 0.359580 0.461300 -0.494037
O20   O     O_R   0.640420 0.173100 0.461300 -0.495564
O21   O     O_R   0.826900 0.467320 0.461300 -0.496673
O22   O     O_R   0.359580 0.532680 0.961300 -0.494037
O23   O     O_R   0.173100 0.640420 0.961300 -0.495548
O24   O     O_R   0.467320 0.826900 0.961300 -0.496692
O25   O     O_3   0.666667 0.333333 0.499990 -0.257472
O26   O     O_3   0.333333 0.666667 0.999990 -0.257478
C97   C     C_2   0.001190 0.354098 0.583233 0.274966
H1    H     H_    0.999655 0.288934 0.594115 0.176178
O27   O     O_2   0.030721 0.380515 0.550115 -0.484727
C98   C     C_2   0.645991 0.647124 0.583273 0.273373
H2    H     H_    0.711121 0.710818 0.594160 0.176557
O28   O     O_2   0.619518 0.650188 0.550155 -0.487140
C99   C     C_2   0.355054 0.009557 0.584502 0.317834
H3    H     H_    0.350225 0.988741 0.554129 0.111636
O29   O     O_2   0.290886 0.022381 0.598311 -0.438853
C100  C     C_2   0.354094 0.001200 0.083226 0.274905
H4    H     H_    0.288951 0.999708 0.094107 0.176204
O30   O     O_2   0.380515 0.030712 0.050108 -0.484822
C101  C     C_2   0.647119 0.645969 0.083269 0.273331
H5    H     H_    0.710821 0.711092 0.094156 0.176557
O31   O     O_2   0.650171 0.619494 0.050150 -0.487187
C102  C     C_2   0.010060 0.355072 0.084605 0.318224
H6    H     H_    0.988957 0.349912 0.054255 0.111581
O32   O     O_2   0.023523 0.291335 0.098440 -0.438743
H7    H     H_    0.881604 0.570365 0.599195 0.152804
H8    H     H_    0.429854 0.311201 0.599229 0.164881
H9    H     H_    0.690959 0.126349 0.600364 0.154888
H10   H     H_    0.570347 0.881602 0.099205 0.152800
H11   H     H_    0.311194 0.429865 0.099233 0.165095
H12   H     H_    0.125869 0.690846 0.100277 0.154912
C103  C     C_2   0.011135 0.353554 0.911197 0.275032
H13   H     H_    0.010166 0.349241 0.942680 0.130420
O33   O     O_2   0.995463 0.281050 0.892571 -0.440379
C104  C     C_2   0.646511 0.656970 0.911423 0.279575
H14   H     H_    0.650557 0.660372 0.942912 0.155535
O34   O     O_2   0.719331 0.713443 0.892885 -0.440593
C105  C     C_2   0.343962 0.990166 0.911269 0.279915
H15   H     H_    0.340500 0.990686 0.942756 0.156071
O35   O     O_2   0.288051 0.007334 0.892730 -0.442100
C106  C     C_2   0.353488 0.010628 0.411293 0.275049
H16   H     H_    0.349399 0.010056 0.442777 0.130562
O36   O     O_2   0.280690 0.994218 0.392711 -0.440840
C107  C     C_2   0.656985 0.646515 0.411421 0.279595
H17   H     H_    0.660386 0.650564 0.442910 0.155543
O37   O     O_2   0.713463 0.719330 0.392882 -0.440593
C108  C     C_2   0.990082 0.343916 0.411221 0.279950
H18   H     H_    0.990621 0.340430 0.442708 0.156044
O38   O     O_2   0.007207 0.287997 0.392667 -0.441997
C109  C     C_2   0.041268 0.376769 0.668558 0.245070
H19   H     H_    0.096475 0.415754 0.690716 0.146245
O39   O     O_2   0.014248 0.290500 0.662718 -0.492095
C110  C     C_2   0.623626 0.664519 0.668616 0.244294
H20   H     H_    0.584700 0.680772 0.690779 0.145682
O40   O     O_2   0.709899 0.723740 0.662778 -0.490576
C111  C     C_2   0.333110 0.934693 0.665876 0.298791
H21   H     H_    0.323699 0.938980 0.696917 0.138836
O41   O     O_2   0.262786 0.874835 0.647010 -0.440111
C112  C     C_2   0.376665 0.041185 0.168559 0.244999
H22   H     H_    0.415625 0.096395 0.190719 0.146203
O42   O     O_2   0.290388 0.014124 0.162716 -0.492036
C113  C     C_2   0.664520 0.623602 0.168612 0.244252
H23   H     H_    0.680768 0.584670 0.190774 0.145642
O43   O     O_2   0.723748 0.709874 0.162773 -0.490563
C114  C     C_2   0.934878 0.333110 0.165937 0.298458
H24   H     H_    0.938635 0.323932 0.197025 0.138880
O44   O     O_2   0.875655 0.262491 0.147036 -0.440170
H25   H     H_    0.934273 0.603729 0.666251 0.167018
H26   H     H_    0.396674 0.330514 0.666300 0.162870
H27   H     H_    0.672479 0.076528 0.667703 0.162047
H28   H     H_    0.603680 0.934263 0.166263 0.167030
H29   H     H_    0.330509 0.396682 0.166302 0.163003
H30   H     H_    0.076009 0.672430 0.167610 0.162108
H31   H     H_    0.969591 0.370018 0.837263 0.197292
H32   H     H_    0.630172 0.599174 0.837441 0.197314
H33   H     H_    0.401363 0.030481 0.837127 0.195105
H34   H     H_    0.369946 0.969228 0.337319 0.197371
H35   H     H_    0.599189 0.630175 0.337439 0.197315
H36   H     H_    0.030399 0.401391 0.337087 0.195116
H37   H     H_    0.101745 0.685702 0.907435 0.191137
H38   H     H_    0.314090 0.416272 0.907328 0.191660
H39   H     H_    0.582709 0.895791 0.907191 0.191194
H40   H     H_    0.685845 0.102087 0.407382 0.191169
H41   H     H_    0.416265 0.314098 0.407331 0.191596
H42   H     H_    0.895792 0.582735 0.407207 0.191217
C115  C     C_2   0.031972 0.693472 0.837482 0.284806
H43   H     H_    0.986099 0.683320 0.812393 0.149685
O45   O     O_2   0.077037 0.775018 0.852076 -0.436922
C116  C     C_2   0.306368 0.338714 0.837387 0.285546
H44   H     H_    0.316499 0.302890 0.812331 0.147978
O46   O     O_2   0.224763 0.302452 0.851895 -0.435038
C117  C     C_2   0.659063 0.963153 0.836871 0.284264
H45   H     H_    0.693892 0.007224 0.811287 0.149251
O47   O     O_2   0.695457 0.918282 0.851696 -0.436038
C118  C     C_2   0.693647 0.032348 0.337433 0.284814
H46   H     H_    0.683531 0.986439 0.312360 0.149715
O48   O     O_2   0.775223 0.077615 0.351988 -0.436940
C119  C     C_2   0.338709 0.306378 0.337389 0.285513
H47   H     H_    0.302888 0.316511 0.312333 0.148045
O49   O     O_2   0.302442 0.224773 0.351898 -0.435426
C120  C     C_2   0.963111 0.659119 0.336887 0.284403
H48   H     H_    0.007153 0.693948 0.311296 0.149291
O50   O     O_2   0.918267 0.695521 0.351730 -0.435966

loop_
_geom_bond_atom_site_label_1
_geom_bond_atom_site_label_2
_ccdc_geom_bond_type
C25   C31   A    
C120  O50   D    
C9    N9    A    
C101  H5    S    
N13   N19   A    
C65   C101  S    
C36   C120  S    
C111  H21   S    
C6    C58   S    
C16   H34   S    
Cr1   O7    S    
Cr1   O1    S    
C11   N17   A    
C28   H40   S    
C112  O42   D    
C2    C57   S    
C26   C44   A    
C7    C73   S    
C32   C116  S    
Cr4   O26   S    
C26   C32   A    
C28   C46   A    
C17   C23   A    
C84   C90   A    
C29   C47   A    
C42   C96   S    
C30   C48   A    
C98   H2    S    
C1    C56   S    
Cr6   O6    S    
C1    O3    A    
C18   C42   A    
Cr6   O12   S    
C83   H29   S    
Cr4   O4    S    
C102  O32   D    
C77   C83   A    
C68   C74   A    
C119  H47   S    
C29   C35   A    
C117  O47   D    
C90   H12   S    
C9    N15   A    
C6    O12   A    
C14   C20   A    
C68   C110  S    
C53   O16   A    
C59   C89   A    
C7    N13   A    
C107  O37   D    
C95   N23   A    
C35   C119  S    
C39   C93   S    
C80   C86   A    
C96   N24   A    
C11   C77   S    
C93   N3    A    
C12   N18   A    
C10   C76   S    
C43   C53   S    
C48   C51   S    
C72   C114  S    
C97   H1    S    
C63   C69   A    
C19   C43   A    
C119  O49   D    
C49   O15   A    
C72   C78   A    
C99   O29   D    
C57   C87   A    
C10   N10   A    
C110  H20   S    
C67   C73   A    
C64   C70   A    
C97   O27   D    
C34   C118  S    
C19   C103  S    
C13   C37   A    
C4    O10   A    
C56   C62   A    
C51   O14   A    
C27   C45   A    
Cr2   O2    S    
C54   O17   A    
C96   N6    A    
C28   C34   A    
C52   O22   A    
C74   C80   A    
C8    N8    A    
C53   O23   A    
C112  H22   S    
C111  O41   D    
C25   C43   A    
C41   C95   S    
C116  O46   D    
C110  O40   D    
C1    O7    A    
C79   H25   S    
C8    C74   S    
C20   C44   A    
C44   C52   S    
C104  O34   D    
C46   C50   S    
C57   C63   A    
C88   H10   S    
C21   C45   A    
Cr2   O25   S    
C58   C64   A    
C69   C111  S    
C83   C89   A    
C66   C72   A    
C3    O9    A    
C23   C47   A    
Cr5   O11   S    
Cr3   O3    S    
Cr5   O23   S    
Cr3   O9    S    
C113  H23   S    
C24   C48   A    
N5    N11   A    
C33   C117  S    
C20   C104  S    
C76   C82   A    
C37   C91   S    
C50   O13   A    
C75   C81   A    
C13   C19   A    
N4    N10   A    
Cr2   O20   S    
C103  O33   D    
C65   C71   A    
C8    N14   A    
Cr3   O25   S    
C52   O18   A    
C78   C84   A    
C27   C33   A    
Cr4   O22   S    
Cr2   O14   S    
C108  O38   D    
C55   C85   A    
N6    N12   A    
C105  H15   S    
C63   C99   S    
C17   H35   S    
C92   N20   A    
C10   N16   A    
C14   C38   A    
C105  O35   D    
C61   C67   A    
C56   C86   A    
C99   H3    S    
Cr6   O18   S    
C51   O21   A    
C118  O48   D    
C73   C79   A    
C49   O19   A    
C24   C108  S    
C33   C39   A    
C13   H31   S    
C31   C115  S    
C15   C39   A    
C81   C87   A    
C35   C41   A    
C95   N5    A    
C16   C40   A    
C12   N12   A    
C82   H28   S    
Cr5   O5    S    
C114  O44   D    
C64   C100  S    
C102  H6    S    
C22   C46   A    
Cr6   O24   S    
C45   C54   S    
C114  H24   S    
C32   C38   A    
C115  O45   D    
C70   C76   A    
C86   H8    S    
C18   C24   A    
C14   H32   S    
C116  H44   S    
C89   H11   S    
C106  O36   D    
N16   N22   A    
N17   N23   A    
C40   C94   S    
C71   C77   A    
C18   H36   S    
C104  H14   S    
C100  H4    S    
N14   N20   A    
C21   C105  S    
Cr3   O21   S    
C120  H48   S    
C5    O4    A    
C16   C22   A    
C54   O24   A    
C5    C60   S    
C12   C78   S    
C3    O2    A    
Cr1   O19   S    
Cr3   O15   S    
C93   N21   A    
C87   H9    S    
C91   N1    A    
C6    O5    A    
C61   C97   S    
C36   C42   A    
C80   H26   S    
C118  H46   S    
C2    O8    A    
C5    O11   A    
C84   H30   S    
C60   C90   A    
C47   C49   S    
C9    C75   S    
C50   O20   A    
Cr2   O8    S    
Cr5   O26   S    
C3    C55   S    
C66   C102  S    
N1    N7    A    
C108  H18   S    
C30   H42   S    
C98   O28   D    
N15   N21   A    
C29   H41   S    
C30   C36   A    
C100  O30   D    
Cr4   O16   S    
C2    O1    A    
N2    N8    A    
Cr5   O17   S    
C27   H39   S    
C81   H27   S    
C26   H38   S    
C82   C88   A    
C55   C61   A    
C4    C59   S    
C71   C113  S    
C22   C106  S    
C79   C85   A    
C62   C98   S    
C69   C75   A    
N18   N24   A    
C62   C68   A    
N3    N9    A    
C107  H17   S    
C11   N11   A    
C17   C41   A    
C94   N4    A    
C92   N2    A    
C60   C66   A    
C109  H19   S    
C85   H7    S    
C31   C37   A    
C15   C21   A    
C15   H33   S    
C70   C112  S    
C101  O31   D    
C103  H13   S    
C91   N19   A    
C115  H43   S    
C113  O43   D    
C34   C40   A    
C7    N7    A    
C67   C109  S    
C23   C107  S    
C109  O39   D    
C106  H16   S    
C117  H45   S    
C4    O6    A    
C58   C88   A    
Cr1   O13   S    
Cr1   O25   S    
C59   C65   A    
Cr4   O10   S    
C38   C92   S    
Cr6   O26   S    
C25   H37   S    
C94   N22   A    
