data_mof_unit_37996.cif
_audit_creation_date              2012-10-26T19:15:02-0400
_audit_creation_method            fapswitch 2.2
_symmetry_space_group_name_H-M    P1
_symmetry_Int_Tables_number       1
_space_group_crystal_system       triclinic
_cell_length_a                    10.858729
_cell_length_b                    10.833663
_cell_length_c                    9.552458
_cell_angle_alpha                 90.441624
_cell_angle_beta                  90.949747
_cell_angle_gamma                 90.696589
_cell_volume                      1123.47677097

loop_
_atom_site_label
_atom_site_type_symbol
_atom_type_description
_atom_site_fract_x
_atom_site_fract_y
_atom_site_fract_z
_atom_type_partial_charge
C1    C     C_R   0.496651 0.262388 0.499414 0.544564
C2    C     C_R   0.478647 0.937738 0.624253 0.030991
C3    C     C_3   0.561547 0.935661 0.750346 -0.273606
C4    C     C_R   0.262528 0.497040 0.498878 0.565309
C5    C     C_3   0.558097 0.075407 0.750957 -0.267268
C6    C     C_R   0.541161 0.601030 0.075805 0.161250
C7    C     C_R   0.446531 0.406337 0.072515 -0.019554
C8    C     C_R   0.446351 0.406422 0.923733 -0.016702
C9    C     C_R   0.541715 0.600861 0.928262 0.166059
C10   C     C_3   0.669481 0.652032 0.929159 -0.291158
C11   C     C_3   0.666844 0.656020 0.087249 -0.277146
C12   C     C_R   0.939888 0.470772 0.623552 -0.007197
C13   C     C_R   0.497706 0.737771 0.500150 0.551575
C14   C     C_R   0.737907 0.497406 0.500642 0.547326
C15   C     C_R   0.066674 0.471869 0.621616 0.042049
C16   C     C_R   0.129788 0.483751 0.496660 0.016987
C17   C     C_R   0.062336 0.477730 0.369997 -0.171589
C18   C     C_R   0.933707 0.477971 0.371564 -0.162169
C19   C     C_R   0.871244 0.484323 0.499736 0.004215
C20   C     C_3   0.938398 0.539933 0.759451 -0.266542
C21   C     C_3   0.078423 0.541614 0.756878 -0.025479
C22   C     C_R   0.477031 0.064886 0.623697 0.017601
C23   C     C_R   0.482785 0.129330 0.498099 0.007986
C24   C     C_R   0.471367 0.063229 0.371235 -0.163841
C25   C     C_R   0.472279 0.934451 0.371781 -0.163706
C26   C     C_R   0.484832 0.870916 0.499171 0.008819
Cu1   Cu    Cu3+1 0.499990 0.499980 0.640670 0.953432
Cu2   Cu    Cu3+1 0.500010 0.500020 0.359330 0.929391
H1    H     H_    0.654192 0.899622 0.725741 0.125559
H2    H     H_    0.468284 0.110355 0.271672 0.126004
H3    H     H_    0.469470 0.885528 0.272436 0.132615
H4    H     H_    0.108197 0.479312 0.270184 0.132963
H5    H     H_    0.405027 0.329425 0.126546 0.108926
H6    H     H_    0.734813 0.593618 0.136769 0.148343
H7    H     H_    0.884139 0.479100 0.272418 0.127897
H8    H     H_    0.895996 0.632447 0.749184 0.131148
H9    H     H_    0.118130 0.714226 0.834156 0.223448
H10   H     H_    0.085409 0.712966 0.661177 0.233136
H11   H     H_    0.515727 0.893990 0.842172 0.138309
H12   H     H_    0.508847 0.114176 0.842090 0.126536
H13   H     H_    0.648813 0.119521 0.729537 0.142882
H14   H     H_    0.404358 0.329765 0.866850 0.112098
H15   H     H_    0.733552 0.582952 0.889356 0.144366
H16   H     H_    0.677296 0.744332 0.881862 0.114162
H17   H     H_    0.665902 0.751365 0.131048 0.122444
H18   H     H_    0.903474 0.480925 0.845084 0.109979
H19   H     H_    0.123340 0.487735 0.841774 0.145659
N1    N     N_R   0.500790 0.500930 0.147930 -0.231123
N2    N     N_R   0.500790 0.500890 0.852020 -0.228570
N3    N     N_3   0.131776 0.665576 0.740868 -0.602954
O1    O     O_R   0.500000 0.319640 0.618810 -0.512497
O2    O     O_R   0.500010 0.319680 0.381230 -0.515346
O3    O     O_R   0.319650 0.499970 0.618810 -0.472763
O4    O     O_R   0.319660 0.500010 0.381230 -0.514145
O5    O     O_R   0.499990 0.680320 0.618770 -0.489531
O6    O     O_R   0.500000 0.680360 0.381190 -0.508574
O7    O     O_R   0.680340 0.499990 0.618770 -0.502361
O8    O     O_R   0.680350 0.500030 0.381190 -0.510208

loop_
_geom_bond_atom_site_label_1
_geom_bond_atom_site_label_2
_ccdc_geom_bond_type
C25   H3    S    
C23   C24   A    
Cu1   O3    S    
C2    C22   A    
H10   N3    S    
Cu2   O8    S    
C4    O3    A    
Cu2   O2    S    
C9    C10   S    
C12   C15   A    
C13   O6    A    
C4    O4    A    
C7    N1    A    
C12   C20   S    
C6    C9    A    
C2    C3    S    
Cu2   O6    S    
C3    H11   S    
C7    C8    A    
C2    C26   A    
C21   H19   S    
C24   C25   A    
H9    N3    S    
C1    O1    A    
C6    N1    A    
C14   C19   S    
C12   C19   A    
Cu1   Cu2   S    
C21   N3    S    
C25   C26   A    
C8    H14   S    
C17   C18   A    
C1    C23   S    
Cu1   O5    S    
Cu1   O7    S    
C14   O8    A    
C1    O2    A    
C24   H2    S    
C13   C26   S    
C11   H17   S    
C10   C11   S    
C7    H5    S    
C4    C16   S    
C15   C16   A    
C20   H8    S    
Cu1   N2    S    
C15   C21   S    
C9    N2    A    
C20   C21   S    
C18   C19   A    
C18   H7    S    
C5    H12   S    
C6    C11   S    
C3    H1    S    
C14   O7    A    
Cu2   O4    S    
C22   C23   A    
Cu2   N1    S    
C5    H13   S    
C3    C5    S    
C10   H15   S    
C10   H16   S    
C8    N2    A    
C11   H6    S    
C20   H18   S    
C5    C22   S    
C17   H4    S    
Cu1   O1    S    
C16   C17   A    
C13   O5    A    
