data_mof_unit_14918.cif
_audit_creation_date              2012-12-11T14:36:03-0500
_audit_creation_method            fapswitch 2.2
_symmetry_space_group_name_H-M    P1
_symmetry_Int_Tables_number       1
_space_group_crystal_system       triclinic
_cell_length_a                    13.479255
_cell_length_b                    13.472293
_cell_length_c                    27.542049
_cell_angle_alpha                 90.527891
_cell_angle_beta                  90.088693
_cell_angle_gamma                 60.062746
_cell_volume                      4333.98504231

loop_
_atom_site_label
_atom_site_type_symbol
_atom_type_description
_atom_site_fract_x
_atom_site_fract_y
_atom_site_fract_z
_atom_type_partial_charge
C1    C     C_R   0.620219 0.101250 0.570225 0.545280
C2    C     C_1   0.630761 0.732724 0.616613 -0.006433
C3    C     C_3   0.695316 0.562721 0.768157 -0.075056
C4    C     C_3   0.679008 0.655250 0.805581 0.041560
C5    C     C_3   0.587072 0.652822 0.741258 -0.070532
C6    C     C_3   0.662804 0.684320 0.710974 0.049525
C7    C     C_3   0.570971 0.744904 0.779401 -0.113650
C8    C     C_3   0.646505 0.776876 0.748387 -0.109558
C9    C     C_1   0.687963 0.634243 0.857927 -0.055976
C10   C     C_1   0.648934 0.705746 0.658669 -0.043827
C11   C     C_3   0.089317 0.136794 0.738173 -0.098646
C12   C     C_R   0.599557 0.779668 0.568861 0.544365
C13   C     C_3   0.179869 0.061500 0.776408 -0.101171
C14   C     C_1   0.096452 0.201932 0.901720 -0.012615
C15   C     C_1   0.230717 0.137399 0.617851 -0.011511
C16   C     C_3   0.056493 0.244784 0.769692 -0.100031
C17   C     C_3   0.147457 0.169317 0.807106 0.049577
C18   C     C_3   0.147690 0.262411 0.743207 -0.097820
C19   C     C_3   0.180119 0.154693 0.712434 0.052195
C20   C     C_3   0.238197 0.187212 0.781310 -0.102861
C21   C     C_3   0.271131 0.079196 0.749820 -0.104696
C22   C     C_1   0.124303 0.182868 0.859539 -0.053955
C23   C     C_R   0.278079 0.121612 0.569835 0.547086
C24   C     C_1   0.203060 0.146459 0.660022 -0.053149
C25   C     C_3   0.621128 0.277130 0.740299 0.412342
C26   C     C_3   0.555384 0.249682 0.778017 0.140278
C27   C     C_1   0.691091 0.208027 0.903088 -0.008144
C28   C     C_1   0.635309 0.132901 0.618369 -0.000193
C29   C     C_3   0.731385 0.212236 0.770777 -0.106421
C30   C     C_3   0.663431 0.185057 0.808491 0.029889
C31   C     C_3   0.761000 0.099573 0.743097 -0.162378
C32   C     C_3   0.650463 0.165991 0.713128 0.039021
C33   C     C_3   0.693254 0.072732 0.781418 -0.139000
C34   C     C_R   0.621538 0.098719 0.430726 0.545783
C35   C     C_3   0.582338 0.138740 0.750720 -0.124426
C36   C     C_1   0.674431 0.196602 0.860927 -0.033658
C37   C     C_1   0.643533 0.151454 0.660651 -0.014977
C38   C     C_R   0.739253 0.681960 0.360122 0.096155
C39   C     C_R   0.753321 0.676528 0.308785 0.065845
C40   C     C_R   0.774071 0.650473 0.206945 -0.002938
C41   C     C_R   0.870777 0.620528 0.235290 -0.122028
C42   C     C_R   0.861995 0.634249 0.285914 0.107987
C43   C     C_R   0.785544 0.623467 0.157702 -0.118779
C44   C     C_R   0.689861 0.640740 0.130629 -0.001038
C45   C     C_R   0.600727 0.777951 0.429749 0.536309
C46   C     C_R   0.532035 0.772959 0.349202 -0.149128
C47   C     C_R   0.544646 0.761540 0.299645 -0.001700
C48   C     C_R   0.654573 0.714183 0.279021 0.010342
C49   C     C_R   0.447362 0.798861 0.270510 -0.123856
C50   C     C_R   0.458454 0.783662 0.220624 -0.126017
C51   C     C_R   0.567128 0.731751 0.199503 0.023402
C52   C     C_R   0.665188 0.700802 0.228453 0.056882
C53   C     C_R   0.580215 0.701818 0.150565 -0.132799
C54   C     C_R   0.627001 0.736560 0.379639 0.003003
C55   C     C_R   0.194665 0.071281 0.359710 -0.130592
C56   C     C_R   0.279509 0.120519 0.430503 0.544800
C57   C     C_R   0.168667 0.082389 0.309871 0.042087
C58   C     C_R   0.127482 0.103350 0.209265 -0.013221
C59   C     C_R   0.111533 0.024257 0.235955 -0.117647
C60   C     C_R   0.131421 0.013205 0.286241 0.098660
C61   C     C_R   0.101108 0.119029 0.159985 -0.134681
C62   C     C_R   0.107444 0.205744 0.134506 -0.002545
C63   C     C_R   0.233148 0.229063 0.355178 -0.118305
C64   C     C_R   0.213793 0.237697 0.305863 0.015989
C65   C     C_R   0.182286 0.163938 0.282786 0.036736
C66   C     C_R   0.228712 0.317475 0.279268 -0.120088
C67   C     C_3   0.770925 0.594602 0.737100 -0.100759
C68   C     C_R   0.211259 0.325525 0.229506 -0.130722
C69   C     C_R   0.177507 0.254738 0.206095 0.020506
C70   C     C_R   0.163457 0.173114 0.232653 0.055699
C71   C     C_R   0.151192 0.269057 0.157017 -0.133465
C72   C     C_R   0.229202 0.142919 0.381998 -0.015540
C73   C     C_R   0.563658 0.234521 0.361402 -0.135458
C74   C     C_R   0.568358 0.251532 0.311577 0.020736
C75   C     C_R   0.579649 0.283132 0.211459 0.014573
C76   C     C_R   0.500377 0.373657 0.240873 -0.128786
C77   C     C_R   0.494000 0.357611 0.290560 -0.133212
C78   C     C_3   0.754859 0.686726 0.775371 -0.104351
C79   C     C_R   0.593203 0.300911 0.162579 -0.136608
C80   C     C_R   0.676964 0.210891 0.134425 -0.018850
C81   C     C_R   0.721500 0.039303 0.352393 -0.117932
C82   C     C_R   0.724004 0.053373 0.302744 -0.008356
C83   C     C_R   0.647733 0.159765 0.282064 0.054862
C84   C     C_R   0.800217 0.961172 0.273585 -0.106550
C85   C     C_R   0.803728 0.973857 0.223441 0.105201
C86   C     C_R   0.730255 0.081613 0.202623 0.043710
C87   C     C_R   0.651706 0.174505 0.231957 0.037251
C88   C     C_R   0.738156 0.100335 0.153526 -0.116557
C89   C     C_1   0.697015 0.608163 0.900099 -0.013228
C90   C     C_R   0.639446 0.127891 0.381762 -0.000276
C91   C     C_R   0.049024 0.236413 0.949669 0.545751
C92   C     C_R   0.711562 0.562979 0.948139 0.544698
C93   C     C_R   0.722067 0.225522 0.950933 0.544005
C94   C     C_R   0.048395 0.244501 0.088253 0.547414
C95   C     C_R   0.708272 0.575689 0.085897 0.546151
C96   C     C_R   0.718072 0.233673 0.089111 0.546757
Cr1   Cr    Cr6+3 0.417550 0.169090 0.500530 1.032329
Cr2   Cr    Cr6+3 0.669180 0.913420 0.499920 1.038145
Cr3   Cr    Cr6+3 0.413260 0.917540 0.499520 1.028763
Cr4   Cr    Cr6+3 0.909170 0.177380 0.020380 1.022042
Cr5   Cr    Cr6+3 0.912710 0.429210 0.018220 1.025099
Cr6   Cr    Cr6+3 0.657170 0.432570 0.019030 1.026166
H1    H     H_    0.823501 0.701100 0.790003 0.109259
H2    H     H_    0.299642 0.207531 0.799434 0.133876
H3    H     H_    0.134059 0.345204 0.729081 0.110753
H4    H     H_    0.967808 0.313270 0.778385 0.102255
H5    H     H_    0.519874 0.110056 0.742383 0.107060
H6    H     H_    0.723202 0.988319 0.798648 0.119585
H7    H     H_    0.846518 0.037254 0.728145 0.118856
H8    H     H_    0.792503 0.242597 0.779158 0.102430
H9    H     H_    0.870696 0.578048 0.141913 0.135135
H10   H     H_    0.852870 0.532608 0.719250 0.109446
H11   H     H_    0.954038 0.584336 0.217962 0.100935
H12   H     H_    0.506301 0.717435 0.129118 0.121529
H13   H     H_    0.382636 0.808931 0.198827 0.107949
H14   H     H_    0.362926 0.836903 0.286510 0.110480
H15   H     H_    0.445746 0.815504 0.363963 0.140103
H16   H     H_    0.067473 0.069547 0.142535 0.129557
H17   H     H_    0.191442 0.005705 0.380954 0.147380
H18   H     H_    0.082088 0.972091 0.217722 0.095953
H19   H     H_    0.626376 0.865309 0.739651 0.103601
H20   H     H_    0.156926 0.335322 0.137266 0.124944
H21   H     H_    0.221899 0.388561 0.209526 0.100516
H22   H     H_    0.253932 0.373616 0.296985 0.105945
H23   H     H_    0.259380 0.285512 0.371888 0.141205
H24   H     H_    0.544736 0.386181 0.147591 0.128463
H25   H     H_    0.499395 0.302622 0.383946 0.118063
H26   H     H_    0.444371 0.457199 0.225557 0.104929
H27   H     H_    0.432188 0.428562 0.312654 0.103242
H28   H     H_    0.799520 0.030728 0.130767 0.163389
H29   H     H_    0.488976 0.806867 0.797229 0.107610
H30   H     H_    0.857671 0.879322 0.289934 0.099444
H31   H     H_    0.779285 0.955953 0.367558 0.146751
H32   H     H_    0.518354 0.638467 0.726696 0.159324
H33   H     H_    0.715396 0.474318 0.776908 0.136287
H34   H     H_    0.193514 0.978773 0.790610 0.108415
H35   H     H_    0.027860 0.116520 0.720027 0.109458
H36   H     H_    0.359824 0.010815 0.741078 0.102113
O1    O     O_R   0.301710 0.195650 0.554160 -0.503096
O2    O     O_R   0.658900 0.818120 0.449760 -0.488554
O3    O     O_R   0.503220 0.801620 0.445520 -0.523899
O4    O     O_R   0.319370 0.022040 0.450020 -0.503475
O5    O     O_3   0.499990 0.000010 0.499990 -0.251574
O6    O     O_R   0.818720 0.150820 0.967160 -0.508101
O7    O     O_R   0.006410 0.181720 0.970200 -0.495706
O8    O     O_R   0.027890 0.334070 0.964920 -0.505149
O9    O     O_R   0.809600 0.521790 0.967960 -0.494981
O10   O     O_R   0.635520 0.542770 0.964420 -0.506824
O11   O     O_R   0.665950 0.325030 0.970100 -0.493430
O12   O     O_R   0.522390 0.158990 0.550460 -0.490403
O13   O     O_R   0.816620 0.158530 0.074540 -0.524056
O14   O     O_R   0.004460 0.188870 0.069750 -0.503587
O15   O     O_R   0.025800 0.341780 0.072300 -0.521614
O16   O     O_R   0.807650 0.528950 0.067500 -0.505058
O17   O     O_R   0.633420 0.550490 0.071810 -0.518476
O18   O     O_R   0.664000 0.332180 0.069640 -0.498536
O19   O     O_3   0.826350 0.346390 0.019210 -0.245185
O20   O     O_R   0.694390 0.003530 0.554040 -0.507265
O21   O     O_R   0.657700 0.819660 0.549320 -0.497641
O22   O     O_R   0.501930 0.803280 0.552920 -0.501492
O23   O     O_R   0.318170 0.023580 0.549580 -0.493383
O24   O     O_R   0.303010 0.193990 0.446760 -0.520741
O25   O     O_R   0.523600 0.157450 0.450900 -0.503051
O26   O     O_R   0.695690 0.001860 0.446640 -0.512582
N1    N     N_3   0.443155 0.331486 0.797509 -0.628088
H37   H     H_    0.386495 0.362530 0.768273 0.240326
H38   H     H_    0.448739 0.400703 0.811742 0.248892
F1    F     F_    0.582558 0.382751 0.719114 -0.653866
N2    N     N_3   0.837596 0.626713 0.391498 -0.588403
H39   H     H_    0.814058 0.628741 0.427698 0.228663
H40   H     H_    0.880656 0.539529 0.382393 0.250825
N3    N     N_3   0.962935 0.607264 0.313503 -0.607069
H41   H     H_    0.953916 0.684524 0.326463 0.238143
H42   H     H_    0.035889 0.570089 0.291392 0.213079
N4    N     N_3   0.110879 0.934507 0.313430 -0.636057
H43   H     H_    0.190197 0.866448 0.323855 0.209875
H44   H     H_    0.072517 0.899401 0.291495 0.224423
N5    N     N_3   0.883937 0.878877 0.193931 -0.642124
H45   H     H_    0.922793 0.803573 0.214155 0.223586
H46   H     H_    0.949218 0.895219 0.183985 0.211161

loop_
_geom_bond_atom_site_label_1
_geom_bond_atom_site_label_2
_ccdc_geom_bond_type
C83   C87   A    
C26   N1    S    
C40   C41   A    
C59   H18   S    
Cr2   O5    S    
C92   O10   A    
C73   C74   A    
Cr3   O4    S    
C66   C68   A    
C88   H28   S    
C74   C83   A    
C43   C44   A    
C2    C12   S    
C49   C50   A    
N5    H45   S    
C7    C8    S    
N4    H44   S    
C55   H17   S    
C85   C86   A    
Cr4   O14   S    
C33   H6    S    
C11   C19   S    
N1    H37   S    
Cr5   O16   S    
C23   O1    A    
C1    O20   A    
C19   C21   S    
N3    H41   S    
C73   C90   A    
C18   C19   S    
C34   O26   A    
C5    C6    S    
C86   C88   A    
C8    H19   S    
C94   O14   A    
C65   C70   A    
C56   O24   A    
C17   C20   S    
C68   H21   S    
C50   H13   S    
C41   C42   A    
C69   C71   A    
Cr1   O5    S    
C71   H20   S    
Cr6   O10   S    
Cr3   O23   S    
C93   O11   A    
C44   C53   A    
C40   C43   A    
Cr2   O20   S    
C68   C69   A    
C56   C72   S    
C74   C77   A    
C1    C28   S    
Cr1   O12   S    
C31   C33   S    
C40   C52   A    
C80   C96   S    
C7    H29   S    
C55   C72   A    
C16   H4    S    
C56   O4    A    
C25   C32   S    
C15   C23   S    
C78   H1    S    
Cr5   O19   S    
C59   C60   A    
N1    H38   S    
Cr3   O22   S    
C92   O9    A    
C8    C78   S    
N2    H40   S    
C61   C62   A    
C67   C78   S    
C43   H9    S    
C21   H36   S    
C4    C7    S    
Cr4   O19   S    
Cr6   O19   S    
N3    H42   S    
C81   C82   A    
C39   C42   A    
C25   F1    S    
C25   C29   S    
C5    H32   S    
C3    C67   S    
Cr5   O8    S    
C3    H33   S    
C51   C52   A    
C32   C35   S    
C29   H8    S    
C84   C85   A    
C47   C49   A    
C34   O25   A    
Cr4   O6    S    
C9    C89   T    
C5    C7    S    
C86   C87   A    
C16   C17   S    
C57   C60   A    
C6    C8    S    
Cr1   O25   S    
C25   C26   S    
C73   H25   S    
C96   O13   A    
C84   H30   S    
C45   O2    A    
C12   O22   A    
C79   C80   A    
C46   H15   S    
Cr2   O2    S    
C51   C53   A    
C64   C66   A    
C75   C76   A    
C34   C90   S    
C4    C78   S    
C29   C30   S    
C11   C16   S    
C67   H10   S    
N5    H46   S    
C47   C48   A    
C38   C54   A    
Cr5   O15   S    
Cr4   O7    S    
C46   C54   A    
C50   C51   A    
C31   H7    S    
C13   C21   S    
C1    O12   A    
N2    H39   S    
C77   H27   S    
C32   C37   S    
C76   C77   A    
C89   C92   S    
C63   H23   S    
C93   O6    A    
C42   N3    S    
C45   O3    A    
C81   C90   A    
C75   C87   A    
C15   C24   T    
C79   H24   S    
C45   C54   S    
Cr1   O24   S    
C82   C84   A    
C62   C94   S    
C76   H26   S    
C13   H34   S    
C66   H22   S    
Cr2   O21   S    
C27   C93   S    
C96   O18   A    
C3    C4    S    
C2    C10   T    
Cr6   O18   S    
C91   O7    A    
C53   H12   S    
C38   N2    S    
Cr3   O5    S    
C46   C47   A    
Cr5   O9    S    
C30   C33   S    
C61   H16   S    
Cr3   O3    S    
C31   C32   S    
C58   C70   A    
C57   C65   A    
C3    C5    S    
C16   C18   S    
C6    C10   S    
Cr2   O26   S    
C81   H31   S    
C20   H2    S    
C30   C36   S    
C27   C36   T    
C17   C22   S    
C13   C17   S    
C95   O16   A    
C64   C65   A    
C14   C22   T    
C55   C57   A    
C19   C24   S    
C58   C59   A    
C18   H3    S    
C80   C88   A    
N4    H43   S    
C6    C67   S    
C11   C13   S    
Cr4   O13   S    
C38   C39   A    
C28   C37   T    
C58   C61   A    
C94   O15   A    
C41   H11   S    
C63   C72   A    
C33   C35   S    
C85   N5    S    
C62   C71   A    
C18   C20   S    
C95   O17   A    
C12   O21   A    
C11   H35   S    
C69   C70   A    
C14   C91   S    
C35   H5    S    
Cr6   O11   S    
C63   C64   A    
C26   C35   S    
C48   C52   A    
C49   H14   S    
C20   C21   S    
C29   C31   S    
C82   C83   A    
C44   C95   S    
C60   N4    S    
C4    C9    S    
C75   C79   A    
Cr6   O17   S    
Cr1   O1    S    
C91   O8    A    
C39   C48   A    
C23   O23   A    
C26   C30   S    
