data_mof_unit_10409.cif
_audit_creation_date              2012-12-11T17:30:02-0500
_audit_creation_method            fapswitch 2.2
_symmetry_space_group_name_H-M    P1
_symmetry_Int_Tables_number       1
_space_group_crystal_system       triclinic
_cell_length_a                    18.788721
_cell_length_b                    18.930097
_cell_length_c                    20.374277
_cell_angle_alpha                 107.310908
_cell_angle_beta                  106.181147
_cell_angle_gamma                 111.199579
_cell_volume                      5811.099982

loop_
_atom_site_label
_atom_site_type_symbol
_atom_type_description
_atom_site_fract_x
_atom_site_fract_y
_atom_site_fract_z
_atom_type_partial_charge
C1    C     C_R   0.086566 0.087923 0.354048 -0.145022
C2    C     C_R   0.245389 0.069900 0.545113 -0.128426
C3    C     C_R   0.153065 0.222437 0.710350 -0.141635
C4    C     C_R   0.761055 0.925708 0.504998 -0.106887
C5    C     C_R   0.998383 0.763090 0.430577 -0.092929
C6    C     C_R   0.229865 0.272646 0.712857 0.049541
C7    C     C_R   0.940717 0.707543 0.445279 0.008137
C8    C     C_R   0.253399 0.997601 0.535370 0.071999
C9    C     C_R   0.023068 0.979050 0.725267 -0.011254
C10   C     C_R   0.885818 0.583493 0.467769 -0.316865
C11   C     C_R   0.912395 0.616548 0.420779 0.088543
C12   C     C_R   0.756657 0.994005 0.549406 0.059316
C13   C     C_R   0.919493 0.565258 0.358503 -0.089201
C14   C     C_R   0.914675 0.487314 0.354024 0.032279
C15   C     C_R   0.888308 0.456490 0.403189 0.040930
C16   C     C_R   0.838949 0.817329 0.281122 -0.065888
C17   C     C_R   0.867771 0.502381 0.455905 0.157038
C18   C     C_R   0.937463 0.440145 0.303984 -0.219676
C19   C     C_R   0.943097 0.370171 0.309066 -0.200495
C20   C     C_R   0.921616 0.343129 0.361039 0.143930
C21   C     C_R   0.888271 0.382824 0.404124 0.035621
C22   C     C_R   0.861820 0.353277 0.453520 0.134766
C23   C     C_R   0.756769 0.794558 0.273849 0.013116
C24   C     C_R   0.831397 0.394096 0.498520 -0.209555
C25   C     C_R   0.836414 0.469748 0.501167 -0.203732
C26   C     C_R   0.939570 0.282398 0.375941 -0.268458
C27   C     C_R   0.922261 0.260715 0.432119 0.116460
C28   C     C_R   0.947887 0.194335 0.520995 -0.132844
C29   C     C_R   0.875016 0.289473 0.463941 -0.252629
C30   C     C_R   0.406551 0.068686 0.623480 -0.253806
C31   C     C_R   0.329852 0.993905 0.574127 0.116966
C32   C     C_R   0.328684 0.915712 0.554298 -0.258558
C33   C     C_R   0.404246 0.911875 0.570288 0.065951
C34   C     C_R   0.962492 0.218914 0.466335 0.075387
C35   C     C_R   0.481403 0.988785 0.608537 0.021764
C36   C     C_R   0.482695 0.066899 0.639632 0.152588
C37   C     C_R   0.404108 0.833859 0.540573 0.002093
C38   C     C_R   0.478717 0.834844 0.539421 -0.270351
C39   C     C_R   0.552884 0.911650 0.569282 0.128734
C40   C     C_R   0.760806 0.811315 0.346401 -0.102356
C41   C     C_R   0.555763 0.988496 0.608284 0.027487
C42   C     C_R   0.630852 0.065888 0.639986 0.144030
C43   C     C_R   0.633556 0.142269 0.678813 -0.206981
C44   C     C_R   0.559600 0.142786 0.678562 -0.207928
C45   C     C_R   0.230591 0.228256 0.645756 -0.144894
C46   C     C_R   0.621920 0.913254 0.555327 -0.241684
C47   C     C_R   0.692963 0.990884 0.578932 0.116053
C48   C     C_R   0.699363 0.066405 0.626014 -0.256996
C49   C     C_R   0.290139 0.362185 0.766611 0.145495
C50   C     C_R   0.268346 0.409949 0.816528 -0.190583
C51   C     C_R   0.328041 0.492432 0.871097 -0.166158
C52   C     C_R   0.025352 0.201382 0.455208 -0.130915
C53   C     C_R   0.410930 0.528438 0.876704 0.225971
C54   C     C_R   0.430318 0.483159 0.823147 -0.179239
C55   C     C_R   0.370867 0.400515 0.768905 -0.182835
C56   C     C_R   0.912307 0.754275 0.486727 -0.040282
C57   C     C_R   0.616634 0.727920 0.069482 -0.162010
C58   C     C_R   0.688612 0.766238 0.137900 -0.179151
C59   C     C_R   0.535541 0.686079 0.066058 0.223232
C60   C     C_R   0.680934 0.763592 0.203862 0.150282
C61   C     C_R   0.599828 0.729054 0.201673 -0.171013
C62   C     C_R   0.527879 0.691274 0.133321 -0.182744
C63   C     C_R   0.104946 0.028489 0.234348 0.144952
C64   C     C_R   0.830462 0.065484 0.569721 -0.146095
C65   C     C_R   0.108432 0.959024 0.188444 -0.188364
C66   C     C_R   0.138299 0.963561 0.133732 -0.165190
C67   C     C_R   0.175692 0.929019 0.480035 -0.134855
C68   C     C_R   0.164971 0.037951 0.123886 0.225075
C69   C     C_R   0.168447 0.109286 0.174144 -0.180098
C70   C     C_R   0.138172 0.104661 0.228662 -0.184099
C71   C     C_R   0.171173 0.043166 0.925913 -0.167162
C72   C     C_R   0.137773 0.045508 0.856956 -0.180888
C73   C     C_R   0.133589 0.968269 0.933077 0.222927
C74   C     C_R   0.066705 0.973345 0.794235 0.151795
C75   C     C_R   0.035724 0.896557 0.799301 -0.180944
C76   C     C_R   0.017701 0.947928 0.289733 -0.143833
C77   C     C_R   0.069623 0.894146 0.868207 -0.180166
C78   C     C_R   0.034637 0.052848 0.718253 -0.129741
C79   C     C_R   0.066084 0.021649 0.287316 0.047904
C80   C     C_2   0.827063 0.718935 0.485125 0.432457
C81   C     C_2   0.928243 0.590841 0.297789 0.483565
C82   C     C_R   0.326283 0.751033 0.506782 0.142220
C83   C     C_R   0.281315 0.732199 0.549568 -0.165084
C84   C     C_R   0.206932 0.655126 0.517235 -0.108740
C85   C     C_R   0.177201 0.596027 0.442276 -0.100654
C86   C     C_R   0.221880 0.613831 0.399548 -0.121094
C87   C     C_R   0.296245 0.690910 0.431599 -0.156999
C88   C     C_R   0.967123 0.912027 0.653436 -0.039038
H1    H     H_    0.135043 0.152850 0.377045 0.092132
H2    H     H_    0.721164 0.859885 0.488825 0.129288
H3    H     H_    0.967005 0.339039 0.274186 0.128341
H4    H     H_    0.972035 0.256976 0.347919 0.121460
H5    H     H_    0.856895 0.270564 0.504323 0.116530
H6    H     H_    0.810327 0.371347 0.536219 0.130357
H7    H     H_    0.818843 0.504325 0.540642 0.131657
H8    H     H_    0.408219 0.129265 0.642978 0.116309
H9    H     H_    0.269199 0.857915 0.519619 0.132172
H10   H     H_    0.477975 0.775630 0.512459 0.139738
H11   H     H_    0.616991 0.854142 0.521290 0.122039
H12   H     H_    0.158307 0.863056 0.458027 0.093693
H13   H     H_    0.859761 0.813451 0.236519 0.094505
H14   H     H_    0.754549 0.126738 0.647080 0.115887
H15   H     H_    0.691390 0.201992 0.704650 0.129039
H16   H     H_    0.561484 0.202919 0.703921 0.130329
H17   H     H_    0.749962 0.795166 0.138053 0.115558
H18   H     H_    0.624655 0.726834 0.018642 0.125614
H19   H     H_    0.493826 0.509873 0.826992 0.121276
H20   H     H_    0.389773 0.365670 0.731232 0.112517
H21   H     H_    0.591224 0.726837 0.251453 0.113413
H22   H     H_    0.310447 0.526241 0.910981 0.123645
H23   H     H_    0.075171 0.116901 0.762528 0.101183
H24   H     H_    0.465955 0.659638 0.131561 0.119916
H25   H     H_    0.902840 0.196748 0.543345 0.095894
H26   H     H_    0.206059 0.383481 0.815021 0.112816
H27   H     H_    0.165672 0.104836 0.854103 0.117653
H28   H     H_    0.222447 0.101117 0.974716 0.126138
H29   H     H_    0.188585 0.166795 0.167132 0.120235
H30   H     H_    0.136966 0.159504 0.263611 0.112855
H31   H     H_    0.981908 0.839414 0.751797 0.115847
H32   H     H_    0.136248 0.907570 0.096700 0.124726
H33   H     H_    0.040456 0.836033 0.872818 0.120597
H34   H     H_    0.947998 0.845994 0.637224 0.110835
H35   H     H_    0.086282 0.900299 0.193118 0.116367
H36   H     H_    0.709665 0.803496 0.362819 0.096636
H37   H     H_    0.052119 0.212107 0.416374 0.096539
H38   H     H_    0.855151 0.128349 0.613487 0.089309
H39   H     H_    0.001176 0.884441 0.252932 0.096118
H40   H     H_    0.273147 0.253855 0.622418 0.090752
H41   H     H_    0.783374 0.651537 0.453935 0.039505
H42   H     H_    0.971131 0.582376 0.274066 -0.008977
H43   H     H_    0.303664 0.777443 0.607750 0.121269
H44   H     H_    0.172302 0.641223 0.550283 0.117055
H45   H     H_    0.293040 0.134486 0.583920 0.095430
H46   H     H_    0.119674 0.536412 0.417398 0.120732
H47   H     H_    0.198731 0.567982 0.341471 0.108843
H48   H     H_    0.329704 0.704177 0.397525 0.111805
H49   H     H_    0.125262 0.241843 0.747270 0.086756
H50   H     H_    0.026378 0.747362 0.392718 0.105202
H51   H     H_    0.883429 0.622477 0.517320 0.118110
H52   H     H_    0.956418 0.459330 0.264045 0.121215
N1    N     N_R   0.052570 0.055840 0.395080 -0.039033
N2    N     N_2   0.462871 0.626142 0.996393 -0.105584
N3    N     N_2   0.173459 0.039499 0.057289 -0.104003
N4    N     N_R   0.834730 0.954500 0.499860 -0.035999
N5    N     N_2   0.145215 0.968153 0.004792 -0.105571
N6    N     N_R   0.890190 0.849120 0.355200 -0.042903
N7    N     N_R   0.997110 0.161210 0.539740 -0.042324
N8    N     N_R   0.841940 0.845190 0.395070 -0.034600
N9    N     N_R   0.045360 0.165140 0.499870 -0.041174
N10   N     N_R   0.877490 0.041590 0.539730 -0.045331
N11   N     N_R   0.009810 0.968740 0.355210 -0.042136
N12   N     N_R   0.954640 0.834860 0.500130 -0.049627
N13   N     N_R   0.158060 0.154810 0.604930 -0.038353
N14   N     N_R   0.122510 0.958410 0.460270 -0.042405
N15   N     N_R   0.990190 0.031260 0.644790 -0.046914
N16   N     N_R   0.947430 0.944160 0.604920 -0.020286
N17   N     N_R   0.165270 0.045500 0.500140 -0.042011
N18   N     N_R   0.109810 0.150880 0.644800 -0.039439
N19   N     N_R   0.002890 0.838790 0.460260 -0.058228
N20   N     N_2   0.479701 0.602019 0.941568 -0.103903
Ni1   Ni    Ni4+2 0.104370 0.104380 0.500010 0.207520
Ni2   Ni    Ni4+2 0.895630 0.895620 0.499990 0.281301
Ni3   Ni    Ni4+2 0.006290 0.904630 0.408560 0.228272
Ni4   Ni    Ni4+2 0.993710 0.095370 0.591440 0.207148
O1    O     O_2   0.803129 0.765265 0.516287 -0.613179
O2    O     O_2   0.885987 0.621017 0.272800 -0.579678

loop_
_geom_bond_atom_site_label_1
_geom_bond_atom_site_label_2
_ccdc_geom_bond_type
C66   C68   A    
C46   H11   S    
C63   C65   A    
N1    Ni1   S    
C22   C29   A    
C27   C29   A    
C41   C42   A    
C14   C18   A    
C35   C36   A    
C76   C79   A    
C38   H10   S    
C3    C6    A    
C61   H21   S    
C44   H16   S    
C5    H50   S    
C39   C41   A    
C63   C79   S    
C53   C54   A    
C7    C11   S    
C72   H27   S    
C26   C27   A    
C54   H19   S    
C67   N14   A    
C88   N16   A    
N7    N9    A    
N7    Ni4   S    
C9    C88   A    
C30   C31   A    
C12   C64   A    
C78   N15   A    
C57   C59   A    
C10   C17   A    
C58   C60   A    
C23   C40   A    
C13   C81   S    
C32   H9    S    
C68   N3    S    
C16   N6    A    
C18   C19   A    
N13   N18   A    
C30   H8    S    
C46   C47   A    
C19   C20   A    
C59   N2    S    
C52   N9    A    
C59   C62   A    
C3    N18   A    
N4    N10   A    
C81   O2    D    
C78   H23   S    
C3    H49   S    
C4    C12   A    
N6    N8    A    
C36   C44   A    
N18   Ni4   S    
C85   H46   S    
C65   H35   S    
C57   H18   S    
N12   N19   A    
N16   Ni2   S    
C66   H32   S    
C13   C14   A    
C61   C62   A    
C7    C56   A    
C12   C47   S    
C56   N12   A    
C4    H2    S    
C27   C34   S    
C23   C60   S    
C40   H36   S    
C2    H45   S    
C74   C75   A    
C40   N8    A    
C6    C45   A    
N14   Ni3   S    
C75   H31   S    
C24   C25   A    
N14   N17   A    
C88   H34   S    
C28   H25   S    
C5    C7    A    
C77   H33   S    
C86   C87   A    
C68   C69   A    
C10   H51   S    
C76   N11   A    
C5    N19   A    
C85   C86   A    
C84   H44   S    
C33   C37   A    
C73   N5    S    
C60   C61   A    
C50   H26   S    
C43   C44   A    
C83   H43   S    
C37   C38   A    
C64   N10   A    
C24   H6    S    
C86   H47   S    
C47   C48   A    
C63   C70   A    
C48   H14   S    
C50   C51   A    
C62   H24   S    
C42   C48   A    
C84   C85   A    
C18   H52   S    
C75   C77   A    
C67   H12   S    
C39   C46   A    
C72   C74   A    
C25   H7    S    
C16   C23   A    
C64   H38   S    
C1    C79   A    
N19   Ni3   S    
C37   C82   S    
C83   C84   A    
N9    Ni1   S    
C9    C74   S    
N17   Ni1   S    
C80   O1    D    
N1    N11   A    
C71   C73   A    
N3    N5    D    
C54   C55   A    
C53   N20   S    
C1    H1    S    
C80   H41   S    
N4    Ni2   S    
C14   C15   A    
C8    C31   S    
C34   C52   A    
C87   H48   S    
C31   C32   A    
C2    C8    A    
N2    N20   D    
C4    N4    A    
C52   H37   S    
C15   C17   A    
N15   Ni4   S    
C51   H22   S    
N10   Ni4   S    
N6    Ni3   S    
N11   Ni3   S    
C56   C80   S    
C30   C36   A    
C55   H20   S    
C58   H17   S    
C17   C25   A    
C32   C33   A    
N8    Ni2   S    
C71   C72   A    
C49   C55   A    
C29   H5    S    
C11   C13   A    
C81   H42   S    
C38   C39   A    
C20   C26   A    
C70   H30   S    
C2    N17   A    
C69   H29   S    
C33   C35   A    
C71   H28   S    
C22   C24   A    
C9    C78   A    
C65   C66   A    
C6    C49   S    
C69   C70   A    
C35   C41   A    
C43   H15   S    
C1    N1    A    
C10   C11   A    
C51   C53   A    
C28   C34   A    
C16   H13   S    
C15   C21   A    
C45   N13   A    
C20   C21   A    
C8    C67   A    
C49   C50   A    
C42   C43   A    
N13   Ni1   S    
N15   N16   A    
C76   H39   S    
C73   C77   A    
C19   H3    S    
C45   H40   S    
C82   C83   A    
C57   C58   A    
C21   C22   A    
C26   H4    S    
N12   Ni2   S    
C82   C87   A    
C28   N7    A    
