data_mof_unit_39494.cif
_audit_creation_date              2012-12-10T21:00:35-0500
_audit_creation_method            fapswitch 2.2
_symmetry_space_group_name_H-M    P1
_symmetry_Int_Tables_number       1
_space_group_crystal_system       triclinic
_cell_length_a                    18.097755
_cell_length_b                    18.161921
_cell_length_c                    18.334979
_cell_angle_alpha                 119.845344
_cell_angle_beta                  90.090364
_cell_angle_gamma                 119.888144
_cell_volume                      4275.1724492

loop_
_atom_site_label
_atom_site_type_symbol
_atom_type_description
_atom_site_fract_x
_atom_site_fract_y
_atom_site_fract_z
_atom_type_partial_charge
C1    C     C_R   0.110069 0.220076 0.609881 0.827146
C2    C     C_3   0.450644 0.897553 0.947507 0.049474
C3    C     C_3   0.445446 0.031897 0.020189 -0.138380
C4    C     C_3   0.554556 0.968103 0.979811 -0.138015
C5    C     C_3   0.444238 0.520765 0.480411 -0.189991
C6    C     C_3   0.555764 0.479237 0.519591 -0.191023
C7    C     C_3   0.446362 0.426638 0.414433 -0.129701
C8    C     C_3   0.553640 0.573363 0.585569 -0.131106
C9    C     C_3   0.549955 0.499365 0.448610 0.067312
C10   C     C_3   0.450047 0.500636 0.551392 0.067657
C11   C     C_3   0.548633 0.593387 0.513630 -0.187528
C12   C     C_R   0.889904 0.779925 0.390113 0.834814
C13   C     C_3   0.451369 0.406615 0.486371 -0.185632
C14   C     C_R   0.084470 0.164007 0.838719 -0.215900
C15   C     C_R   0.913899 0.835097 0.161075 -0.207434
C16   C     C_R   0.392978 0.781247 0.888343 0.763976
C17   C     C_R   0.607022 0.218753 0.111657 0.763847
C18   C     C_R   0.083922 0.121519 0.750256 0.449390
C19   C     C_R   0.914810 0.877751 0.249664 0.512127
C20   C     C_R   0.016925 0.098234 0.686542 0.009055
C21   C     C_R   0.982459 0.901751 0.313289 0.003868
C22   C     C_R   0.952098 0.117457 0.712642 -0.215265
C23   C     C_3   0.984090 0.430947 0.414200 -0.126294
C24   C     C_R   0.047526 0.883090 0.286968 -0.204384
C25   C     C_R   0.953224 0.159011 0.800691 -0.122231
C26   C     C_R   0.045993 0.841342 0.198799 -0.129454
C27   C     C_R   0.019213 0.182109 0.863568 -0.195752
C28   C     C_R   0.979368 0.817505 0.136008 -0.203592
C29   C     C_R   0.957619 0.943486 0.535444 -0.198547
C30   C     C_R   0.042282 0.056517 0.464514 -0.215681
C31   C     C_R   0.946450 0.892259 0.444577 -0.024594
C32   C     C_R   0.053440 0.107744 0.555386 -0.044540
C33   C     C_R   0.988703 0.949427 0.408283 0.042016
C34   C     C_3   0.015914 0.569065 0.585806 -0.133470
C35   C     C_R   0.011043 0.050573 0.591641 0.064552
C36   C     C_R   0.563307 0.471925 0.717046 -0.123049
C37   C     C_R   0.436688 0.528070 0.282955 -0.124530
C38   C     C_R   0.524945 0.458910 0.779444 -0.112899
C39   C     C_R   0.475049 0.541105 0.220563 -0.113607
C40   C     C_R   0.111678 0.501619 0.890522 0.787738
C41   C     C_R   0.888339 0.498400 0.109495 0.789294
C42   C     C_R   0.571845 0.536067 0.871147 0.133853
C43   C     C_R   0.428166 0.463945 0.128861 0.134543
C44   C     C_R   0.657570 0.626117 0.899256 -0.137299
C45   C     C_3   0.445277 0.966113 0.924873 -0.158837
C46   C     C_R   0.342460 0.373872 0.100743 -0.138436
C47   C     C_R   0.695664 0.638702 0.836649 -0.147925
C48   C     C_R   0.304368 0.361266 0.163345 -0.147279
C49   C     C_R   0.648819 0.561461 0.745682 -0.123253
C50   C     C_R   0.351195 0.438511 0.254312 -0.121444
C51   C     C_R   0.585190 0.522875 0.996759 -0.216145
C52   C     C_R   0.414821 0.477154 0.003258 -0.215864
C53   C     C_R   0.551258 0.502470 0.057740 -0.025156
C54   C     C_R   0.448749 0.497550 0.942271 -0.025506
C55   C     C_R   0.465518 0.479950 0.062082 -0.005206
C56   C     C_3   0.554725 0.033888 0.075127 -0.158117
C57   C     C_R   0.534493 0.520075 0.937932 -0.004877
C58   C     C_R   0.185370 0.826525 0.002463 -0.113987
C59   C     C_R   0.814711 0.173510 0.997517 -0.116465
C60   C     C_R   0.153966 0.748431 0.016337 -0.134066
C61   C     C_R   0.846148 0.251598 0.983633 -0.134828
C62   C     C_R   0.065617 0.657967 0.967093 0.150590
C63   C     C_R   0.934454 0.342121 0.032981 0.150545
C64   C     C_R   0.392593 0.500143 0.607925 0.770649
C65   C     C_R   0.607407 0.499857 0.392075 0.771048
C66   C     C_R   0.008822 0.647049 0.904748 -0.151983
C67   C     C_3   0.549861 0.038084 0.957894 -0.183951
C68   C     C_R   0.991176 0.353109 0.095451 -0.152540
C69   C     C_R   0.040599 0.725213 0.890911 -0.150489
C70   C     C_R   0.959366 0.274949 0.109297 -0.149394
C71   C     C_R   0.128832 0.814813 0.939651 -0.096549
C72   C     C_R   0.871175 0.185286 0.060447 -0.095564
C73   C     C_R   0.975417 0.569139 0.031929 -0.268948
C74   C     C_R   0.024688 0.430975 0.968178 -0.269317
C75   C     C_R   0.943718 0.496003 0.051914 -0.047851
C76   C     C_R   0.056352 0.504075 0.948155 -0.047905
C77   C     C_R   0.967876 0.424984 0.018644 -0.009983
C78   C     C_3   0.450142 0.961916 0.042105 -0.183944
C79   C     C_R   0.032211 0.575112 0.981442 -0.009984
C80   C     C_R   0.393739 0.498348 0.887120 0.806995
C81   C     C_R   0.606262 0.501657 0.112884 0.808077
C82   C     C_R   0.108965 0.500311 0.607874 0.773915
C83   C     C_R   0.891036 0.499692 0.392126 0.776981
C84   C     C_3   0.078528 0.526748 0.483683 -0.182488
C85   C     C_3   0.921476 0.473264 0.516323 -0.187214
C86   C     C_3   0.042387 0.595062 0.517335 -0.169456
C87   C     C_3   0.957617 0.404950 0.482671 -0.164176
C88   C     C_3   0.948784 0.499292 0.448715 0.049246
C89   C     C_3   0.549357 0.102447 0.052493 0.049583
C90   C     C_3   0.051220 0.500718 0.551290 0.051282
H1    H     H_    0.076300 0.673065 0.530626 0.149953
H2    H     H_    0.096540 0.827441 0.179130 0.143634
H3    H     H_    0.924252 0.900122 0.563419 0.161503
H4    H     H_    0.075613 0.099879 0.436530 0.185127
H5    H     H_    0.679114 0.571025 0.697533 0.121146
H6    H     H_    0.320900 0.428930 0.302457 0.122600
H7    H     H_    0.527116 0.412086 0.646535 0.124949
H8    H     H_    0.472861 0.587907 0.353465 0.124271
H9    H     H_    0.459452 0.388247 0.756416 0.131423
H10   H     H_    0.540526 0.611782 0.243591 0.131380
H11   H     H_    0.695047 0.686185 0.969631 0.148645
H12   H     H_    0.923700 0.326949 0.469384 0.151280
H13   H     H_    0.304998 0.313804 0.030367 0.148912
H14   H     H_    0.143906 0.548771 0.471215 0.132985
H15   H     H_    0.856098 0.451242 0.528791 0.132409
H16   H     H_    0.761845 0.707989 0.858682 0.129959
H17   H     H_    0.238205 0.291962 0.141310 0.131045
H18   H     H_    0.650486 0.537557 0.992783 0.158169
H19   H     H_    0.349526 0.462475 0.007238 0.158729
H20   H     H_    0.153341 0.875251 0.928881 0.127166
H21   H     H_    0.846640 0.124852 0.071225 0.130982
H22   H     H_    0.253471 0.896134 0.040389 0.118736
H23   H     H_    0.019923 0.214291 0.931790 0.157702
H24   H     H_    0.746640 0.103857 0.959512 0.118850
H25   H     H_    0.198301 0.758112 0.065042 0.106914
H26   H     H_    0.801868 0.241872 0.934841 0.106331
H27   H     H_    0.940382 0.577905 0.866660 0.125329
H28   H     H_    0.059579 0.422306 0.133629 0.126359
H29   H     H_    0.996836 0.716334 0.842423 0.125687
H30   H     H_    0.003071 0.283879 0.157880 0.129367
H31   H     H_    0.956930 0.623362 0.056734 0.180291
H32   H     H_    0.043210 0.376790 0.943411 0.180571
H33   H     H_    0.970339 0.374243 0.342973 0.149279
H34   H     H_    0.978335 0.785148 0.067683 0.159630
H35   H     H_    0.029666 0.625770 0.657033 0.146456
H36   H     H_    0.591120 0.070456 0.923554 0.125414
H37   H     H_    0.408887 0.929545 0.076448 0.125628
H38   H     H_    0.399794 0.937260 0.862452 0.139643
H39   H     H_    0.600208 0.062741 0.137547 0.140363
H40   H     H_    0.400689 0.058681 0.037142 0.142740
H41   H     H_    0.599313 0.941319 0.962857 0.142988
H42   H     H_    0.403318 0.365807 0.343371 0.149922
H43   H     H_    0.596685 0.634193 0.656631 0.149227
H44   H     H_    0.397717 0.538434 0.466201 0.125036
H45   H     H_    0.135146 0.182867 0.888738 0.165066
H46   H     H_    0.602286 0.461569 0.533802 0.124784
H47   H     H_    0.589421 0.669855 0.523596 0.131722
H48   H     H_    0.410580 0.330146 0.476405 0.133695
H49   H     H_    0.076938 0.934505 0.663391 0.335787
H50   H     H_    0.870772 0.032437 0.412631 0.364643
H51   H     H_    0.862757 0.815679 0.111097 0.163911
H52   H     H_    0.900296 0.099587 0.664451 0.140490
H53   H     H_    0.099806 0.901496 0.335076 0.154773
H54   H     H_    0.902850 0.173321 0.820195 0.140620
O1    O     O_3   0.251620 0.500000 0.748430 -0.488412
O2    O     O_R   0.570330 0.268390 0.136490 -0.640595
O3    O     O_R   0.134680 0.268390 0.572240 -0.648812
O4    O     O_R   0.865320 0.731610 0.427760 -0.652683
O5    O     O_R   0.306670 0.731630 0.863510 -0.635659
O6    O     O_R   0.693330 0.268370 0.136490 -0.635503
O7    O     O_R   0.135450 0.439270 0.865360 -0.647325
O8    O     O_R   0.864550 0.560730 0.134640 -0.647913
O9    O     O_R   0.429670 0.560710 0.692610 -0.641338
O10   O     O_R   0.570330 0.439290 0.307390 -0.640783
O11   O     O_R   0.308540 0.439240 0.865360 -0.631464
O12   O     O_3   0.748380 0.500000 0.251570 -0.487237
O13   O     O_R   0.691460 0.560760 0.134640 -0.631686
O14   O     O_R   0.133580 0.439310 0.571150 -0.636997
O15   O     O_R   0.866420 0.560690 0.428850 -0.641178
O16   O     O_R   0.430770 0.560690 0.864590 -0.637003
O17   O     O_R   0.569230 0.439310 0.135410 -0.637197
O18   O     O_R   0.133580 0.560760 0.692610 -0.644114
O19   O     O_R   0.866420 0.439240 0.307390 -0.643033
O20   O     O_2   0.222360 0.161581 0.687485 -0.279854
O21   O     O_2   0.228801 0.128190 0.800346 -0.321348
O22   O     O_3   0.117079 0.972162 0.639858 -0.540022
O23   O     O_R   0.134680 0.560740 0.864590 -0.633403
O24   O     O_2   0.767977 0.867531 0.199228 -0.292688
O25   O     O_2   0.777549 0.838310 0.314381 -0.346071
O26   O     O_3   0.881390 0.027217 0.357779 -0.561397
O27   O     O_R   0.865320 0.439260 0.135410 -0.632941
O28   O     O_R   0.306670 0.439270 0.571150 -0.641675
O29   O     O_R   0.693330 0.560730 0.428850 -0.644552
O30   O     O_R   0.135450 0.268370 0.694460 -0.619840
O31   O     O_R   0.864550 0.731630 0.305540 -0.622905
O32   O     O_R   0.429670 0.731610 0.863510 -0.640528
S1    S     S_3+6 0.167146 0.098483 0.721135 0.015125
S2    S     S_3+6 0.831215 0.899974 0.278963 0.007141
Zn1   Zn    Zn3+2 0.207400 0.586780 0.791530 0.971696
Zn2   Zn    Zn3+2 0.792600 0.413220 0.208470 0.974164
Zn3   Zn    Zn3+2 0.208510 0.413230 0.792630 0.997587
Zn4   Zn    Zn3+2 0.791490 0.586770 0.207370 0.997523
Zn5   Zn    Zn3+2 0.383150 0.586740 0.791530 0.977822
Zn6   Zn    Zn3+2 0.616850 0.413260 0.208470 0.978035
Zn7   Zn    Zn3+2 0.207400 0.413250 0.618010 0.974619
Zn8   Zn    Zn3+2 0.792600 0.586750 0.381990 0.967674

loop_
_geom_bond_atom_site_label_1
_geom_bond_atom_site_label_2
_ccdc_geom_bond_type
O32   Zn5   S    
O23   Zn1   S    
C59   H24   S    
C3    H40   S    
O21   S1    D    
C14   C18   A    
C17   O6    A    
C76   C79   A    
C67   C89   S    
C6    C9    S    
O12   Zn6   S    
C47   C49   A    
C41   O8    A    
O3    Zn7   S    
C15   C19   A    
C41   O27   A    
C69   H29   S    
C84   C90   S    
O26   S2    S    
C58   H22   S    
O15   Zn8   S    
C53   C81   S    
C19   C21   A    
C84   C86   S    
C5    C11   S    
C86   H1    S    
C8    C11   S    
C82   O14   A    
C86   C88   S    
C58   C71   A    
C80   O16   A    
C48   H17   S    
C21   C33   S    
C14   H45   S    
C45   H38   S    
C26   H2    S    
C71   H20   S    
O1    Zn3   S    
O5    Zn1   S    
C56   C78   S    
O30   Zn3   S    
C60   C62   A    
C34   C86   S    
C39   H10   S    
C69   C71   A    
C40   O23   A    
C6    H46   S    
C68   H28   S    
C15   H51   S    
C20   C35   S    
C28   H34   S    
O9    Zn5   S    
C18   S1    S    
C70   H30   S    
C51   H18   S    
C22   C25   A    
O10   Zn6   S    
C45   C67   S    
C31   C33   A    
C36   H7    S    
C51   C57   A    
C14   C27   A    
C2    C16   S    
O16   Zn5   S    
C56   H39   S    
C44   C47   A    
C59   C72   A    
C16   O32   A    
C48   C50   A    
C83   C88   S    
C72   H21   S    
C23   C87   S    
C4    C56   S    
C73   C75   A    
C22   H52   S    
C42   C44   A    
C85   H15   S    
C78   H37   S    
C42   C57   S    
C37   H8    S    
C29   H3    S    
C52   C54   A    
O7    Zn3   S    
C4    H41   S    
C54   C80   S    
C53   C55   A    
C2    C45   S    
C5    H44   S    
O29   Zn8   S    
C46   C48   A    
C1    O30   A    
C59   C61   A    
C81   O13   A    
C23   C84   S    
C62   C66   A    
C85   C87   S    
C32   C35   A    
C62   C79   S    
C17   C89   S    
O18   Zn1   S    
C67   H36   S    
C5    C7    S    
O12   Zn4   S    
C6    C8    S    
C82   O18   A    
C58   C60   A    
C64   O9    A    
C74   C77   A    
C1    C32   S    
C40   C76   S    
C40   O7    A    
O1    Zn7   S    
C51   C53   A    
C34   C85   S    
C64   O28   A    
H49   O22   S    
C2    C4    S    
C34   C90   S    
C65   O10   A    
C2    C78   S    
C41   C75   S    
C87   H12   S    
C9    C11   S    
C7    C13   S    
O28   Zn7   S    
C47   H16   S    
O1    Zn1   S    
C61   H26   S    
C61   C63   A    
C73   C79   A    
O22   S1    S    
C49   H5    S    
C75   C77   A    
C19   S2    S    
C7    H42   S    
C16   O5    A    
C74   C76   A    
O31   Zn4   S    
C27   H23   S    
C68   C70   A    
C56   C89   S    
C74   H32   S    
C20   C22   A    
C73   H31   S    
C23   C88   S    
C12   O31   A    
C12   C31   S    
C84   H14   S    
O27   Zn2   S    
C1    O3    A    
C25   H54   S    
O13   Zn4   S    
C21   C24   A    
O8    Zn4   S    
O14   Zn7   S    
O25   S2    D    
C80   O11   A    
O6    Zn2   S    
C63   C77   S    
C85   C88   S    
C43   C55   S    
C7    C9    S    
C83   O19   A    
C63   C68   A    
H50   O26   S    
C66   H27   S    
C30   C33   A    
C65   O29   A    
C8    H43   S    
C81   O17   A    
C8    C10   S    
C10   C64   S    
O11   Zn3   S    
C24   C26   A    
C38   H9    S    
C10   C13   S    
C4    C67   S    
C39   C43   A    
C44   H11   S    
C52   C55   A    
C38   C42   A    
O12   Zn8   S    
C25   C27   A    
C46   H13   S    
C29   C35   A    
C26   C28   A    
C82   C90   S    
O2    Zn6   S    
C3    C89   S    
C13   H48   S    
C12   O4    A    
O17   Zn6   S    
C36   C38   A    
O1    Zn5   S    
C11   H47   S    
C5    C10   S    
C30   H4    S    
C6    C13   S    
C30   C32   A    
C37   C50   A    
O12   Zn2   S    
C50   H6    S    
C15   C28   A    
C52   H19   S    
C34   H35   S    
O24   S2    D    
C23   H33   S    
C3    C45   S    
C17   O2    A    
C18   C20   A    
C43   C46   A    
C9    C65   S    
C36   C49   A    
C66   C69   A    
C37   C39   A    
C83   O15   A    
C29   C31   A    
C87   C90   S    
O19   Zn2   S    
C60   H25   S    
C70   C72   A    
C24   H53   S    
C3    C78   S    
O4    Zn8   S    
O20   S1    D    
C54   C57   A    
