data_mof_unit_34261.cif
_audit_creation_date              2012-10-26T17:11:27-0400
_audit_creation_method            fapswitch 2.2
_symmetry_space_group_name_H-M    P1
_symmetry_Int_Tables_number       1
_space_group_crystal_system       triclinic
_cell_length_a                    27.994725
_cell_length_b                    18.77781
_cell_length_c                    16.866458
_cell_angle_alpha                 90.004261
_cell_angle_beta                  62.473558
_cell_angle_gamma                 90.004924
_cell_volume                      7862.66120776

loop_
_atom_site_label
_atom_site_type_symbol
_atom_type_description
_atom_site_fract_x
_atom_site_fract_y
_atom_site_fract_z
_atom_type_partial_charge
C1    C     C_R   0.295039 0.728299 0.329646 0.829698
C2    C     C_R   0.705004 0.271797 0.670285 0.805913
C3    C     C_R   0.705036 0.728148 0.670308 0.805873
C4    C     C_R   0.295057 0.271676 0.329678 0.819082
C5    C     C_R   0.794997 0.228205 0.329714 0.806167
C6    C     C_R   0.204997 0.771776 0.670337 0.800601
C7    C     C_R   0.204954 0.228302 0.670318 0.800306
C8    C     C_R   0.794965 0.771851 0.329691 0.806134
C9    C     C_R   0.415447 0.000006 0.441440 0.070814
C10   C     C_R   0.610663 0.000054 0.467734 0.069952
C11   C     C_R   0.889056 0.499990 0.533473 0.069970
C12   C     C_R   0.084418 0.499981 0.559457 0.070713
C13   C     C_R   0.615001 0.871935 0.449217 -0.222650
C14   C     C_R   0.421712 0.128499 0.425529 -0.222666
C15   C     C_R   0.421610 0.871454 0.426264 -0.219459
C16   C     C_R   0.615125 0.128147 0.448832 -0.227318
C17   C     C_R   0.078020 0.371538 0.575881 -0.224338
C18   C     C_R   0.884789 0.628175 0.551738 -0.223167
C19   C     C_R   0.884644 0.371832 0.552086 -0.227848
C20   C     C_R   0.078071 0.628433 0.575737 -0.222039
C21   C     C_R   0.220839 0.767992 0.953466 0.105808
C22   C     C_R   0.778891 0.232597 0.047211 0.109005
C23   C     C_R   0.779175 0.767916 0.046569 0.107876
C24   C     C_R   0.221053 0.232756 0.952834 0.107790
C25   C     C_R   0.721135 0.267451 0.952766 0.109007
C26   C     C_R   0.279496 0.732636 0.046285 0.106912
C27   C     C_R   0.279052 0.267018 0.047105 0.107989
C28   C     C_R   0.720845 0.732053 0.953411 0.107914
C29   C     C_R   0.241762 0.699114 0.947375 -0.169054
C30   C     C_R   0.722324 0.229171 0.089512 -0.171579
C31   C     C_R   0.758382 0.698948 0.052690 -0.173606
C32   C     C_R   0.277627 0.229406 0.910311 -0.170989
C33   C     C_R   0.777703 0.270877 0.910464 -0.171584
C34   C     C_R   0.258572 0.801520 0.052384 -0.170328
C35   C     C_R   0.222479 0.270361 0.089628 -0.169693
C36   C     C_R   0.741639 0.801021 0.947289 -0.173672
C37   C     C_R   0.270721 0.681585 0.993396 -0.169661
C38   C     C_R   0.693746 0.246495 0.042790 -0.173872
C39   C     C_R   0.729576 0.681166 0.006496 -0.170950
C40   C     C_R   0.306323 0.246437 0.956938 -0.169844
C41   C     C_R   0.806281 0.253553 0.957187 -0.173839
C42   C     C_R   0.229607 0.819048 0.006361 -0.170271
C43   C     C_R   0.193783 0.253333 0.043002 -0.169323
C44   C     C_R   0.770445 0.818802 0.993483 -0.171042
C45   C     C_R   0.144534 0.829896 0.943800 -0.198014
C46   C     C_R   0.855199 0.170121 0.056401 -0.200924
C47   C     C_R   0.855370 0.830037 0.056302 -0.199899
C48   C     C_R   0.144669 0.170381 0.943711 -0.200046
C49   C     C_R   0.644819 0.329910 0.943583 -0.200981
C50   C     C_R   0.355686 0.670508 0.056057 -0.198311
C51   C     C_R   0.355397 0.329490 0.056245 -0.199451
C52   C     C_R   0.644643 0.669942 0.943687 -0.199841
C53   C     C_R   0.117822 0.851983 0.895095 -0.058786
C54   C     C_R   0.881998 0.147874 0.105002 -0.063046
C55   C     C_R   0.882033 0.852225 0.105041 -0.062845
C56   C     C_R   0.117842 0.148157 0.895139 -0.058616
C57   C     C_R   0.618009 0.352137 0.894993 -0.062884
C58   C     C_R   0.382269 0.648172 0.104861 -0.059040
C59   C     C_R   0.382182 0.351800 0.104850 -0.059221
C60   C     C_R   0.617972 0.647767 0.894955 -0.062655
C61   C     C_R   0.136406 0.829545 0.807012 -0.227305
C62   C     C_R   0.863364 0.170040 0.193196 -0.198370
C63   C     C_R   0.863365 0.829967 0.193198 -0.197637
C64   C     C_R   0.136394 0.170474 0.807010 -0.227855
C65   C     C_R   0.636638 0.329962 0.806803 -0.198514
C66   C     C_R   0.363632 0.670511 0.192995 -0.222584
C67   C     C_R   0.363612 0.329523 0.193000 -0.223639
C68   C     C_R   0.636636 0.670031 0.806802 -0.197731
C69   C     C_R   0.182407 0.787425 0.766003 -0.056446
C70   C     C_R   0.817425 0.212235 0.234268 -0.057678
C71   C     C_R   0.817417 0.787755 0.234154 -0.057986
C72   C     C_R   0.182365 0.212632 0.765897 -0.056744
C73   C     C_R   0.682583 0.287777 0.765727 -0.057661
C74   C     C_R   0.317713 0.712795 0.233937 -0.057681
C75   C     C_R   0.317674 0.287301 0.234088 -0.059701
C76   C     C_R   0.682588 0.712237 0.765842 -0.057973
C77   C     C_R   0.209142 0.765471 0.814877 -0.187439
C78   C     C_R   0.790697 0.234395 0.185577 -0.200723
C79   C     C_R   0.790673 0.765791 0.185308 -0.199730
C80   C     C_R   0.209047 0.234884 0.814634 -0.187400
C81   C     C_R   0.709322 0.265638 0.814408 -0.200792
C82   C     C_R   0.291125 0.735036 0.184943 -0.186877
C83   C     C_R   0.291044 0.264945 0.185311 -0.182493
C84   C     C_R   0.709339 0.734188 0.814681 -0.199776
C85   C     C_R   0.195852 0.632127 0.531000 0.804941
C86   C     C_R   0.797240 0.368466 0.493069 0.818486
C87   C     C_R   0.797259 0.631526 0.493017 0.818400
C88   C     C_R   0.195848 0.367868 0.531015 0.803886
C89   C     C_R   0.702746 0.131539 0.507040 0.818692
C90   C     C_R   0.304358 0.867987 0.468255 0.854144
C91   C     C_R   0.304440 0.132023 0.467711 0.839936
C92   C     C_R   0.702720 0.868483 0.507112 0.818498
C93   C     C_R   0.190583 0.786985 0.903895 0.069022
C94   C     C_R   0.809176 0.213140 0.096558 0.072882
C95   C     C_R   0.809302 0.787163 0.096243 0.072809
C96   C     C_R   0.190645 0.213507 0.903598 0.069170
C97   C     C_R   0.690847 0.286900 0.903423 0.072838
C98   C     C_R   0.309712 0.713573 0.095899 0.068846
C99   C     C_R   0.309451 0.286305 0.096340 0.066988
C100  C     C_R   0.690714 0.712810 0.903743 0.072757
C101  C     C_R   0.926486 0.903238 0.066652 0.811506
C102  C     C_R   0.073514 0.096822 0.933373 0.802733
C103  C     C_R   0.073461 0.903157 0.933393 0.803948
C104  C     C_R   0.926433 0.096735 0.066675 0.810300
C105  C     C_R   0.426489 0.403171 0.066625 0.803574
C106  C     C_R   0.573515 0.596760 0.933347 0.810675
C107  C     C_R   0.573569 0.403268 0.933323 0.809388
C108  C     C_R   0.426557 0.596874 0.066597 0.804814
C109  C     C_R   0.029614 0.628725 0.570705 0.096015
C110  C     C_R   0.932616 0.371413 0.558586 0.091895
C111  C     C_R   0.932772 0.628585 0.558180 0.092025
C112  C     C_R   0.029511 0.371255 0.570988 0.096087
C113  C     C_R   0.566940 0.128622 0.443109 0.092034
C114  C     C_R   0.469810 0.871196 0.431916 0.096102
C115  C     C_R   0.469943 0.128812 0.431222 0.096787
C116  C     C_R   0.566787 0.871448 0.443664 0.092186
C117  C     C_R   0.001526 0.692518 0.579289 -0.194967
C118  C     C_R   0.953208 0.307590 0.573857 -0.203262
C119  C     C_R   0.953437 0.692434 0.573238 -0.195759
C120  C     C_R   0.001329 0.307493 0.579821 -0.198615
C121  C     C_R   0.546282 0.192472 0.428100 -0.203387
C122  C     C_R   0.497846 0.807389 0.423436 -0.195449
C123  C     C_R   0.498086 0.192589 0.422442 -0.199552
C124  C     C_R   0.546043 0.807538 0.429024 -0.195761
C125  C     C_R   0.959774 0.564395 0.551908 0.032047
C126  C     C_R   0.008291 0.435547 0.558685 0.030443
C127  C     C_R   0.008352 0.564420 0.558519 0.030844
C128  C     C_R   0.959698 0.435578 0.552107 0.032335
C129  C     C_R   0.491138 0.064501 0.443556 0.029860
C130  C     C_R   0.539692 0.935625 0.450251 0.031489
C131  C     C_R   0.539770 0.064470 0.449941 0.031770
C132  C     C_R   0.491065 0.935570 0.443908 0.030413
C133  C     C_R   0.465473 0.000035 0.444140 -0.043691
C134  C     C_R   0.563012 0.000056 0.457253 -0.045494
C135  C     C_R   0.936527 0.499986 0.544576 -0.045429
C136  C     C_R   0.034026 0.499980 0.557951 -0.046195
C137  C     C_R   0.390931 0.934488 0.439540 0.028234
C138  C     C_R   0.634999 0.065421 0.470706 0.043884
C139  C     C_R   0.634944 0.934672 0.470884 0.043036
C140  C     C_R   0.390968 0.065463 0.439005 0.030053
C141  C     C_R   0.864832 0.434587 0.530097 0.044348
C142  C     C_R   0.109103 0.565485 0.560993 0.042348
C143  C     C_R   0.109083 0.434481 0.561045 0.041999
C144  C     C_R   0.864890 0.565401 0.529948 0.043517
C145  C     C_R   0.338961 0.934391 0.443067 -0.170491
C146  C     C_R   0.680760 0.065079 0.487670 -0.188147
C147  C     C_R   0.680726 0.934976 0.487781 -0.187787
C148  C     C_R   0.338972 0.065451 0.442333 -0.182892
C149  C     C_R   0.819216 0.434926 0.512651 -0.188158
C150  C     C_R   0.162194 0.565576 0.553305 -0.189332
C151  C     C_R   0.162186 0.434407 0.553329 -0.189097
C152  C     C_R   0.819246 0.565065 0.512572 -0.187771
C153  C     C_R   0.319347 0.999630 0.426093 -0.107730
C154  C     C_R   0.706617 0.000023 0.484450 -0.101406
C155  C     C_R   0.793402 0.499997 0.515757 -0.101558
C156  C     C_R   0.185152 0.499995 0.559882 -0.088472
Cu1   Cu    Cu3+1 0.209920 0.785290 0.495070 0.961742
Cu2   Cu    Cu3+1 0.790080 0.214710 0.504930 0.960219
Cu3   Cu    Cu3+1 0.790080 0.785290 0.504930 0.961240
Cu4   Cu    Cu3+1 0.209920 0.214710 0.495070 0.974533
Cu5   Cu    Cu3+1 0.709920 0.285290 0.495070 0.960057
Cu6   Cu    Cu3+1 0.290080 0.714710 0.504930 0.968631
Cu7   Cu    Cu3+1 0.290080 0.285290 0.504930 0.966156
Cu8   Cu    Cu3+1 0.709920 0.714710 0.495070 0.961188
Cu9   Cu    Cu3+1 0.495240 0.500000 0.924150 0.957091
Cu10  Cu    Cu3+1 0.504760 0.500000 0.075850 0.943182
Cu11  Cu    Cu3+1 0.995240 1.000000 0.924150 0.937703
Cu12  Cu    Cu3+1 0.004760 0.000000 0.075850 0.956823
H1    H     H_    0.566845 0.757544 0.422689 0.136256
H2    H     H_    0.482691 0.242633 0.411666 0.137175
H3    H     H_    0.482366 0.757304 0.412946 0.137455
H4    H     H_    0.567150 0.242450 0.421530 0.135632
H5    H     H_    0.016728 0.257446 0.590573 0.136927
H6    H     H_    0.932694 0.742454 0.579431 0.136149
H7    H     H_    0.932394 0.257595 0.580248 0.135579
H8    H     H_    0.016973 0.742579 0.589912 0.136999
H9    H     H_    0.637640 0.823192 0.429676 0.177045
H10   H     H_    0.411101 0.177515 0.404383 0.171114
H11   H     H_    0.411020 0.822379 0.405216 0.172233
H12   H     H_    0.637799 0.176873 0.429308 0.175829
H13   H     H_    0.088968 0.322417 0.596242 0.171159
H14   H     H_    0.862294 0.677047 0.570588 0.177130
H15   H     H_    0.862090 0.322996 0.570985 0.175925
H16   H     H_    0.088997 0.677559 0.596130 0.171346
H17   H     H_    0.214805 0.872957 0.011002 0.133209
H18   H     H_    0.849804 0.257458 0.923256 0.132579
H19   H     H_    0.785155 0.872768 0.988821 0.134051
H20   H     H_    0.150260 0.257169 0.077129 0.133658
H21   H     H_    0.650223 0.242588 0.076721 0.132538
H22   H     H_    0.285500 0.627666 0.988774 0.134767
H23   H     H_    0.349847 0.242610 0.922812 0.133305
H24   H     H_    0.714865 0.627201 0.011159 0.134070
H25   H     H_    0.235069 0.658504 0.907989 0.140828
H26   H     H_    0.700177 0.211920 0.158382 0.131711
H27   H     H_    0.765058 0.658472 0.092236 0.135528
H28   H     H_    0.299692 0.212425 0.841328 0.133521
H29   H     H_    0.799850 0.288127 0.841593 0.131758
H30   H     H_    0.265254 0.842120 0.091796 0.133709
H31   H     H_    0.200412 0.287347 0.158609 0.133976
H32   H     H_    0.734962 0.841497 0.907744 0.135474
H33   H     H_    0.130101 0.847000 0.012409 0.149867
H34   H     H_    0.868714 0.151633 0.988541 0.148811
H35   H     H_    0.869875 0.846989 0.987622 0.148985
H36   H     H_    0.131239 0.151747 0.011488 0.149463
H37   H     H_    0.631307 0.348404 0.011440 0.148856
H38   H     H_    0.370149 0.653461 0.987419 0.149973
H39   H     H_    0.368833 0.348102 0.988458 0.149779
H40   H     H_    0.630142 0.652985 0.012365 0.149058
H41   H     H_    0.116261 0.847336 0.769040 0.174525
H42   H     H_    0.883468 0.152086 0.231167 0.182365
H43   H     H_    0.883457 0.847865 0.231216 0.182631
H44   H     H_    0.116261 0.152558 0.769065 0.174228
H45   H     H_    0.616525 0.347900 0.768839 0.182343
H46   H     H_    0.383661 0.652505 0.231063 0.176792
H47   H     H_    0.383701 0.347518 0.230980 0.176878
H48   H     H_    0.616538 0.652145 0.768789 0.182637
H49   H     H_    0.245684 0.734170 0.782724 0.152523
H50   H     H_    0.755000 0.267347 0.217185 0.148685
H51   H     H_    0.754125 0.734492 0.217464 0.148613
H52   H     H_    0.244715 0.267895 0.783045 0.152807
H53   H     H_    0.745024 0.232693 0.782797 0.148660
H54   H     H_    0.254654 0.766486 0.217038 0.150226
H55   H     H_    0.255406 0.231878 0.216880 0.156221
H56   H     H_    0.745890 0.765481 0.782522 0.148590
O1    O     O_R   0.255040 0.869590 0.478480 -0.546112
O2    O     O_R   0.744960 0.130410 0.521520 -0.550351
O3    O     O_R   0.744960 0.869590 0.521520 -0.550728
O4    O     O_R   0.255040 0.130410 0.478480 -0.535795
O5    O     O_R   0.755040 0.369590 0.478480 -0.550108
O6    O     O_R   0.244960 0.630410 0.521520 -0.549376
O7    O     O_R   0.244960 0.369590 0.521520 -0.548928
O8    O     O_R   0.755040 0.630410 0.478480 -0.550519
O9    O     O_R   0.182050 0.796550 0.624440 -0.600154
O10   O     O_R   0.817950 0.203450 0.375560 -0.582939
O11   O     O_R   0.817950 0.796550 0.375560 -0.582695
O12   O     O_R   0.182050 0.203450 0.624440 -0.600120
O13   O     O_R   0.682050 0.296550 0.624440 -0.583027
O14   O     O_R   0.317950 0.703450 0.375560 -0.592940
O15   O     O_R   0.317950 0.296550 0.375560 -0.593630
O16   O     O_R   0.682050 0.703450 0.624440 -0.582756
O17   O     O_R   0.250530 0.763330 0.367210 -0.574205
O18   O     O_R   0.749470 0.236670 0.632790 -0.602093
O19   O     O_R   0.749470 0.763330 0.632790 -0.601581
O20   O     O_R   0.250530 0.236670 0.367210 -0.571167
O21   O     O_R   0.750530 0.263330 0.367210 -0.602016
O22   O     O_R   0.249470 0.736670 0.632790 -0.587045
O23   O     O_R   0.249470 0.263330 0.632790 -0.587789
O24   O     O_R   0.750530 0.736670 0.367210 -0.601474
O25   O     O_R   0.177260 0.690030 0.513710 -0.599511
O26   O     O_R   0.822740 0.309970 0.486290 -0.603577
O27   O     O_R   0.822740 0.690030 0.486290 -0.603619
O28   O     O_R   0.177260 0.309970 0.513710 -0.600555
O29   O     O_R   0.677260 0.190030 0.513710 -0.603729
O30   O     O_R   0.322740 0.809970 0.486290 -0.607055
O31   O     O_R   0.322740 0.190030 0.486290 -0.606827
O32   O     O_R   0.677260 0.809970 0.513710 -0.603706
O33   O     O_R   0.051640 0.926880 0.885090 -0.589876
O34   O     O_R   0.948360 0.073120 0.114910 -0.580871
O35   O     O_R   0.948360 0.926880 0.114910 -0.580452
O36   O     O_R   0.051640 0.073120 0.885090 -0.590277
O37   O     O_R   0.551640 0.426880 0.885090 -0.581137
O38   O     O_R   0.448360 0.573120 0.114910 -0.587451
O39   O     O_R   0.448360 0.426880 0.114910 -0.587944
O40   O     O_R   0.551640 0.573120 0.885090 -0.580697
O41   O     O_R   0.940620 0.926560 0.986760 -0.594631
O42   O     O_R   0.059380 0.073440 0.013240 -0.592980
O43   O     O_R   0.059380 0.926560 0.013240 -0.592916
O44   O     O_R   0.940620 0.073440 0.986760 -0.594759
O45   O     O_R   0.440620 0.426560 0.986760 -0.593393
O46   O     O_R   0.559380 0.573440 0.013240 -0.594813
O47   O     O_R   0.559380 0.426560 0.013240 -0.595002
O48   O     O_R   0.440620 0.573440 0.986760 -0.593250
C157  C     C_2   0.293003 0.997947 0.365922 0.874568
O49   O     O_2   0.279137 0.052840 0.343488 -0.592599
O50   O     O_R   0.289953 0.934041 0.325759 -0.761686
H57   H     H_    0.273162 0.940061 0.284240 0.324511
C158  C     C_2   0.764833 0.000008 0.460783 0.921691
O51   O     O_2   0.798574 0.000017 0.382099 -0.616135
O52   O     O_R   0.780778 0.999995 0.528155 -0.722993
H58   H     H_    0.821390 0.999991 0.503297 0.316053
C159  C     C_2   0.735220 0.500000 0.539187 0.921455
O53   O     O_2   0.701392 0.499995 0.617817 -0.616068
O54   O     O_R   0.719406 0.500003 0.471657 -0.722851
H59   H     H_    0.678804 0.500003 0.496363 0.316076
C160  C     C_2   0.229351 0.500005 0.585328 0.921449
O55   O     O_2   0.218358 0.500021 0.664400 -0.613213
O56   O     O_R   0.283147 0.500003 0.519204 -0.723028
H60   H     H_    0.309335 0.500014 0.545235 0.316603

loop_
_geom_bond_atom_site_label_1
_geom_bond_atom_site_label_2
_ccdc_geom_bond_type
C103  O33   A    
Cu4   O28   S    
Cu7   O23   S    
C34   C42   A    
C32   H28   S    
C16   C113  A    
C110  C118  A    
C27   C99   S    
C13   C139  A    
C117  C119  A    
Cu6   O14   S    
C30   C38   A    
Cu11  O44   S    
C109  C127  A    
C111  C125  A    
C108  O38   A    
C103  O43   A    
Cu2   O2    S    
C88   O28   A    
C83   H55   S    
C125  C135  A    
C143  C151  A    
C126  C136  A    
C19   C141  A    
C92   C147  S    
C82   C98   A    
C130  C134  A    
C73   C81   A    
C115  C123  A    
C84   C100  A    
Cu4   Cu7   S    
C36   H32   S    
C127  C136  A    
C128  C135  A    
C57   C65   A    
C112  C120  A    
C27   C35   A    
C21   C29   A    
C23   C31   A    
C24   C32   A    
C65   H45   S    
C5    C70   S    
C79   H51   S    
C146  C154  A    
C105  O39   A    
C106  O40   A    
C107  O37   A    
Cu5   O5    S    
C63   C71   A    
C129  C133  A    
C36   C44   A    
C148  C153  A    
Cu7   O15   S    
C54   C104  S    
C7    O12   A    
C8    C71   S    
C48   C96   A    
C86   O5    A    
C6    O22   A    
C16   C138  A    
Cu1   O25   S    
C82   H54   S    
Cu8   O8    S    
C60   C68   A    
C24   C96   S    
C149  C155  A    
Cu3   O27   S    
C160  O56   S    
C31   H27   S    
C77   H49   S    
C21   C93   S    
C78   C94   A    
C29   H25   S    
C101  O35   A    
C4    O15   A    
C23   C95   S    
Cu10  O38   S    
C118  C120  A    
C121  C123  A    
C49   C97   A    
C21   C42   A    
C8    O11   A    
C116  C130  A    
Cu4   O12   S    
C125  C127  A    
C24   C43   A    
C64   H44   S    
C153  C157  S    
C10   C138  A    
Cu1   Cu6   S    
C14   C115  A    
C110  C128  A    
C15   C137  A    
C9    C133  A    
C6    C69   S    
C85   O25   A    
Cu9   O48   S    
C15   H11   S    
C91   O4    A    
Cu10  O47   S    
C69   C77   A    
C89   O2    A    
Cu6   O30   S    
C45   C93   A    
C71   C79   A    
C35   H31   S    
C87   O27   A    
C62   C70   A    
C91   O31   A    
C1    C74   S    
Cu12  O35   S    
C119  H6    S    
C9    C140  A    
C51   H39   S    
C66   C74   A    
C7    O23   A    
C49   C57   A    
C111  C119  A    
Cu2   O18   S    
C52   C60   A    
C59   C67   A    
C53   C61   A    
C92   O3    A    
C102  O36   A    
C55   C63   A    
C56   C64   A    
C35   C43   A    
C3    O16   A    
C37   H22   S    
C90   O30   A    
C45   C53   A    
C158  O51   D    
C22   C94   S    
C156  C160  S    
C50   C98   A    
C7    C72   S    
C52   C100  A    
C155  C159  S    
Cu5   O21   S    
C25   C38   A    
C2    O18   A    
C34   H30   S    
C46   C94   A    
C27   C40   A    
C62   H42   S    
C104  O34   A    
Cu4   O20   S    
Cu7   O31   S    
C11   C141  A    
C8    O24   A    
C14   H10   S    
C2    C73   S    
C50   H38   S    
C42   H17   S    
C25   C97   S    
C14   C140  A    
C87   C152  S    
C88   C151  S    
C67   C75   A    
C122  C124  A    
C60   C106  S    
C126  C128  A    
C22   C30   A    
Cu3   O11   S    
C154  C158  S    
C63   H43   S    
C2    O13   A    
C159  O54   S    
Cu11  O33   S    
C48   H36   S    
C12   C143  A    
C20   H16   S    
C5    O10   A    
C56   C102  S    
C144  C152  A    
Cu2   O10   S    
C138  C146  A    
C157  O50   S    
C41   H18   S    
C123  H2    S    
C44   H19   S    
C17   H13   S    
C121  H4    S    
C113  C121  A    
C122  H3    S    
C12   C136  A    
O54   H59   S    
Cu3   Cu8   S    
C4    O20   A    
C16   H12   S    
C25   C33   A    
O50   H57   S    
C131  C134  A    
C76   C84   A    
C109  C117  A    
C59   C105  S    
Cu9   O45   S    
C137  C145  A    
C90   C145  S    
C22   C41   A    
Cu5   O13   S    
C87   O8    A    
Cu12  O34   S    
C85   C150  S    
C4    C75   S    
Cu2   Cu5   S    
C9    C137  A    
C124  H1    S    
O52   H58   S    
C112  C126  A    
Cu1   O1    S    
C83   C99   A    
Cu8   O32   S    
C74   C82   A    
Cu3   O19   S    
C105  O45   A    
C107  O47   A    
C50   C58   A    
C104  O44   A    
C108  O48   A    
C84   H56   S    
Cu11  Cu12  S    
C54   C62   A    
C28   C39   A    
C23   C44   A    
Cu4   O4    S    
C66   H46   S    
C130  C132  A    
Cu11  O41   S    
C79   C95   A    
C160  O55   D    
C11   C135  A    
O56   H60   S    
C152  C155  A    
C38   H21   S    
C46   C54   A    
Cu9   O40   S    
C47   H35   S    
C61   H41   S    
C151  C156  A    
C18   C111  A    
Cu6   O6    S    
C92   O32   A    
C49   H37   S    
C68   C76   A    
Cu11  O36   S    
Cu12  O43   S    
C101  O41   A    
C116  C124  A    
C85   O6    A    
Cu2   O26   S    
C5    O21   A    
C26   C37   A    
C81   H53   S    
C17   C143  A    
C33   C41   A    
C142  C150  A    
C18   C144  A    
C78   H50   S    
C39   H24   S    
C75   C83   A    
C30   H26   S    
C40   H23   S    
C43   H20   S    
C53   C103  S    
C13   H9    S    
C77   C93   A    
C12   C142  A    
C58   C108  S    
C68   H48   S    
C13   C116  A    
C46   H34   S    
C88   O7    A    
C28   C36   A    
C72   C80   A    
C29   C37   A    
C86   O26   A    
Cu9   Cu10  S    
C70   C78   A    
C90   O1    A    
C67   H47   S    
C140  C148  A    
Cu5   O29   S    
C141  C149  A    
C139  C147  A    
Cu7   O7    S    
C18   H14   S    
C65   C73   A    
C147  C154  A    
Cu1   O17   S    
C58   C66   A    
C132  C133  A    
Cu8   O16   S    
Cu3   O3    S    
C80   C96   A    
C11   C144  A    
C145  C153  A    
C28   C100  S    
C32   C40   A    
C89   O29   A    
Cu10  O46   S    
C91   C148  S    
C26   C34   A    
C51   C99   A    
C89   C146  S    
C20   C142  A    
C86   C149  S    
C19   H15   S    
C159  O53   D    
Cu10  O39   S    
Cu6   O22   S    
C33   H29   S    
C157  O49   D    
C15   C114  A    
C3    O19   A    
C3    C76   S    
C1    O17   A    
C26   C98   S    
C117  H8    S    
C57   C107  S    
C6    O9    A    
C118  H7    S    
C106  O46   A    
C158  O52   S    
C102  O42   A    
Cu9   O37   S    
C51   C59   A    
C17   C112  A    
C47   C55   A    
C115  C129  A    
C19   C110  A    
C61   C69   A    
C48   C56   A    
C113  C131  A    
C52   H40   S    
C114  C132  A    
C10   C134  A    
Cu12  O42   S    
C80   H52   S    
C1    O14   A    
C55   C101  S    
Cu1   O9    S    
C81   C97   A    
C31   C39   A    
C64   C72   A    
Cu8   O24   S    
C20   C109  A    
C114  C122  A    
C120  H5    S    
C45   H33   S    
C10   C139  A    
C47   C95   A    
C150  C156  A    
C129  C131  A    
