data_mof_unit_65149.cif
_audit_creation_date              2013-03-05T16:10:03-0500
_audit_creation_method            fapswitch 2.2
_symmetry_space_group_name_H-M    P1
_symmetry_Int_Tables_number       1
_space_group_crystal_system       triclinic
_cell_length_a                    12.740297
_cell_length_b                    13.903382
_cell_length_c                    19.347514
_cell_angle_alpha                 90.208655
_cell_angle_beta                  93.093471
_cell_angle_gamma                 97.957648
_cell_volume                      3388.9270704

loop_
_atom_site_label
_atom_site_type_symbol
_atom_site_description
_atom_site_fract_x
_atom_site_fract_y
_atom_site_fract_z
_atom_type_partial_charge
O1    O     O_R   0.399110 0.356330 0.495750 -0.564591
O2    O     O_R   0.600890 0.643670 0.504250 -0.564591
O3    O     O_R   0.575900 0.366540 0.503170 -0.568650
O4    O     O_R   0.424100 0.633460 0.496830 -0.568650
C1    C     C_R   0.483557 0.315796 0.499275 0.823843
C2    C     C_R   0.516443 0.684204 0.500725 0.823842
O5    O     O_R   0.411580 0.494880 0.396430 -0.575971
O6    O     O_R   0.588420 0.505120 0.603570 -0.575971
O7    O     O_R   0.588360 0.505090 0.403850 -0.576564
O8    O     O_R   0.411640 0.494910 0.596150 -0.576563
C3    C     C_R   0.500327 0.500053 0.367078 0.822438
C4    C     C_R   0.499673 0.499947 0.632922 0.822438
Cu1   Cu    Cu3+1 0.395330 0.493960 0.495610 1.003609
Cu2   Cu    Cu3+1 0.604670 0.506040 0.504390 1.003609
C5    C     C_R   0.404829 0.496914 0.251293 -0.193199
C6    C     C_R   0.595170 0.503082 0.748707 -0.193199
H1    H     H_    0.331128 0.495511 0.276971 0.202346
H2    H     H_    0.668871 0.504482 0.723029 0.202346
C7    C     C_R   0.402941 0.498499 0.178942 -0.063612
C8    C     C_R   0.597058 0.501497 0.821058 -0.063613
C9    C     C_R   0.499720 0.500462 0.145553 -0.144789
C10   C     C_R   0.500280 0.499538 0.854447 -0.144789
C11   C     C_R   0.596701 0.502835 0.185476 0.340178
C12   C     C_R   0.403299 0.497168 0.814524 0.340178
C13   C     C_R   0.595879 0.504075 0.257779 -0.214596
C14   C     C_R   0.404121 0.495928 0.742221 -0.214596
H3    H     H_    0.670028 0.505602 0.288188 0.194597
H4    H     H_    0.329973 0.494404 0.711812 0.194597
C15   C     C_R   0.500544 0.500291 0.290975 -0.123970
C16   C     C_R   0.499456 0.499709 0.709025 -0.123970
N1    N     N_R   0.556303 0.574213 0.036509 -0.155223
N2    N     N_R   0.443697 0.425787 0.963490 -0.155225
N3    N     N_R   0.556221 0.574082 0.967763 -0.175607
N4    N     N_R   0.443779 0.425918 0.032237 -0.175609
C17   C     C_R   0.499978 0.499840 0.930213 0.519953
C18   C     C_R   0.500022 0.500160 0.069787 0.519951
C19   C     C_1   0.525865 0.787543 0.501138 -0.145069
C20   C     C_1   0.474135 0.212457 0.498862 -0.145069
C21   C     C_2   0.543578 0.978414 0.501912 -0.144259
C22   C     C_2   0.456422 0.021586 0.498088 -0.144259
C23   C     C_1   0.465580 0.125401 0.498488 0.029771
C24   C     C_1   0.534420 0.874598 0.501512 0.029771
H5    H     H_    0.377891 0.979274 0.494644 0.167015
H6    H     H_    0.622109 0.020726 0.505356 0.167015
N5    N     N_1   0.238030 0.484880 0.489000 -0.153941
N6    N     N_1   0.761970 0.515120 0.511000 -0.153941
C25   C     C_2   0.028160 0.473469 0.480309 -0.240515
C26   C     C_2   0.971840 0.526530 0.519691 -0.240514
C27   C     C_1   0.854671 0.519188 0.514098 0.240640
C28   C     C_1   0.145329 0.480812 0.485902 0.240640
H7    H     H_    0.014176 0.577460 0.557626 0.174898
H8    H     H_    0.985824 0.422540 0.442374 0.174898
C29   C     C_2   0.298733 0.501467 0.140733 0.894661
O9    O     O_2   0.293813 0.541834 0.084831 -0.526096
O10   O     O_R   0.205181 0.460448 0.170147 -0.739697
H9    H     H_    0.139347 0.467744 0.139860 0.369016
C30   C     C_2   0.701266 0.498525 0.859267 0.894660
O11   O     O_2   0.706183 0.458160 0.915170 -0.526097
O12   O     O_R   0.794819 0.539539 0.829852 -0.739696
H10   H     H_    0.860653 0.532240 0.860139 0.369017
N7    N     N_R   0.696182 0.501443 0.153721 0.134740
O13   O     O_R   0.783744 0.545223 0.183844 -0.320954
O14   O     O_R   0.701947 0.446248 0.099972 -0.290398
N8    N     N_R   0.303819 0.498565 0.846279 0.134740
O15   O     O_R   0.216255 0.454788 0.816156 -0.320954
O16   O     O_R   0.298057 0.553759 0.900028 -0.290398

loop_
_geom_bond_atom_site_label_1
_geom_bond_atom_site_label_2
_geom_bond_distance
_ccdc_geom_bond_type
O5    Cu1   1.940996 S    
C5    C7    1.399025 A    
O10   H9    1.013962 S    
N1    N3    1.330010 A    
C14   C16   1.399023 A    
C25   H8    1.085710 S    
Cu1   N5    1.987630 S    
C13   H3    1.083227 S    
N1    C18   1.356078 A    
C14   H4    1.083227 S    
C25   C26   1.356875 D    
O6    C4    1.285749 A    
O7    Cu2   1.944888 S    
C4    C16   1.472582 S    
N8    O15   1.301487 A    
C7    C29   1.490071 S    
C9    C11   1.417703 A    
C2    C19   1.425055 S    
N2    N4    1.330008 A    
O12   H10   1.013962 S    
C12   N8    1.440466 S    
C9    C18   1.466087 S    
N7    O14   1.301436 A    
Cu1   Cu2   2.645206 S    
O5    C3    1.285751 A    
C10   C17   1.466087 S    
O7    C3    1.288689 A    
N6    C27   1.172809 T    
C26   H7    1.085710 S    
C30   O11   1.222922 D    
O2    C2    1.280627 A    
O3    Cu2   1.923161 S    
O8    C4    1.288691 A    
N5    C28   1.172808 T    
O1    C1    1.280626 A    
O4    C2    1.283656 A    
C6    C8    1.399025 A    
C7    C9    1.419544 A    
C12   C14   1.399543 A    
C5    C15   1.400529 A    
C25   C28   1.480127 S    
N4    C18   1.356573 A    
C29   O10   1.398949 S    
C13   C15   1.399026 A    
N7    O13   1.301489 A    
O2    Cu2   1.920790 S    
C10   C12   1.417700 A    
C30   O12   1.398948 S    
O1    Cu1   1.920790 S    
C21   H6    1.086776 S    
C6    C16   1.400529 A    
C21   C22   1.332173 D    
N2    C17   1.356078 A    
O3    C1    1.283655 A    
C11   N7    1.440467 S    
C11   C13   1.399543 A    
C3    C15   1.472582 S    
C20   C23   1.200106 T    
C6    H2    1.083614 S    
C19   C24   1.200106 T    
C5    H1    1.083615 S    
C21   C24   1.431869 S    
C26   C27   1.480127 S    
C22   C23   1.431869 S    
O6    Cu2   1.940998 S    
N3    C17   1.356571 A    
C8    C30   1.490071 S    
C1    C20   1.425055 S    
C22   H5    1.086776 S    
O4    Cu1   1.923161 S    
C29   O9    1.222920 D    
C8    C10   1.419542 A    
Cu2   N6    1.987629 S    
O8    Cu1   1.944886 S    
N8    O16   1.301435 A    
