data_mof_unit_47196.cif
_audit_creation_date              2012-12-11T16:06:45-0500
_audit_creation_method            fapswitch 2.2
_symmetry_space_group_name_H-M    P1
_symmetry_Int_Tables_number       1
_space_group_crystal_system       triclinic
_cell_length_a                    8.221787
_cell_length_b                    12.655406
_cell_length_c                    17.391424
_cell_angle_alpha                 94.286456
_cell_angle_beta                  95.933993
_cell_angle_gamma                 97.874373
_cell_volume                      1775.63725071

loop_
_atom_site_label
_atom_site_type_symbol
_atom_type_description
_atom_site_fract_x
_atom_site_fract_y
_atom_site_fract_z
_atom_type_partial_charge
Ba1   Ba    Ba6+2 0.158660 0.552610 0.463110 1.646338
Ba2   Ba    Ba6+2 0.651510 0.447380 0.536830 1.660361
C1    C     C_3   0.373040 0.820286 0.167878 -0.363978
C2    C     C_R   0.733553 0.815515 0.468671 -0.229490
C3    C     C_R   0.702725 0.996047 0.438820 -0.060120
C4    C     C_3   0.917675 0.842553 0.284372 0.352067
C5    C     C_R   0.638099 0.887409 0.436441 0.027009
C6    C     C_R   0.890063 0.850010 0.508499 0.086921
C7    C     C_R   0.956445 0.961642 0.513649 -0.026510
C8    C     C_R   0.860645 0.036005 0.478457 -0.032938
C9    C     C_R   0.923270 0.148420 0.487538 0.060111
C10   C     C_R   0.175748 0.111110 0.558413 -0.046399
C11   C     C_R   0.113447 0.002032 0.554082 -0.099996
C12   C     C_3   0.404271 0.788126 0.250003 0.353973
C13   C     C_R   0.602039 0.543008 0.279843 -0.291656
C14   C     C_R   0.444734 0.487081 0.255745 0.067623
C15   C     C_R   0.382950 0.477030 0.176698 -0.117548
C16   C     C_3   0.867726 0.934443 0.240146 -0.405570
C17   C     C_R   0.480182 0.521876 0.122004 -0.007524
C18   C     C_R   0.641823 0.573406 0.146677 -0.137268
C19   C     C_R   0.703180 0.582044 0.225560 0.011130
C20   C     C_R   0.415688 0.522977 0.835806 -0.112564
C21   C     C_R   0.360817 0.508398 0.756224 0.058487
C22   C     C_R   0.098001 0.415534 0.782129 -0.024453
C23   C     C_3   0.600648 0.773370 0.661196 0.275396
C24   C     C_R   0.147990 0.437204 0.862536 -0.144656
C25   C     C_R   0.310226 0.485506 0.889426 0.005128
C26   C     C_1   0.367203 0.499696 0.971769 -0.006739
C27   C     C_1   0.417615 0.510266 0.040308 -0.003228
C28   C     C_3   0.747597 0.317080 0.304597 0.310768
C29   C     C_R   0.206818 0.449897 0.729720 -0.245491
C30   C     C_3   0.709706 0.287942 0.217506 -0.399179
C31   C     C_3   0.056273 0.682236 0.695482 0.302070
C32   C     C_3   0.103440 0.712303 0.781977 -0.415733
C33   C     C_3   0.245528 0.226817 0.370263 0.281604
C34   C     C_3   0.550641 0.883006 0.650485 0.210487
C35   C     C_3   0.239239 0.106769 0.353343 -0.341670
C36   C     C_3   0.778710 0.014081 0.670396 0.197744
C37   C     C_3   0.251016 0.004535 0.871494 0.162246
C38   C     C_3   0.899948 0.195137 0.821825 0.262659
C39   C     C_3   0.805288 0.114197 0.867696 -0.317173
C40   C     C_3   0.306530 0.161854 0.738723 0.432973
C41   C     C_3   0.359761 0.163662 0.825575 0.369183
C42   C     C_R   0.078018 0.183224 0.528775 -0.288235
H1    H     H_    0.599485 0.225263 0.205158 0.128153
H2    H     H_    0.240787 0.828708 0.154138 0.151151
H3    H     H_    0.162861 0.079478 0.297373 0.118970
H4    H     H_    0.184693 0.063517 0.399653 0.072316
H5    H     H_    0.365897 0.087469 0.349445 0.137632
H6    H     H_    0.536026 0.777153 0.260939 -0.068802
H7    H     H_    0.404955 0.758049 0.125876 0.071581
H8    H     H_    0.729490 0.782531 0.689475 0.035666
H9    H     H_    0.524002 0.921316 0.706927 0.067746
H10   H     H_    0.450164 0.897830 0.162066 0.108842
H11   H     H_    0.757383 0.905142 0.197817 0.113634
H12   H     H_    0.684811 0.359108 0.187494 0.064089
H13   H     H_    0.984426 0.154754 0.788189 -0.046891
H14   H     H_    0.972171 0.254851 0.865750 0.004594
H15   H     H_    0.725065 0.050204 0.828926 0.135816
H16   H     H_    0.894052 0.076480 0.905372 0.047467
H17   H     H_    0.727407 0.155364 0.905152 0.133474
H18   H     H_    0.194789 0.101368 0.721959 -0.088815
H19   H     H_    0.275890 0.242616 0.727613 -0.148020
H20   H     H_    0.267061 0.196687 0.859360 -0.117909
H21   H     H_    0.476004 0.220759 0.840190 0.069664
H22   H     H_    0.020336 0.874063 0.330435 0.076279
H23   H     H_    0.816970 0.257263 0.194385 0.124034
H24   H     H_    0.626108 0.048440 0.411571 0.085332
H25   H     H_    0.189475 0.950458 0.582534 0.100059
H26   H     H_    0.127144 0.267595 0.534316 0.064244
H27   H     H_    0.681566 0.731860 0.466067 0.054111
H28   H     H_    0.536732 0.567418 0.855905 0.074912
H29   H     H_    0.720311 0.604784 0.104838 0.077953
H30   H     H_    0.061268 0.419646 0.904183 0.067027
H31   H     H_    0.261277 0.432750 0.157790 0.085862
H32   H     H_    0.650166 0.549733 0.340590 0.069332
H33   H     H_    0.809165 0.809050 0.312576 -0.072059
H34   H     H_    0.943457 0.621987 0.687210 0.073077
H35   H     H_    0.166108 0.439431 0.668062 0.053304
H36   H     H_    0.837665 0.998539 0.281199 0.086438
H37   H     H_    0.969775 0.967814 0.207927 0.128913
H38   H     H_    0.637633 0.342964 0.327404 0.013493
H39   H     H_    0.852954 0.383246 0.315328 0.065794
H40   H     H_    0.324186 0.711010 0.253952 0.090751
H41   H     H_    0.157912 0.647530 0.670821 0.017631
H42   H     H_    0.593420 0.729923 0.602573 0.012700
H43   H     H_    0.846412 0.968535 0.712162 -0.010828
H44   H     H_    0.708236 0.069237 0.700049 0.143813
H45   H     H_    0.225176 0.764320 0.791951 0.134944
H46   H     H_    0.870362 0.064816 0.641839 0.051609
H47   H     H_    0.433034 0.871989 0.611597 0.086113
H48   H     H_    0.143104 0.991917 0.825956 0.024871
H49   H     H_    0.219780 0.046095 0.925500 0.032377
H50   H     H_    0.279671 0.924701 0.885795 0.067491
H51   H     H_    0.111284 0.639630 0.812887 0.073648
H52   H     H_    0.008739 0.755744 0.806060 0.112304
H53   H     H_    0.120576 0.244455 0.378901 0.006600
H54   H     H_    0.332267 0.253082 0.423678 0.062897
O1    O     O_2   0.163080 0.763400 0.536930 -0.467770
O2    O     O_2   0.773866 0.439745 0.772095 -0.475213
O3    O     O_3   0.788862 0.239517 0.770847 -0.574988
O4    O     O_3   0.893330 0.628980 0.538660 -0.497054
O5    O     O_3   0.422000 0.445190 0.409310 -0.491542
O6    O     O_2   0.648720 0.552000 0.685060 -0.459476
O7    O     O_3   0.496631 0.722036 0.710279 -0.682001
O8    O     O_2   0.517568 0.114954 0.556227 -0.443802
O9    O     O_3   0.435140 0.135683 0.697026 -0.583915
O10   O     O_3   0.379830 0.697590 0.399610 -0.485797
O11   O     O_2   0.301636 0.886264 0.446181 -0.486817
O12   O     O_3   0.297166 0.276322 0.306035 -0.635900
O13   O     O_3   0.027410 0.774863 0.660493 -0.646549
O14   O     O_3   0.366296 0.868324 0.302694 -0.607496
O15   O     O_2   0.161570 0.447940 0.314920 -0.465248
O16   O     O_3   0.953630 0.643360 0.361440 -0.484023
O17   O     O_2   0.040755 0.571866 0.225208 -0.491873
O18   O     O_3   0.671144 0.945393 0.614347 -0.668204
O19   O     O_3   0.391367 0.061195 0.845028 -0.645363
O20   O     O_3   0.972133 0.767635 0.232554 -0.593439
O21   O     O_2   0.647210 0.236530 0.463040 -0.469417
O22   O     O_3   0.916960 0.371010 0.461280 -0.495606
O23   O     O_3   0.430470 0.302400 0.600330 -0.462967
O24   O     O_3   0.786718 0.226327 0.339201 -0.645206
O25   O     O_3   0.388290 0.554800 0.590630 -0.468714
O26   O     O_3   0.856660 0.356630 0.638500 -0.461748
P1    P     P_3+3 0.990420 0.746550 0.559720 0.971614
P2    P     P_3+3 0.330880 0.415450 0.326700 0.982143
P3    P     P_3+3 0.917889 0.638662 0.260288 0.953908
P4    P     P_3+3 0.819870 0.253440 0.440220 0.972955
P5    P     P_3+3 0.883831 0.360489 0.741509 0.962912
P6    P     P_3+3 0.422480 0.836334 0.397039 0.956209
P7    P     P_3+3 0.472049 0.583856 0.687545 0.949569
P8    P     P_3+3 0.388638 0.163487 0.601038 0.999273

loop_
_geom_bond_atom_site_label_1
_geom_bond_atom_site_label_2
_ccdc_geom_bond_type
C30   H1    S    
C17   C18   A    
C12   H40   S    
C2    C6    A    
O4    P1    S    
Ba1   O1    S    
C23   H8    S    
C23   O7    S    
O1    P1    D    
Ba2   O25   S    
C12   O14   S    
C10   C11   A    
C24   C25   A    
O26   P5    S    
C26   C27   T    
C33   C35   S    
Ba1   P1    S    
C3    H24   S    
C1    H10   S    
C31   H34   S    
Ba2   O4    S    
C13   C14   A    
C16   H37   S    
C35   H5    S    
Ba1   Ba2   S    
C28   H39   S    
O5    P2    S    
C31   H41   S    
C37   H49   S    
C5    P6    S    
C7    C11   A    
C34   H9    S    
C24   H30   S    
C38   O3    S    
C22   P5    S    
C28   O24   S    
C14   C15   A    
O6    P7    D    
O13   P1    S    
C42   H26   S    
C31   O13   S    
C39   H17   S    
C35   H3    S    
C33   H54   S    
C40   O9    S    
C40   H18   S    
O10   P6    S    
O21   P4    D    
C13   H32   S    
O17   P3    D    
Ba1   O15   S    
C2    C5    A    
C20   H28   S    
C41   H20   S    
C4    C16   S    
C38   H14   S    
Ba1   P2    S    
C39   H15   S    
O7    P7    S    
C3    C5    A    
C1    H7    S    
O2    P5    D    
C6    C7    A    
C4    H33   S    
O15   P2    D    
Ba1   O10   S    
C37   O19   S    
C36   H44   S    
Ba1   O22   S    
C21   C29   A    
O20   P3    S    
C28   H38   S    
O8    P8    D    
Ba1   O25   S    
C37   H50   S    
C36   O18   S    
Ba2   O6    S    
C41   H21   S    
C31   C32   S    
C21   P7    S    
C9    C42   A    
C32   H51   S    
C35   H4    S    
C33   O12   S    
C1    C12   S    
C16   H11   S    
O12   P2    S    
C30   H23   S    
C34   H47   S    
C38   C39   S    
C41   O19   S    
C20   C25   A    
O3    P5    S    
C19   P3    S    
Ba1   O16   S    
O23   P8    S    
C34   O18   S    
C37   H48   S    
C25   C26   S    
C7    C8    A    
Ba2   O23   S    
Ba1   O5    S    
Ba2   O22   S    
C38   H13   S    
C10   P8    S    
O25   P7    S    
C22   C24   A    
C39   H16   S    
C32   H52   S    
O9    P8    S    
Ba2   O21   S    
O22   P4    S    
C29   H35   S    
Ba2   O26   S    
C36   H46   S    
C1    H2    S    
C36   H43   S    
C9    P4    S    
C22   C29   A    
C3    C8    A    
C10   C42   A    
C28   C30   S    
O16   P3    S    
C12   H6    S    
C13   C19   A    
C11   H25   S    
Ba2   O5    S    
Ba1   O4    S    
C23   H42   S    
C15   C17   A    
C30   H12   S    
C18   H29   S    
O24   P4    S    
C32   H45   S    
C8    C9    A    
C23   C34   S    
C6    P1    S    
C4    H22   S    
C18   C19   A    
C16   H36   S    
C40   C41   S    
O11   P6    D    
C15   H31   S    
C20   C21   A    
O14   P6    S    
C33   H53   S    
C14   P2    S    
C40   H19   S    
C4    O20   S    
C2    H27   S    
Ba2   P4    S    
C17   C27   S    
