data_mof_unit_60308.cif
_audit_creation_date              2013-03-05T16:28:21-0500
_audit_creation_method            fapswitch 2.2
_symmetry_space_group_name_H-M    P1
_symmetry_Int_Tables_number       1
_space_group_crystal_system       triclinic
_cell_length_a                    38.613839
_cell_length_b                    32.233979
_cell_length_c                    21.458979
_cell_angle_alpha                 90.049663
_cell_angle_beta                  123.396463
_cell_angle_gamma                 89.952201
_cell_volume                      22299.2762993

loop_
_atom_site_label
_atom_site_type_symbol
_atom_site_description
_atom_site_fract_x
_atom_site_fract_y
_atom_site_fract_z
_atom_type_partial_charge
O1    O     O_R   0.940150 0.034650 0.440170 -0.577670
O2    O     O_R   0.059850 0.034650 0.559830 -0.579964
O3    O     O_R   0.440150 0.534650 0.440170 -0.578837
O4    O     O_R   0.559850 0.534650 0.559830 -0.579703
O5    O     O_R   0.940170 0.965370 0.440140 -0.564734
O6    O     O_R   0.059830 0.965370 0.559860 -0.567932
O7    O     O_R   0.440170 0.465370 0.440140 -0.571587
O8    O     O_R   0.559830 0.465370 0.559860 -0.571317
C1    C     C_R   0.920414 0.000015 0.420083 0.825338
C2    C     C_R   0.079591 0.999995 0.579962 0.831613
C3    C     C_R   0.420413 0.500022 0.420231 0.851416
C4    C     C_R   0.579580 0.500004 0.579587 0.848758
O9    O     O_R   0.000010 0.034650 0.591580 -0.540437
O10   O     O_R   0.999990 0.034650 0.408420 -0.535613
O11   O     O_R   0.500010 0.534650 0.591580 -0.551152
O12   O     O_R   0.499990 0.534650 0.408420 -0.551426
O13   O     O_R   0.000020 0.965370 0.591550 -0.582709
O14   O     O_R   0.999980 0.965370 0.408450 -0.577334
O15   O     O_R   0.500020 0.465370 0.591550 -0.588451
O16   O     O_R   0.499980 0.465370 0.408450 -0.588156
C5    C     C_R   0.000314 0.000112 0.620787 0.896746
C6    C     C_R   0.999429 0.000102 0.378956 0.885531
C7    C     C_R   0.499809 0.500056 0.620296 0.908834
C8    C     C_R   0.500344 0.500029 0.379863 0.907501
Cu1   Cu    Cu3+1 0.000000 0.041030 0.500000 1.089342
Cu2   Cu    Cu3+1 0.500000 0.541030 0.500000 1.079125
Cu3   Cu    Cu3+1 0.000000 0.958990 0.500000 1.015493
Cu4   Cu    Cu3+1 0.500000 0.458990 0.500000 1.003132
C9    C     C_3   0.965610 0.981867 0.695224 -0.326354
C10   C     C_3   0.035195 0.984424 0.305684 -0.322652
C11   C     C_3   0.469516 0.474986 0.699570 -0.311452
C12   C     C_3   0.531217 0.475544 0.301002 -0.313244
C13   C     C_3   0.999468 0.961945 0.770215 0.429486
C14   C     C_3   0.002997 0.961954 0.232379 0.428640
C15   C     C_3   0.506918 0.462544 0.777838 0.429300
C16   C     C_3   0.494037 0.462335 0.223029 0.428931
H1    H     H_    0.937352 0.966328 0.649146 0.169428
H2    H     H_    0.064569 0.971174 0.352963 0.167127
H3    H     H_    0.444916 0.453996 0.657484 0.170627
H4    H     H_    0.556297 0.455070 0.343412 0.169609
C17   C     C_3   0.000530 0.000933 0.812170 -0.170468
C18   C     C_3   0.999029 0.000540 0.187502 -0.173582
C19   C     C_3   0.500298 0.501146 0.811876 -0.168926
C20   C     C_3   0.499726 0.501072 0.188140 -0.170059
C21   C     C_3   0.966698 0.021553 0.738001 -0.271600
C22   C     C_3   0.031134 0.023760 0.259901 -0.265739
C23   C     C_3   0.462744 0.514194 0.734221 -0.285129
C24   C     C_3   0.537065 0.514882 0.265493 -0.284503
C25   C     C_3   0.001700 0.039587 0.731764 0.281845
C26   C     C_3   0.994876 0.039512 0.264802 0.254862
C27   C     C_3   0.493112 0.538806 0.722950 0.279067
C28   C     C_3   0.506248 0.538867 0.276504 0.277241
C29   C     C_3   0.035097 0.019407 0.805685 0.283863
C30   C     C_3   0.962897 0.016695 0.192104 0.292200
C31   C     C_3   0.530248 0.526122 0.800310 0.294340
C32   C     C_3   0.469330 0.525409 0.199466 0.294895
C33   C     C_3   0.033998 0.980219 0.764096 0.191037
C34   C     C_3   0.967191 0.977769 0.236977 0.208112
C35   C     C_3   0.536880 0.487235 0.766694 0.174558
C36   C     C_3   0.463631 0.486404 0.233922 0.184115
C37   C     C_3   0.000799 0.000526 0.689322 -0.281224
C38   C     C_3   0.998774 0.000577 0.310231 -0.277780
C39   C     C_3   0.500007 0.500228 0.688576 -0.281088
C40   C     C_3   0.500254 0.500159 0.311697 -0.282012
H5    H     H_    0.939359 0.038785 0.728845 0.198853
H6    H     H_    0.057196 0.042704 0.267490 0.199406
H7    H     H_    0.432609 0.525862 0.722292 0.187066
H8    H     H_    0.566915 0.527166 0.277062 0.186241
C41   C     C_R   0.728080 0.971292 0.189057 -0.246913
C42   C     C_R   0.272124 0.968473 0.804868 -0.272263
C43   C     C_R   0.228059 0.470092 0.191530 -0.245078
C44   C     C_R   0.771732 0.479116 0.820396 -0.259650
H9    H     H_    0.711333 0.948636 0.144908 0.152848
H10   H     H_    0.289144 0.943477 0.843754 0.147397
H11   H     H_    0.211281 0.446210 0.149838 0.153425
H12   H     H_    0.788384 0.462186 0.872603 0.148872
C45   C     C_R   0.706294 0.000054 0.203957 0.081982
C46   C     C_R   0.293733 0.000315 0.796033 0.094040
C47   C     C_R   0.206303 0.500374 0.203596 0.083023
C48   C     C_R   0.793667 0.500473 0.795772 0.089666
C49   C     C_R   0.728177 0.028931 0.261663 -0.168994
C50   C     C_R   0.271691 0.032050 0.744420 -0.167064
C51   C     C_R   0.228221 0.530786 0.258306 -0.169509
C52   C     C_R   0.771905 0.521823 0.727734 -0.167153
H13   H     H_    0.711689 0.051306 0.273761 0.152904
H14   H     H_    0.288049 0.056833 0.737021 0.151999
H15   H     H_    0.211762 0.554347 0.268223 0.151928
H16   H     H_    0.788491 0.538441 0.708064 0.152404
C53   C     C_R   0.771576 0.028901 0.304624 -0.241307
C54   C     C_R   0.228292 0.031788 0.701416 -0.250709
C55   C     C_R   0.271623 0.530733 0.301195 -0.239410
C56   C     C_R   0.728506 0.521633 0.684290 -0.249678
H17   H     H_    0.788039 0.051154 0.349587 0.166420
H18   H     H_    0.211695 0.056328 0.661143 0.165212
H19   H     H_    0.288118 0.554144 0.343981 0.167081
H20   H     H_    0.712138 0.538096 0.631580 0.165445
C57   C     C_R   0.793527 0.000220 0.289935 0.031735
C58   C     C_R   0.206499 0.000005 0.710063 0.051993
C59   C     C_R   0.293539 0.500509 0.289337 0.032931
C60   C     C_R   0.706434 0.500196 0.708545 0.048092
C61   C     C_R   0.771624 0.971706 0.230709 0.473316
C62   C     C_R   0.228430 0.968574 0.763233 0.457036
C63   C     C_R   0.271608 0.470495 0.232901 0.468869
C64   C     C_R   0.728065 0.479298 0.777456 0.463254
C65   C     C_1   0.661510 0.999933 0.160085 -0.032905
C66   C     C_1   0.338511 0.000276 0.839805 -0.033898
C67   C     C_1   0.161517 0.500181 0.159943 -0.031244
C68   C     C_1   0.838464 0.500234 0.839929 -0.030259
C69   C     C_1   0.838352 0.000102 0.336030 -0.020072
C70   C     C_1   0.161671 0.999952 0.664274 0.006098
C71   C     C_1   0.338355 0.500258 0.335709 -0.013885
C72   C     C_1   0.661632 0.500085 0.662826 0.007541
C73   C     C_1   0.875809 0.000041 0.374470 -0.129875
C74   C     C_1   0.124207 0.999957 0.625770 -0.123305
C75   C     C_1   0.375808 0.500092 0.374416 -0.114097
C76   C     C_1   0.624178 0.500016 0.624746 -0.110204
C77   C     C_1   0.624030 0.999917 0.123256 -0.165532
C78   C     C_1   0.375985 0.000169 0.876688 -0.166759
C79   C     C_1   0.124036 0.500067 0.123224 -0.163194
C80   C     C_1   0.875951 0.500093 0.876782 -0.163865
O17   O     O_R   0.034640 0.940200 0.034570 -0.579664
O18   O     O_R   0.965360 0.940200 0.965430 -0.577406
O19   O     O_R   0.534640 0.440200 0.034570 -0.578902
O20   O     O_R   0.465360 0.440200 0.965430 -0.579125
C81   C     C_R   0.000008 0.920453 0.999987 0.857303
C82   C     C_R   0.500008 0.420454 0.000009 0.856443
O21   O     O_R   0.034640 0.000050 0.943030 -0.545439
O22   O     O_R   0.965360 0.000050 0.056970 -0.539751
O23   O     O_R   0.534640 0.500050 0.943030 -0.545461
O24   O     O_R   0.465360 0.500050 0.056970 -0.545364
O25   O     O_R   0.965370 0.000070 0.873780 -0.600603
O26   O     O_R   0.034630 0.000070 0.126220 -0.599641
O27   O     O_R   0.465370 0.500070 0.873780 -0.607432
O28   O     O_R   0.534630 0.500070 0.126220 -0.607124
C83   C     C_R   0.000145 0.000443 0.879694 0.895741
C84   C     C_R   0.999795 0.000177 0.120281 0.892054
C85   C     C_R   0.500114 0.500635 0.879647 0.902895
C86   C     C_R   0.499886 0.500609 0.120352 0.902319
Cu5   Cu    Cu3+1 0.041030 0.000050 0.040990 1.011040
Cu6   Cu    Cu3+1 0.958970 0.000050 0.959010 1.016068
Cu7   Cu    Cu3+1 0.541030 0.500050 0.040990 1.004475
Cu8   Cu    Cu3+1 0.458970 0.500050 0.959010 1.004938
O29   O     O_R   0.034650 0.059910 0.034650 -0.579626
O30   O     O_R   0.965350 0.059910 0.965350 -0.582800
O31   O     O_R   0.534650 0.559910 0.034650 -0.583487
O32   O     O_R   0.465350 0.559910 0.965350 -0.583448
C87   C     C_R   0.999993 0.079604 0.999931 0.800643
C88   C     C_R   0.499992 0.579603 0.000004 0.811500
O33   O     O_R   0.500030 0.940190 0.053050 -0.575048
O34   O     O_R   0.499970 0.940190 0.946950 -0.574778
O35   O     O_R   0.000030 0.440190 0.053050 -0.579626
O36   O     O_R   0.999970 0.440190 0.946950 -0.579298
C89   C     C_R   0.499998 0.920679 0.999977 0.806534
C90   C     C_R   0.000070 0.420683 0.000019 0.811671
O37   O     O_R   0.559860 0.000050 0.112810 -0.578257
O38   O     O_R   0.440140 0.000050 0.887190 -0.578110
O39   O     O_R   0.059860 0.500050 0.112810 -0.575399
O40   O     O_R   0.940140 0.500050 0.887190 -0.575877
O41   O     O_R   0.559850 0.999980 0.006800 -0.576521
O42   O     O_R   0.440150 0.999980 0.993200 -0.576894
O43   O     O_R   0.059850 0.499980 0.006800 -0.579330
O44   O     O_R   0.940150 0.499980 0.993200 -0.579012
C91   C     C_R   0.579392 0.999959 0.079150 0.814954
C92   C     C_R   0.420613 0.000040 0.920844 0.814870
C93   C     C_R   0.079394 0.499995 0.079148 0.818043
C94   C     C_R   0.920601 0.499999 0.920854 0.818823
Cu9   Cu    Cu3+1 0.500010 0.000050 0.062750 0.970876
Cu10  Cu    Cu3+1 0.499990 0.000050 0.937250 0.971679
Cu11  Cu    Cu3+1 0.000010 0.500050 0.062750 0.968996
Cu12  Cu    Cu3+1 0.999990 0.500050 0.937250 0.968361
O45   O     O_R   0.500000 0.059900 0.052920 -0.578279
O46   O     O_R   0.500000 0.059900 0.947080 -0.578133
O47   O     O_R   0.000000 0.559900 0.052920 -0.578509
O48   O     O_R   1.000000 0.559900 0.947080 -0.578756
C95   C     C_R   0.500001 0.079460 0.000024 0.818108
C96   C     C_R   0.000001 0.579459 0.000022 0.817856
H21   H     H_    0.015673 0.788316 0.113152 0.140313
H22   H     H_    0.984429 0.788170 0.886854 0.138752
H23   H     H_    0.506130 0.288316 0.106168 0.137209
H24   H     H_    0.493957 0.288178 0.894024 0.137018
C97   C     C_R   0.503459 0.228314 0.059741 -0.169648
C98   C     C_R   0.496613 0.228238 0.940474 -0.169445
C99   C     C_R   0.008823 0.728312 0.063644 -0.170612
C100  C     C_R   0.991258 0.728228 0.936420 -0.170507
H25   H     H_    0.506122 0.211832 0.106175 0.140885
H26   H     H_    0.493944 0.211696 0.894044 0.140961
H27   H     H_    0.015658 0.711831 0.113182 0.140455
H28   H     H_    0.984416 0.711682 0.886898 0.140165
C101  C     C_R   0.500031 0.206399 0.000109 0.148717
C102  C     C_R   0.000033 0.706394 0.000042 0.149937
C103  C     C_R   0.991266 0.771679 0.936395 -0.168562
C104  C     C_R   0.008832 0.771760 0.063628 -0.166399
C105  C     C_R   0.496619 0.271687 0.940461 -0.168176
C106  C     C_R   0.503465 0.271764 0.059738 -0.168257
C107  C     C_R   0.000050 0.793583 0.000001 0.150342
C108  C     C_R   0.500043 0.293588 0.000093 0.151064
C109  C     C_1   0.500020 0.161601 0.000106 -0.062225
C110  C     C_1   0.000020 0.661597 0.000063 -0.062427
C111  C     C_1   0.000040 0.838358 0.999980 -0.057208
C112  C     C_1   0.500037 0.338361 0.000071 -0.063198
C113  C     C_1   0.000027 0.875832 0.999980 -0.127675
C114  C     C_1   0.500026 0.375834 0.000044 -0.135340
C115  C     C_1   0.500010 0.124111 0.000082 -0.160898
C116  C     C_1   0.000009 0.624108 0.000066 -0.161333
C117  C     C_R   0.492049 0.771787 0.936439 0.329665
C118  C     C_R   0.507795 0.771871 0.063415 0.329145
C119  C     C_R   0.982321 0.272292 0.931721 0.339187
C120  C     C_R   0.019033 0.272242 0.067650 0.338552
C121  C     C_R   0.499941 0.793741 0.999926 -0.216531
C122  C     C_R   0.000712 0.293748 0.999755 -0.200716
C123  C     C_R   0.017155 0.228461 0.067667 0.340904
C124  C     C_R   0.983638 0.228473 0.931250 0.339221
C125  C     C_R   0.507293 0.728229 0.063070 0.330507
C126  C     C_R   0.492515 0.728146 0.936809 0.330862
C127  C     C_R   0.000299 0.206445 0.999406 -0.216729
C128  C     C_R   0.499918 0.706388 0.999962 -0.218791
C129  C     C_1   0.499965 0.838631 0.999916 0.077009
C130  C     C_1   0.000529 0.338655 0.999891 0.124137
C131  C     C_1   0.000057 0.161574 0.999448 0.071048
C132  C     C_1   0.499946 0.661524 0.999997 0.095674
C133  C     C_1   0.999990 0.124117 0.999652 -0.191026
C134  C     C_1   0.499970 0.624113 0.000006 -0.168724
C135  C     C_1   0.499983 0.876092 0.999925 -0.182161
C136  C     C_1   0.000311 0.376106 0.000028 -0.188519
O49   O     O_3   0.999238 0.921822 0.796206 -0.601674
C137  C     C_3   0.993975 0.891329 0.744243 0.117463
H29   H     H_    0.018565 0.867554 0.775018 0.179556
H30   H     H_    0.997239 0.903133 0.698798 0.152145
C138  C     C_3   0.951645 0.870628 0.710255 -0.377311
H31   H     H_    0.949450 0.856983 0.755535 0.230849
H32   H     H_    0.926763 0.894247 0.680600 0.222745
C139  C     C_3   0.945012 0.836497 0.655405 -0.903326
H33   H     H_    0.946224 0.849630 0.608792 0.262313
H34   H     H_    0.914122 0.822045 0.631968 0.262613
H35   H     H_    0.969197 0.812151 0.684177 0.256010
O50   O     O_3   0.006179 0.921863 0.209525 -0.601529
C140  C     C_3   0.013777 0.892025 0.263962 0.116709
H36   H     H_    0.991292 0.866279 0.235127 0.181313
H37   H     H_    0.009294 0.903643 0.308113 0.153760
C141  C     C_3   0.057723 0.874863 0.300061 -0.378230
H38   H     H_    0.061211 0.861175 0.256229 0.232029
H39   H     H_    0.080538 0.900476 0.327564 0.222210
C142  C     C_3   0.067025 0.841683 0.357979 -0.901622
H40   H     H_    0.064583 0.854957 0.403214 0.262139
H41   H     H_    0.099033 0.829781 0.382869 0.262036
H42   H     H_    0.044962 0.815401 0.331447 0.256994
O51   O     O_3   0.515048 0.423416 0.812675 -0.599614
C143  C     C_3   0.514443 0.391913 0.766204 0.127527
H43   H     H_    0.543061 0.373072 0.800184 0.184686
H44   H     H_    0.514554 0.403538 0.717291 0.151955
C144  C     C_3   0.476775 0.363970 0.739423 -0.384880
H45   H     H_    0.477988 0.350921 0.788539 0.228981
H46   H     H_    0.447907 0.382563 0.706364 0.222187
C145  C     C_3   0.475602 0.328425 0.691307 -0.902414
H47   H     H_    0.473530 0.340778 0.641039 0.261599
H48   H     H_    0.448011 0.308718 0.673005 0.261846
H49   H     H_    0.503895 0.308961 0.723717 0.257800
O52   O     O_3   0.486702 0.423040 0.188929 -0.599452
C146  C     C_3   0.487944 0.391581 0.235991 0.125595
H50   H     H_    0.459684 0.372220 0.202396 0.183120
H51   H     H_    0.487659 0.403229 0.284747 0.151192
C147  C     C_3   0.526128 0.364323 0.263178 -0.383341
H52   H     H_    0.525127 0.351228 0.214256 0.229090
H53   H     H_    0.554640 0.383442 0.295865 0.221885
C148  C     C_3   0.528011 0.328830 0.311944 -0.904329
H54   H     H_    0.529879 0.341243 0.362024 0.261350
H55   H     H_    0.555968 0.309625 0.330540 0.262028
H56   H     H_    0.500092 0.308851 0.279918 0.257533
O53   O     O_3   0.963568 0.208724 0.862185 -0.586791
C149  C     C_3   0.988760 0.180635 0.852310 0.096376
H57   H     H_    0.975209 0.179300 0.791333 0.202732
H58   H     H_    0.985333 0.148736 0.867365 0.163523
C150  C     C_3   0.035193 0.191991 0.890987 -0.471408
H59   H     H_    0.038693 0.223779 0.875571 0.215655
H60   H     H_    0.051358 0.190608 0.952577 0.229516
C151  C     C_3   0.056890 0.161696 0.868530 -0.801246
H61   H     H_    0.054081 0.129480 0.883643 0.271454
H62   H     H_    0.090306 0.169705 0.898182 0.244707
H63   H     H_    0.043008 0.163412 0.807488 0.291745
O54   O     O_3   0.035827 0.208463 0.136269 -0.588026
C152  C     C_3   0.008681 0.182301 0.144228 0.093586
H64   H     H_    0.021718 0.180471 0.204973 0.201806
H65   H     H_    0.010214 0.150102 0.127848 0.164433
C153  C     C_3   0.962992 0.196707 0.105285 -0.451929
H66   H     H_    0.961370 0.227976 0.124985 0.215493
H67   H     H_    0.947556 0.197969 0.043838 0.227239
C154  C     C_3   0.938385 0.166667 0.121429 -0.842806
H68   H     H_    0.938329 0.135373 0.099700 0.252574
H69   H     H_    0.905827 0.177578 0.093382 0.250647
H70   H     H_    0.952106 0.164789 0.182413 0.290135
O55   O     O_3   0.489358 0.707041 0.877648 -0.550206
C155  C     C_3   0.448602 0.691585 0.829718 0.032136
H71   H     H_    0.428640 0.716177 0.789591 0.146940
H72   H     H_    0.434322 0.680979 0.860178 0.130711
C156  C     C_3   0.449907 0.654838 0.786018 -0.248700
H73   H     H_    0.461493 0.665604 0.751507 0.270449
H74   H     H_    0.471595 0.630887 0.825662 0.233318
C157  C     C_3   0.407131 0.635410 0.735189 -0.892228
H75   H     H_    0.395332 0.623561 0.768748 0.247503
H76   H     H_    0.409282 0.609045 0.704141 0.285443
H77   H     H_    0.385003 0.658626 0.694352 0.255593
O56   O     O_3   0.510323 0.707218 0.122150 -0.550409
C158  C     C_3   0.551051 0.691716 0.170283 0.032924
H78   H     H_    0.570947 0.716283 0.210574 0.147342
H79   H     H_    0.565475 0.681113 0.140029 0.130609
C159  C     C_3   0.549601 0.654950 0.213704 -0.248622
H80   H     H_    0.537770 0.665674 0.247889 0.270578
H81   H     H_    0.528048 0.630982 0.173876 0.232682
C160  C     C_3   0.592374 0.635568 0.264923 -0.893274
H82   H     H_    0.604399 0.623723 0.231683 0.247576
H83   H     H_    0.590125 0.609211 0.295798 0.284683
H84   H     H_    0.614373 0.658810 0.305909 0.256025
O57   O     O_3   0.486234 0.792522 0.874908 -0.556791
C161  C     C_3   0.444625 0.806236 0.829762 0.077039
H85   H     H_    0.440860 0.835686 0.852407 0.151484
H86   H     H_    0.422205 0.783024 0.826371 0.105530
C162  C     C_3   0.433988 0.814266 0.750927 -0.306078
H87   H     H_    0.455519 0.837958 0.753048 0.232659
H88   H     H_    0.437945 0.785104 0.727788 0.230579
C163  C     C_3   0.389453 0.829571 0.699506 -0.923266
H89   H     H_    0.367328 0.805956 0.695336 0.255451
H90   H     H_    0.382786 0.835183 0.642850 0.264658
H91   H     H_    0.384954 0.859064 0.721014 0.260597
O58   O     O_3   0.513593 0.792699 0.124904 -0.557336
C164  C     C_3   0.555222 0.806314 0.170121 0.077306
H92   H     H_    0.559088 0.835647 0.147402 0.151785
H93   H     H_    0.577619 0.782960 0.173713 0.106227
C165  C     C_3   0.565774 0.814584 0.248855 -0.307324
H94   H     H_    0.544260 0.838412 0.246530 0.232496
H95   H     H_    0.561720 0.785540 0.272070 0.230651
C166  C     C_3   0.610327 0.829794 0.300348 -0.921105
H96   H     H_    0.632433 0.806048 0.304719 0.255839
H97   H     H_    0.616932 0.835585 0.356928 0.264680
H98   H     H_    0.614921 0.859172 0.278765 0.260668
O59   O     O_3   0.958724 0.294727 0.865863 -0.568943
C167  C     C_3   0.977779 0.296320 0.825318 0.114789
H99   H     H_    0.955290 0.311260 0.770887 0.171665
H100  H     H_    0.983313 0.265093 0.811192 0.164686
C168  C     C_3   0.017674 0.322423 0.864611 -0.420052
H101  H     H_    0.010721 0.354084 0.875373 0.245710
H102  H     H_    0.041373 0.307989 0.918778 0.213725
C169  C     C_3   0.035677 0.325801 0.816895 -0.889641
H103  H     H_    0.043416 0.294501 0.806209 0.256782
H104  H     H_    0.064444 0.344714 0.846674 0.263728
H105  H     H_    0.013108 0.341016 0.762807 0.259835
O60   O     O_3   0.043139 0.294525 0.133610 -0.569833
C170  C     C_3   0.024597 0.296643 0.175002 0.114974
H106  H     H_    0.047329 0.311963 0.228893 0.171340
H107  H     H_    0.019466 0.265604 0.190285 0.166639
C171  C     C_3   0.984615 0.322655 0.136091 -0.421792
H108  H     H_    0.991308 0.354201 0.124518 0.246079
H109  H     H_    0.960668 0.307957 0.082390 0.213070
C172  C     C_3   0.967228 0.326518 0.184746 -0.889975
H110  H     H_    0.959782 0.295360 0.196409 0.256457
H111  H     H_    0.938381 0.345341 0.155212 0.263979
H112  H     H_    0.990041 0.342058 0.238337 0.260041
N1    N     N_R   0.002191 0.082442 0.710391 0.137027
O61   O     O_R   0.031675 0.095508 0.703246 -0.390944
O62   O     O_R   0.972777 0.107815 0.697660 -0.381778
N2    N     N_R   0.993198 0.082320 0.285594 0.125380
O63   O     O_R   0.020018 0.109307 0.292087 -0.387417
O64   O     O_R   0.966421 0.093423 0.301239 -0.380095
N3    N     N_R   0.483261 0.580097 0.689723 0.136057
O65   O     O_R   0.506373 0.611729 0.726769 -0.395365
O66   O     O_R   0.449285 0.585942 0.624606 -0.354710
N4    N     N_R   0.515297 0.580383 0.308853 0.135971
O67   O     O_R   0.491872 0.611638 0.270764 -0.394902
O68   O     O_R   0.549121 0.586893 0.373897 -0.354595
O69   O     O_3   0.070674 0.038246 0.866892 -0.595478
C173  C     C_3   0.097964 0.052025 0.846654 0.136321
H113  H     H_    0.096191 0.086394 0.842463 0.176744
H114  H     H_    0.090847 0.039559 0.792265 0.167812
C174  C     C_3   0.142277 0.039619 0.907523 -0.325997
H115  H     H_    0.150914 0.053997 0.961355 0.223271
H116  H     H_    0.144052 0.005389 0.914379 0.255791
C175  C     C_3   0.173043 0.053387 0.888067 -0.929020
H117  H     H_    0.165052 0.039207 0.834497 0.264558
H118  H     H_    0.204797 0.043341 0.932722 0.254882
H119  H     H_    0.172722 0.087709 0.883180 0.264711
O70   O     O_3   0.924985 0.028161 0.125947 -0.575223
C176  C     C_3   0.903147 0.058428 0.138677 0.077343
H120  H     H_    0.876788 0.068726 0.083037 0.164322
H121  H     H_    0.922120 0.086515 0.165062 0.177219
C177  C     C_3   0.885190 0.041339 0.182034 -0.318165
H122  H     H_    0.866898 0.012945 0.153958 0.240534
H123  H     H_    0.910541 0.033103 0.239802 0.240947
C178  C     C_3   0.857349 0.073261 0.186251 -0.894803
H124  H     H_    0.874778 0.102419 0.212188 0.286956
H125  H     H_    0.846476 0.060943 0.220927 0.252360
H126  H     H_    0.829904 0.080075 0.129500 0.245652
O71   O     O_3   0.561060 0.552142 0.856668 -0.587581
C179  C     C_3   0.586925 0.568927 0.835322 0.164350
H127  H     H_    0.582741 0.603120 0.830907 0.193783
H128  H     H_    0.580039 0.557569 0.780437 0.145129
C180  C     C_3   0.632245 0.559765 0.895962 -0.343173
H129  H     H_    0.640037 0.573812 0.949534 0.227417
H130  H     H_    0.636885 0.525793 0.904052 0.259315
C181  C     C_3   0.661482 0.577018 0.875385 -0.935019
H131  H     H_    0.654461 0.563112 0.822233 0.262146
H132  H     H_    0.694023 0.569384 0.920128 0.255974
H133  H     H_    0.658308 0.611270 0.869224 0.269003
O72   O     O_3   0.437730 0.550743 0.142942 -0.585857
C182  C     C_3   0.412011 0.567069 0.165058 0.164639
H134  H     H_    0.415406 0.601347 0.168518 0.191816
H135  H     H_    0.419736 0.556026 0.220630 0.146362
C183  C     C_3   0.366706 0.556901 0.105756 -0.343758
H136  H     H_    0.357779 0.571483 0.051945 0.224036
H137  H     H_    0.362860 0.522866 0.097248 0.267727
C184  C     C_3   0.337925 0.572618 0.128595 -0.923862
H138  H     H_    0.345591 0.557474 0.181231 0.266138
H139  H     H_    0.305277 0.565196 0.084169 0.255695
H140  H     H_    0.340916 0.606777 0.136719 0.265231
N5    N     N_R   0.070445 0.957059 0.780072 0.107533
O73   O     O_R   0.093267 0.938182 0.843765 -0.370872
O74   O     O_R   0.080760 0.955640 0.731767 -0.405915
N6    N     N_R   0.932501 0.951927 0.222457 0.106145
O75   O     O_R   0.909287 0.933982 0.157879 -0.343343
O76   O     O_R   0.924002 0.947230 0.272821 -0.404410
N7    N     N_R   0.576826 0.471229 0.785296 0.105286
O77   O     O_R   0.602254 0.454819 0.850523 -0.368414
O78   O     O_R   0.586574 0.471605 0.736179 -0.402156
N8    N     N_R   0.424071 0.469619 0.215808 0.104201
O79   O     O_R   0.399109 0.452348 0.151188 -0.381595
O80   O     O_R   0.414097 0.470483 0.264604 -0.425239
O81   O     O_3   0.792415 0.942280 0.216205 -0.602515
C185  C     C_3   0.805292 0.959930 0.171725 0.074809
H141  H     H_    0.835486 0.945623 0.188946 0.228252
H142  H     H_    0.810777 0.994068 0.179595 0.122080
C186  C     C_3   0.773819 0.950166 0.089162 -0.377187
H143  H     H_    0.769395 0.916035 0.081584 0.243118
H144  H     H_    0.743510 0.964669 0.070652 0.212526
C187  C     C_3   0.788364 0.966548 0.040548 -0.858347
H145  H     H_    0.791736 0.000830 0.045551 0.250379
H146  H     H_    0.765158 0.958568 0.981256 0.257745
H147  H     H_    0.818563 0.952358 0.057485 0.291277
O82   O     O_3   0.207012 0.936464 0.770211 -0.599739
C188  C     C_3   0.211491 0.939770 0.839947 0.031740
H148  H     H_    0.200094 0.970505 0.845337 0.153168
H149  H     H_    0.244509 0.935720 0.886688 0.135712
C189  C     C_3   0.185886 0.905766 0.845774 -0.276325
H150  H     H_    0.152653 0.909835 0.800587 0.278228
H151  H     H_    0.196205 0.874938 0.838626 0.215126
C190  C     C_3   0.190660 0.907000 0.921236 -0.835778
H152  H     H_    0.223457 0.901187 0.966999 0.235827
H153  H     H_    0.170929 0.882624 0.923050 0.272415
H154  H     H_    0.180907 0.937682 0.930029 0.271953
O83   O     O_3   0.292376 0.439455 0.221644 -0.610907
C191  C     C_3   0.304427 0.453996 0.174017 0.105189
H155  H     H_    0.333115 0.437091 0.189083 0.232122
H156  H     H_    0.312428 0.487693 0.181205 0.135498
C192  C     C_3   0.270765 0.444516 0.092283 -0.405762
H157  H     H_    0.262680 0.411026 0.086287 0.239914
H158  H     H_    0.242476 0.462899 0.074812 0.211041
C193  C     C_3   0.285252 0.455139 0.040878 -0.839426
H159  H     H_    0.292710 0.488668 0.044871 0.255703
H160  H     H_    0.260194 0.447925 0.982254 0.249613
H161  H     H_    0.313099 0.436610 0.056022 0.290064
O84   O     O_3   0.706485 0.456719 0.800253 -0.594528
C194  C     C_3   0.707770 0.477148 0.859970 0.065519
H162  H     H_    0.675555 0.486139 0.840567 0.219931
H163  H     H_    0.726847 0.506125 0.879744 0.109151
C195  C     C_3   0.724250 0.447154 0.925562 -0.308998
H164  H     H_    0.704705 0.418752 0.906880 0.252893
H165  H     H_    0.756503 0.438014 0.945407 0.205505
C196  C     C_3   0.724030 0.466782 0.990078 -0.884370
H166  H     H_    0.743111 0.495470 0.009394 0.247459
H167  H     H_    0.737181 0.444586 0.037362 0.258716
H168  H     H_    0.691826 0.474422 0.972426 0.278835

loop_
_geom_bond_atom_site_label_1
_geom_bond_atom_site_label_2
_geom_bond_distance
_ccdc_geom_bond_type
C106  C108  1.402046 A    
C194  H162  1.110934 S    
O27   C85   1.276787 A    
N1    O61   1.300056 A    
C31   C35   1.535702 S    
O81   C185  1.416306 S    
C68   C80   1.208520 T    
C59   C63   1.410718 A    
O55   C155  1.414664 S    
C14   C18   1.528786 S    
C178  H126  1.110726 S    
O20   Cu8   1.940086 S    
C125  O56   1.384832 S    
C80   C94   1.439438 S    
C158  H79   1.116154 S    
C118  O58   1.383979 S    
C188  H148  1.115175 S    
C77   C91   1.439035 S    
C152  C153  1.550086 S    
C78   C92   1.438725 S    
C153  H66   1.107618 S    
C182  H135  1.116596 S    
C13   O49   1.410841 S    
Cu8   O32   1.940544 S    
C167  C168  1.537221 S    
C195  H165  1.111263 S    
C9    C13   1.547757 S    
C60   C64   1.406854 A    
C150  C151  1.526431 S    
C10   H2    1.109686 S    
C18   C84   1.458999 S    
C123  O54   1.391033 S    
O33   C89   1.299950 A    
C145  H48   1.110349 S    
O25   Cu6   1.975778 S    
O39   Cu11  1.939559 S    
O37   Cu9   1.939559 S    
O58   C164  1.414715 S    
C42   H10   1.083522 S    
C119  C122  1.404203 A    
C154  H69   1.110469 S    
O4    C4    1.284971 A    
C3    C75   1.438395 S    
C175  H119  1.110797 S    
Cu7   O31   1.940370 S    
C186  H144  1.110707 S    
N5    O74   1.299837 A    
C34   N6    1.458479 S    
C66   C78   1.208097 T    
C172  H111  1.110380 S    
C143  H44   1.117026 S    
O3    Cu2   1.940496 S    
C104  C107  1.402004 A    
C179  H128  1.116502 S    
C174  C175  1.526388 S    
C169  H103  1.111003 S    
O19   C82   1.285403 A    
Cu9   O45   1.940864 S    
O16   Cu4   1.975059 S    
C161  H85   1.111348 S    
C58   C62   1.407971 A    
O13   C5    1.280152 A    
O7    Cu4   1.939689 S    
C9    C21   1.560928 S    
C162  C163  1.526044 S    
O15   C7    1.278644 A    
C138  H31   1.111875 S    
O36   Cu12  1.940944 S    
C46   C50   1.400111 A    
C173  H114  1.116009 S    
C158  H78   1.110606 S    
O34   Cu10  1.940944 S    
O19   Cu7   1.940258 S    
C139  H34   1.110341 S    
C159  H80   1.111126 S    
C100  C103  1.400577 A    
O9    C5    1.274940 A    
C97   C106  1.400560 A    
C187  H145  1.110941 S    
C117  C126  1.406803 A    
C110  C116  1.208407 T    
C176  H120  1.110867 S    
O8    Cu4   1.939861 S    
C183  H137  1.108638 S    
C16   C20   1.533342 S    
C157  H75   1.110865 S    
C178  H124  1.110802 S    
O24   C86   1.277286 A    
O31   C88   1.284828 A    
O82   C188  1.412624 S    
Cu12  O48   1.940500 S    
C188  C189  1.527326 S    
C101  C109  1.444025 S    
C153  C154  1.524795 S    
C52   H16   1.083431 S    
C167  H99   1.110843 S    
C146  H51   1.117025 S    
C169  H105  1.110822 S    
C177  H123  1.108929 S    
Cu5   Cu6   2.645493 S    
C33   C37   1.543528 S    
C41   C61   1.404191 A    
C51   C55   1.399195 A    
C35   C39   1.544480 S    
C46   C66   1.443577 S    
C36   C40   1.543830 S    
C121  C129  1.447001 S    
C191  H155  1.110687 S    
C155  H72   1.116119 S    
N6    O75   1.300173 A    
O28   Cu7   1.975780 S    
O44   Cu11  1.942291 S    
C25   C29   1.533247 S    
C27   C31   1.535871 S    
C171  H108  1.110851 S    
C190  H153  1.110409 S    
O3    C3    1.285072 A    
O59   C167  1.416279 S    
C82   C114  1.438277 S    
C24   C28   1.541820 S    
O23   C85   1.277300 A    
C112  C114  1.207888 T    
C14   C34   1.526481 S    
C17   C21   1.546954 S    
C184  H138  1.111035 S    
C19   C23   1.548093 S    
O43   C93   1.300012 A    
C99   H27   1.083403 S    
C20   C24   1.548363 S    
O70   C176  1.410443 S    
C129  C135  1.207498 T    
C41   C45   1.401324 A    
N7    O77   1.300187 A    
C196  H168  1.109798 S    
C43   C47   1.401151 A    
C173  H113  1.110577 S    
C156  H74   1.112144 S    
C186  H143  1.111504 S    
O26   Cu5   1.975780 S    
O17   C81   1.285410 A    
C194  H163  1.118710 S    
O27   Cu8   1.975778 S    
C12   C16   1.548363 S    
C138  C139  1.525699 S    
C18   C22   1.545987 S    
C126  C128  1.408889 A    
C17   C83   1.457331 S    
C6    C38   1.461067 S    
O38   Cu10  1.939556 S    
C56   H20   1.083492 S    
C117  O57   1.383997 S    
O50   C140  1.414200 S    
C164  H93   1.116341 S    
C30   O70   1.416774 S    
O5    Cu3   1.939689 S    
Cu5   O29   1.940370 S    
C187  H147  1.110828 S    
C176  C177  1.536727 S    
C193  H159  1.109742 S    
C16   O52   1.410962 S    
C15   C19   1.533153 S    
C79   C93   1.439155 S    
O8    C4    1.285431 A    
C192  C193  1.525536 S    
C142  H42   1.110885 S    
C140  H36   1.111003 S    
O30   C87   1.284876 A    
N2    O63   1.300408 A    
C175  H118  1.110362 S    
O49   C137  1.414133 S    
C107  C111  1.443280 S    
C160  H83   1.110294 S    
C32   O72   1.413411 S    
C9    C37   1.554058 S    
O84   C194  1.416635 S    
C10   C14   1.546393 S    
O13   Cu3   1.974707 S    
C191  C192  1.532699 S    
C11   C39   1.552935 S    
O54   C152  1.427526 S    
C12   C40   1.553020 S    
C25   N1    1.459319 S    
O39   C93   1.300213 A    
O40   Cu12  1.939556 S    
C144  C145  1.525596 S    
C145  H49   1.110881 S    
O37   C91   1.300120 A    
C163  H90   1.110336 S    
O5    C1    1.285422 A    
C57   C69   1.445531 S    
C124  C127  1.422111 A    
O26   C84   1.279416 A    
C105  C108  1.402028 A    
C59   C71   1.445440 S    
C193  H161  1.110451 S    
C184  H140  1.110762 S    
O15   Cu4   1.974707 S    
C148  H55   1.110350 S    
C17   C29   1.536724 S    
C19   C31   1.537896 S    
C21   H5    1.110150 S    
N8    O79   1.300021 A    
C100  C102  1.402178 A    
N2    O64   1.300448 A    
C72   C76   1.207626 T    
O20   C82   1.285383 A    
O72   C182  1.416338 S    
C186  C187  1.526107 S    
C43   C63   1.404504 A    
C20   C86   1.458120 S    
O14   C6    1.280948 A    
C10   C22   1.558775 S    
C128  C132  1.446126 S    
O36   C90   1.299504 A    
C165  H94   1.111711 S    
C178  H125  1.110098 S    
O46   C95   1.298850 A    
C147  H52   1.111918 S    
C152  H65   1.107466 S    
C48   C68   1.444190 S    
O35   Cu11  1.940583 S    
C1    C73   1.438308 S    
O10   C6    1.274401 A    
O18   C81   1.285397 A    
C153  H67   1.109261 S    
O52   C146  1.413832 S    
O22   Cu6   1.977067 S    
O18   Cu6   1.940086 S    
C44   C48   1.401742 A    
C170  C171  1.537449 S    
C195  C196  1.525922 S    
C187  H146  1.110264 S    
C141  H38   1.111815 S    
C150  H60   1.109164 S    
C29   O69   1.412362 S    
C181  H132  1.110443 S    
C53   H17   1.083496 S    
O24   Cu8   1.977067 S    
C166  H98   1.110938 S    
C103  C107  1.402016 A    
C55   H19   1.083498 S    
C192  H157  1.111535 S    
C168  C169  1.525600 S    
C151  H61   1.111201 S    
C8    C40   1.460864 S    
C137  H29   1.111024 S    
C140  C141  1.528971 S    
Cu11  O47   1.940864 S    
C52   C56   1.399150 A    
C55   C59   1.401874 A    
O1    Cu1   1.940496 S    
C49   H13   1.083422 S    
H24   C105  1.083609 S    
C4    C76   1.437909 S    
C64   O84   1.383391 S    
C34   C38   1.545300 S    
C51   H15   1.083416 S    
N5    O73   1.299841 A    
C58   C70   1.445465 S    
C96   C116  1.439240 S    
O33   Cu9   1.940583 S    
C28   N4    1.458423 S    
C48   C52   1.400570 A    
C99   C104  1.400525 A    
C147  C148  1.525604 S    
C172  H110  1.110911 S    
C144  H45   1.111911 S    
C81   C113  1.438318 S    
C26   C30   1.542170 S    
O42   C92   1.300170 A    
N7    O78   1.299818 A    
O21   C83   1.276183 A    
C22   H6    1.110215 S    
O22   C84   1.274802 A    
C180  C181  1.526109 S    
C169  H104  1.110380 S    
C160  H84   1.110792 S    
O23   Cu7   1.977067 S    
C185  H141  1.110718 S    
C161  H86   1.116358 S    
C142  H40   1.110971 S    
C189  H150  1.111004 S    
C15   C35   1.528261 S    
C98   H26   1.083404 S    
C162  H88   1.111764 S    
C33   N5    1.457046 S    
N4    O67   1.298959 A    
O44   C94   1.299950 A    
C97   C101  1.402181 A    
O34   C89   1.300086 A    
C159  H81   1.112130 S    
N3    O65   1.298910 A    
C41   H9    1.083613 S    
C5    C37   1.460516 S    
C2    C74   1.438765 S    
C44   H12   1.083428 S    
C49   C53   1.399074 A    
C161  C162  1.527502 S    
C7    C39   1.461037 S    
N1    O62   1.300324 A    
H21   C104  1.083605 S    
C11   C23   1.558996 S    
O53   C149  1.426919 S    
C12   C24   1.559204 S    
C149  C150  1.549172 S    
C65   C77   1.208281 T    
C157  H76   1.110317 S    
C165  C166  1.526041 S    
C31   O71   1.413324 S    
C67   C79   1.208347 T    
C54   H18   1.083499 S    
C158  C159  1.528168 S    
O32   C88   1.284830 A    
C188  H149  1.113896 S    
O12   Cu2   1.975554 S    
C159  C160  1.525539 S    
C25   C37   1.542492 S    
O83   C191  1.416164 S    
C182  C183  1.528629 S    
O1    C1    1.285258 A    
C27   N3    1.458332 S    
C28   C40   1.541169 S    
C170  H106  1.110843 S    
C29   C33   1.533117 S    
C195  H164  1.111730 S    
C23   C27   1.541795 S    
C44   C64   1.407752 A    
C171  C172  1.525668 S    
C50   H14   1.083413 S    
C141  C142  1.525721 S    
C32   C36   1.535286 S    
C157  H77   1.110791 S    
N6    O76   1.299828 A    
O7    C3    1.285599 A    
C166  H96   1.110925 S    
C163  H91   1.110941 S    
C145  H47   1.110944 S    
C127  C131  1.446394 S    
C62   O82   1.384073 S    
C20   C32   1.537609 S    
C57   C61   1.411146 A    
C168  H101  1.111007 S    
C151  H63   1.110562 S    
C21   C25   1.543741 S    
C154  H70   1.110733 S    
C27   C39   1.541239 S    
C98   C105  1.400531 A    
C24   H8    1.110175 S    
C171  H109  1.110949 S    
C118  C125  1.406862 A    
C167  H100  1.105060 S    
C60   C72   1.444627 S    
C10   C38   1.551853 S    
C11   C15   1.548361 S    
C99   C102  1.402113 A    
C156  H73   1.111072 S    
C172  H112  1.110820 S    
C143  H43   1.110989 S    
C102  C110  1.443974 S    
C125  C128  1.408862 A    
Cu2   Cu4   2.644479 S    
Cu6   O30   1.940544 S    
C179  H127  1.110351 S    
O6    C2    1.285387 A    
O4    Cu2   1.940323 S    
C180  H129  1.111588 S    
C42   C62   1.409047 A    
C130  C136  1.207217 T    
C50   C54   1.399126 A    
C189  C190  1.526147 S    
C13   C17   1.532678 S    
C45   C65   1.443794 S    
C95   C115  1.439298 S    
C138  H32   1.110968 S    
C18   C30   1.542047 S    
C47   C51   1.400426 A    
O17   Cu5   1.940258 S    
O57   C161  1.414741 S    
C120  C123  1.413181 A    
C139  H33   1.110963 S    
O2    Cu1   1.940323 S    
O10   Cu1   1.975554 S    
C164  H92   1.111359 S    
O48   C96   1.298799 A    
C173  C174  1.527506 S    
Cu10  O46   1.940500 S    
C9    H1    1.109724 S    
C176  H121  1.104788 S    
C149  H57   1.110858 S    
C193  H160  1.110284 S    
Cu7   Cu8   2.645493 S    
C191  H156  1.116610 S    
C192  H158  1.110562 S    
H23   C106  1.083619 S    
C123  C127  1.422093 A    
C42   C46   1.400560 A    
Cu11  Cu12  2.692677 S    
C182  H134  1.110355 S    
C108  C112  1.443215 S    
C146  C147  1.529075 S    
C14   O50   1.410875 S    
C177  H122  1.109621 S    
C132  C134  1.205928 T    
O71   C179  1.415988 S    
C160  H82   1.110865 S    
O29   C87   1.284836 A    
C155  H71   1.110611 S    
C89   C135  1.437216 S    
O25   C83   1.277415 A    
C120  O60   1.390949 S    
C144  H46   1.110909 S    
C63   O83   1.383482 S    
O41   Cu10  1.942292 S    
O42   Cu9   1.942291 S    
C88   C134  1.434731 S    
C190  H154  1.110345 S    
C196  H167  1.110280 S    
O16   C8    1.278809 A    
C11   H3    1.109666 S    
C142  H41   1.110342 S    
C183  C184  1.526504 S    
C109  C115  1.208439 T    
C98   C101  1.402176 A    
C45   C49   1.400456 A    
C184  H139  1.110146 S    
C148  H54   1.110942 S    
C87   C133  1.434839 S    
C143  C144  1.529119 S    
C69   C73   1.207892 T    
O11   C7    1.276596 A    
Cu9   Cu10  2.692677 S    
N8    O80   1.299759 A    
N3    O66   1.300436 A    
C181  H133  1.110713 S    
O9    Cu1   1.975911 S    
O21   Cu5   1.977067 S    
C179  C180  1.528364 S    
C23   H7    1.110183 S    
C156  C157  1.525549 S    
N4    O68   1.300437 A    
C119  O59   1.390504 S    
C194  C195  1.528431 S    
C35   N7    1.458087 S    
C47   C67   1.443913 S    
C165  H95   1.111765 S    
C97   H25   1.083402 S    
O11   Cu2   1.975911 S    
C147  H53   1.110925 S    
C126  O55   1.384803 S    
C152  H64   1.110771 S    
O45   C95   1.298929 A    
C139  H35   1.110889 S    
C100  H28   1.083401 S    
C53   C57   1.401701 A    
C164  C165  1.527499 S    
C26   N2    1.462150 S    
C170  H107  1.104646 S    
O6    Cu3   1.939861 S    
C117  C121  1.411152 A    
C141  H39   1.110874 S    
C196  H166  1.110892 S    
C166  H97   1.110338 S    
O35   C90   1.300417 A    
O43   Cu12  1.942292 S    
C120  C122  1.403579 A    
C168  H102  1.110962 S    
C151  H62   1.110368 S    
C137  H30   1.117013 S    
C140  H37   1.116993 S    
C154  H68   1.110402 S    
C119  C124  1.413562 A    
C26   C38   1.545450 S    
O41   C91   1.300049 A    
C146  H50   1.110997 S    
O2    C2    1.285470 A    
C177  C178  1.525730 S    
C175  H117  1.111066 S    
C56   C60   1.401699 A    
O69   C173  1.414609 S    
C30   C34   1.534621 S    
O47   C96   1.298950 A    
C183  H136  1.111570 S    
C70   C74   1.208140 T    
O56   C158  1.414629 S    
C13   C33   1.528492 S    
C155  C156  1.528066 S    
O14   Cu3   1.975059 S    
C16   C36   1.528172 S    
O28   C86   1.276729 A    
O51   C143  1.413810 S    
C61   O81   1.383613 S    
Cu1   Cu3   2.644479 S    
C137  C138  1.528866 S    
C22   C26   1.545940 S    
C15   O51   1.410964 S    
C122  C130  1.447551 S    
C163  H89   1.110926 S    
C190  H152  1.110935 S    
C174  H115  1.111603 S    
C43   H11   1.083648 S    
H22   C103  1.083630 S    
C180  H130  1.107761 S    
C118  C121  1.411200 A    
O60   C170  1.416366 S    
C185  H142  1.115785 S    
C124  O53   1.391807 S    
C174  H116  1.110299 S    
C189  H151  1.111807 S    
C19   C85   1.458327 S    
C149  H58   1.107715 S    
C131  C133  1.207416 T    
C12   H4    1.109664 S    
C90   C136  1.436900 S    
C162  H87   1.111712 S    
C148  H56   1.110883 S    
C111  C113  1.207920 T    
O40   C94   1.300420 A    
O38   C92   1.299844 A    
O12   C8    1.276379 A    
C181  H131  1.110992 S    
C71   C75   1.207905 T    
C54   C58   1.402068 A    
C36   N8    1.457616 S    
C28   C32   1.535809 S    
C185  C186  1.531111 S    
C150  H59   1.107990 S    
