data_mof_unit_50932.cif
_audit_creation_date              2012-10-26T19:59:13-0400
_audit_creation_method            fapswitch 2.2
_symmetry_space_group_name_H-M    P1
_symmetry_Int_Tables_number       1
_space_group_crystal_system       triclinic
_cell_length_a                    7.506385
_cell_length_b                    8.694792
_cell_length_c                    15.799167
_cell_angle_alpha                 95.910016
_cell_angle_beta                  74.764496
_cell_angle_gamma                 103.500652
_cell_volume                      966.470003405

loop_
_atom_site_label
_atom_site_type_symbol
_atom_type_description
_atom_site_fract_x
_atom_site_fract_y
_atom_site_fract_z
_atom_type_partial_charge
C1    C     C_R   0.545124 0.800059 0.502888 0.546237
C2    C     C_R   0.617026 0.516138 0.333915 0.542696
C3    C     C_R   0.309558 0.459698 0.761390 0.011830
C4    C     C_R   0.690442 0.540302 0.238610 0.011830
C5    C     C_R   0.075688 0.345066 0.889313 -0.106275
C6    C     C_R   0.924311 0.654937 0.110687 -0.106275
C7    C     C_R   0.125455 0.372944 0.799540 -0.017987
C8    C     C_R   0.874544 0.627058 0.200461 -0.017988
C9    C     C_R   0.437277 0.514429 0.814091 -0.146662
C10   C     C_R   0.562723 0.485571 0.185909 -0.146661
C11   C     C_R   0.393159 0.477312 0.902775 0.020375
C12   C     C_R   0.454876 0.199941 0.497111 0.546237
C13   C     C_R   0.606840 0.522690 0.097225 0.020375
C14   C     C_R   0.207178 0.394917 0.940420 0.030985
C15   C     C_R   0.792821 0.605086 0.059580 0.030985
C16   C     C_R   0.528369 0.518626 0.954794 0.030876
C17   C     C_R   0.471631 0.481376 0.045206 0.030876
C18   C     C_3   0.017592 0.696321 0.253208 -0.361613
C19   C     C_3   0.982407 0.303681 0.746792 -0.361613
C20   C     C_R   0.281014 0.406400 0.080793 -0.138568
C21   C     C_R   0.718985 0.593604 0.919208 -0.138568
C22   C     C_R   0.153032 0.362109 0.028954 -0.131415
C23   C     C_R   0.846967 0.637894 0.971046 -0.131415
C24   C     C_2   0.569055 0.968453 0.505255 -0.139964
C25   C     C_2   0.430945 0.031547 0.494745 -0.139964
C26   C     C_R   0.382974 0.483862 0.666084 0.542696
Cu1   Cu    Cu3+1 0.322120 0.483240 0.490330 1.041699
Cu2   Cu    Cu3+1 0.677880 0.516760 0.509670 1.041699
H1    H     H_    0.009355 0.302508 0.058846 0.123519
H2    H     H_    0.298993 0.959264 0.483933 0.155030
H3    H     H_    0.060140 0.600234 0.278841 0.175521
H4    H     H_    0.148080 0.769315 0.212807 0.119615
H5    H     H_    0.957251 0.773981 0.308294 0.161518
H6    H     H_    0.939859 0.399767 0.721159 0.175521
H7    H     H_    0.042748 0.226019 0.691707 0.161518
H8    H     H_    0.851919 0.230687 0.787194 0.119615
H9    H     H_    0.990644 0.697496 0.941155 0.123519
H10   H     H_    0.427897 0.414321 0.216609 0.134923
H11   H     H_    0.572103 0.585678 0.783391 0.134923
H12   H     H_    0.934279 0.280883 0.919424 0.117462
H13   H     H_    0.065720 0.719120 0.080577 0.117462
H14   H     H_    0.223902 0.380182 0.148913 0.124263
H15   H     H_    0.776097 0.619823 0.851088 0.124263
H16   H     H_    0.701007 0.040736 0.516067 0.155030
I1    I     I_    0.012321 0.704013 0.623704 -0.299269
I2    I     I_    0.987679 0.295987 0.376296 -0.299269
N1    N     N_2   0.945180 0.542040 0.524240 -0.032971
N2    N     N_2   0.054820 0.457960 0.475760 -0.032971
O1    O     O_R   0.384450 0.714270 0.493720 -0.484421
O2    O     O_R   0.615550 0.285730 0.506280 -0.484421
O3    O     O_R   0.684880 0.742590 0.510050 -0.488905
O4    O     O_R   0.315120 0.257410 0.489950 -0.488905
O5    O     O_R   0.265540 0.477900 0.617090 -0.490521
O6    O     O_R   0.734460 0.522100 0.382910 -0.490520
O7    O     O_R   0.565970 0.506210 0.633420 -0.497979
O8    O     O_R   0.434030 0.493790 0.366580 -0.497979

loop_
_geom_bond_atom_site_label_1
_geom_bond_atom_site_label_2
_ccdc_geom_bond_type
Cu1   N2    S    
C2    C4    S    
Cu1   O5    S    
Cu2   N1    S    
C16   C21   A    
C3    C9    A    
C22   H1    S    
C23   H9    S    
C9    C11   A    
C11   C16   A    
C20   H14   S    
N1    N2    D    
C13   C17   A    
C12   C25   S    
C10   H10   S    
C26   O7    A    
C14   C22   A    
C13   C15   A    
C19   H6    S    
C11   C14   A    
C19   H7    S    
C24   C25   D    
C1    O3    A    
C5    C14   A    
C16   C17   A    
C1    O1    A    
C6    C8    A    
C15   C23   A    
C18   H5    S    
Cu2   O7    S    
C20   C22   A    
C3    C7    A    
C7    C19   S    
C19   H8    S    
C21   C23   A    
C24   H16   S    
Cu2   O3    S    
I2    N2    S    
C5    H12   S    
C18   H4    S    
C4    C10   A    
C26   O5    A    
C9    H11   S    
C17   C20   A    
Cu1   O4    S    
C1    C24   S    
C2    O6    A    
I1    N1    S    
C4    C8    A    
C5    C7    A    
Cu2   O6    S    
Cu1   O8    S    
C25   H2    S    
C2    O8    A    
C18   H3    S    
C12   O4    A    
C6    C15   A    
C21   H15   S    
Cu2   O2    S    
C6    H13   S    
C3    C26   S    
C8    C18   S    
Cu1   O1    S    
C12   O2    A    
Cu1   Cu2   S    
C10   C13   A    
