data_mof_unit_53738.cif
_audit_creation_date              2012-12-10T17:01:11-0500
_audit_creation_method            fapswitch 2.2
_symmetry_space_group_name_H-M    P1
_symmetry_Int_Tables_number       1
_space_group_crystal_system       triclinic
_cell_length_a                    15.922651
_cell_length_b                    15.625524
_cell_length_c                    9.762235
_cell_angle_alpha                 90.00036
_cell_angle_beta                  61.878706
_cell_angle_gamma                 89.999942
_cell_volume                      2142.12126396

loop_
_atom_site_label
_atom_site_type_symbol
_atom_type_description
_atom_site_fract_x
_atom_site_fract_y
_atom_site_fract_z
_atom_type_partial_charge
C1    C     C_R   0.375974 0.120039 0.557524 0.827388
C2    C     C_R   0.627914 0.882564 0.441596 0.848082
C3    C     C_R   0.624027 0.120038 0.442476 0.827385
C4    C     C_R   0.372086 0.882564 0.558403 0.848059
C5    C     C_R   0.875986 0.620048 0.557521 0.827401
C6    C     C_R   0.127912 0.382562 0.441597 0.848053
C7    C     C_R   0.124016 0.620047 0.442480 0.827389
C8    C     C_R   0.872092 0.382559 0.558399 0.848036
C9    C     C_2   0.510184 0.005058 0.916383 0.096466
C10   C     C_2   0.489818 0.005066 0.083612 0.096455
C11   C     C_2   0.010183 0.505072 0.916384 0.096429
C12   C     C_2   0.989818 0.505072 0.083613 0.096504
C13   C     C_2   0.299560 0.818323 0.582586 -0.366482
C14   C     C_2   0.691403 0.187841 0.416513 -0.405962
C15   C     C_2   0.700446 0.818326 0.417406 -0.366577
C16   C     C_2   0.308601 0.187845 0.583486 -0.405974
C17   C     C_2   0.799582 0.318305 0.582568 -0.366383
C18   C     C_2   0.191371 0.687869 0.416519 -0.405923
C19   C     C_2   0.200433 0.318314 0.417416 -0.366414
C20   C     C_2   0.808630 0.687868 0.583490 -0.405899
C21   C     C_2   0.263471 0.805278 0.482709 0.193830
C22   C     C_2   0.684313 0.244077 0.526990 0.111369
C23   C     C_2   0.736511 0.805263 0.517310 0.193852
C24   C     C_2   0.315696 0.244082 0.473007 0.111410
C25   C     C_2   0.763490 0.305261 0.482695 0.193806
C26   C     C_2   0.184290 0.744097 0.527004 0.111446
C27   C     C_2   0.236519 0.305266 0.517295 0.193804
C28   C     C_2   0.815703 0.744095 0.473011 0.111500
Cu1   Cu    Cu3+1 0.522650 1.000000 0.349410 0.941157
Cu2   Cu    Cu3+1 0.477350 1.000000 0.650590 0.941167
Cu3   Cu    Cu3+1 0.022650 0.500000 0.349410 0.941127
Cu4   Cu    Cu3+1 0.977350 0.500000 0.650590 0.941134
H1    H     H_    0.749822 0.190410 0.299897 0.154294
H2    H     H_    0.272031 0.781517 0.689504 0.136139
H3    H     H_    0.250176 0.190413 0.700099 0.154314
H4    H     H_    0.728009 0.781547 0.310453 0.136122
H5    H     H_    0.249779 0.690454 0.299891 0.154307
H6    H     H_    0.772074 0.281482 0.689464 0.136143
H7    H     H_    0.750219 0.690447 0.700117 0.154293
H8    H     H_    0.227954 0.281502 0.310506 0.136128
H9    H     H_    0.416869 0.000762 0.173366 0.129426
H10   H     H_    0.583132 0.000743 0.826630 0.129428
H11   H     H_    0.916869 0.500769 0.173370 0.129477
H12   H     H_    0.083131 0.500767 0.826627 0.129484
N1    N     N_2   0.443290 1.000000 0.876860 -0.051098
N2    N     N_2   0.556710 1.000000 0.123140 -0.051083
N3    N     N_2   0.943290 0.500000 0.876860 -0.051115
N4    N     N_2   0.056710 0.500000 0.123140 -0.051088
O1    O     O_R   0.422430 0.089640 0.419570 -0.597252
O2    O     O_R   0.577570 0.910360 0.580430 -0.584154
O3    O     O_R   0.577570 0.089640 0.580430 -0.597241
O4    O     O_R   0.422430 0.910360 0.419570 -0.584155
O5    O     O_R   0.922430 0.589640 0.419570 -0.597246
O6    O     O_R   0.077570 0.410360 0.580430 -0.584144
O7    O     O_R   0.077570 0.589640 0.580430 -0.597248
O8    O     O_R   0.922430 0.410360 0.419570 -0.584165
O9    O     O_R   0.384170 0.089650 0.673910 -0.562752
O10   O     O_R   0.615830 0.910350 0.326090 -0.613182
O11   O     O_R   0.615830 0.089650 0.326090 -0.562769
O12   O     O_R   0.384170 0.910350 0.673910 -0.613159
O13   O     O_R   0.884170 0.589650 0.673910 -0.562812
O14   O     O_R   0.115830 0.410350 0.326090 -0.613211
O15   O     O_R   0.115830 0.589650 0.326090 -0.562832
O16   O     O_R   0.884170 0.410350 0.673910 -0.613189
O17   O     O_3   0.637229 0.040386 0.022549 -0.538852
C29   C     C_3   0.715266 0.990289 0.003488 0.197634
H13   H     H_    0.702867 0.921032 0.992393 0.122380
H14   H     H_    0.729890 0.999941 0.102798 0.177919
C30   C     C_3   0.802382 0.019671 0.855518 -0.408336
H15   H     H_    0.787870 0.013726 0.755183 0.214462
H16   H     H_    0.816967 0.088125 0.867300 0.229527
C31   C     C_3   0.890018 0.966832 0.823727 -0.963149
H17   H     H_    0.906913 0.973252 0.921444 0.260060
H18   H     H_    0.951745 0.990070 0.715726 0.266365
H19   H     H_    0.877660 0.898369 0.808263 0.261423
O18   O     O_3   0.362795 0.040427 0.977422 -0.538833
C32   C     C_3   0.284730 0.990352 0.996553 0.197542
H20   H     H_    0.297079 0.921102 0.007793 0.122350
H21   H     H_    0.270131 0.999947 0.897206 0.177938
C33   C     C_3   0.197623 0.019834 0.144447 -0.408272
H22   H     H_    0.212105 0.013929 0.244818 0.214471
H23   H     H_    0.183104 0.088288 0.132524 0.229529
C34   C     C_3   0.109948 0.967044 0.176293 -0.963043
H24   H     H_    0.093208 0.973264 0.078368 0.260028
H25   H     H_    0.048173 0.990492 0.284047 0.266316
H26   H     H_    0.122168 0.898610 0.192257 0.261422
O19   O     O_3   0.137248 0.540350 0.022518 -0.538913
C35   C     C_3   0.215266 0.490256 0.003559 0.197703
H27   H     H_    0.202848 0.420993 0.992575 0.122442
H28   H     H_    0.229883 0.499968 0.102860 0.177939
C36   C     C_3   0.302405 0.519571 0.855557 -0.408444
H29   H     H_    0.287905 0.513584 0.755219 0.214469
H30   H     H_    0.317019 0.588028 0.867247 0.229523
C37   C     C_3   0.390012 0.466714 0.823869 -0.962992
H31   H     H_    0.406833 0.473100 0.921678 0.260019
H32   H     H_    0.451787 0.489965 0.715929 0.266371
H33   H     H_    0.377656 0.398255 0.808333 0.261398
O20   O     O_3   0.862765 0.540377 0.977461 -0.538895
C38   C     C_3   0.784731 0.490291 0.996471 0.197616
H34   H     H_    0.797110 0.421037 0.007605 0.122406
H35   H     H_    0.770147 0.499936 0.897121 0.177976
C39   C     C_3   0.697588 0.519696 0.144380 -0.408403
H36   H     H_    0.712057 0.513783 0.244758 0.214508
H37   H     H_    0.683014 0.588142 0.132529 0.229518
C40   C     C_3   0.609963 0.466851 0.176133 -0.963025
H38   H     H_    0.593210 0.473118 0.078235 0.260022
H39   H     H_    0.548169 0.490208 0.283942 0.266359
H40   H     H_    0.622255 0.398416 0.191938 0.261414
C41   C     C_3   0.596381 0.248519 0.687381 -0.312447
C42   C     C_3   0.577785 0.336210 0.766309 -0.905366
H41   H     H_    0.627031 0.349309 0.814560 0.249315
H42   H     H_    0.583948 0.387573 0.683471 0.262053
H43   H     H_    0.504687 0.337041 0.865567 0.255487
H44   H     H_    0.531743 0.234581 0.675247 0.220378
H45   H     H_    0.602355 0.199603 0.764982 0.222711
C43   C     C_3   0.295697 0.852056 0.328525 -0.335941
C44   C     C_3   0.387254 0.814195 0.194930 -0.824762
H46   H     H_    0.452827 0.839185 0.192097 0.267531
H47   H     H_    0.390733 0.743719 0.202387 0.236591
H48   H     H_    0.390498 0.830385 0.081927 0.216652
H49   H     H_    0.238834 0.847132 0.293379 0.183376
H50   H     H_    0.300973 0.921607 0.343589 0.187615
C45   C     C_3   0.403630 0.248530 0.312622 -0.312508
C46   C     C_3   0.422251 0.336237 0.233756 -0.905420
H51   H     H_    0.373000 0.349381 0.185538 0.249338
H52   H     H_    0.416113 0.387571 0.316626 0.262079
H53   H     H_    0.495343 0.337065 0.134489 0.255484
H54   H     H_    0.468264 0.234558 0.324744 0.220409
H55   H     H_    0.397643 0.199644 0.234992 0.222692
C47   C     C_3   0.704268 0.852027 0.671512 -0.335931
C48   C     C_3   0.612706 0.814158 0.805079 -0.824739
H56   H     H_    0.547136 0.839163 0.807909 0.267536
H57   H     H_    0.609230 0.743679 0.797580 0.236593
H58   H     H_    0.609457 0.830328 0.918099 0.216652
H59   H     H_    0.761121 0.847100 0.706677 0.183428
H60   H     H_    0.698994 0.921578 0.656458 0.187612
C49   C     C_3   0.096388 0.748524 0.687432 -0.312599
C50   C     C_3   0.077703 0.836267 0.766187 -0.905378
H61   H     H_    0.127011 0.849548 0.814247 0.249325
H62   H     H_    0.083713 0.887534 0.683280 0.262093
H63   H     H_    0.004641 0.837056 0.865552 0.255486
H64   H     H_    0.031735 0.734453 0.675423 0.220534
H65   H     H_    0.102472 0.699703 0.765076 0.222605
C51   C     C_3   0.795706 0.352046 0.328517 -0.335966
C52   C     C_3   0.887270 0.314205 0.194906 -0.824625
H66   H     H_    0.952842 0.339169 0.192129 0.267535
H67   H     H_    0.890740 0.243717 0.202286 0.236548
H68   H     H_    0.890534 0.330447 0.081898 0.216634
H69   H     H_    0.738843 0.347111 0.293373 0.183414
H70   H     H_    0.800971 0.421597 0.343593 0.187614
C53   C     C_3   0.903597 0.748542 0.312580 -0.312703
C54   C     C_3   0.922347 0.836348 0.234032 -0.905354
H71   H     H_    0.873002 0.849787 0.186100 0.249349
H72   H     H_    0.916436 0.887522 0.317042 0.262111
H73   H     H_    0.995388 0.837121 0.134608 0.255467
H74   H     H_    0.968255 0.734361 0.324515 0.220626
H75   H     H_    0.897449 0.699812 0.234850 0.222516
C55   C     C_3   0.204291 0.352040 0.671484 -0.335981
C56   C     C_3   0.112731 0.314180 0.805070 -0.824667
H76   H     H_    0.047159 0.339213 0.807944 0.267509
H77   H     H_    0.109227 0.243706 0.797555 0.236589
H78   H     H_    0.109509 0.330329 0.918078 0.216657
H79   H     H_    0.261151 0.347108 0.706633 0.183451
H80   H     H_    0.199017 0.421591 0.656424 0.187602

loop_
_geom_bond_atom_site_label_1
_geom_bond_atom_site_label_2
_ccdc_geom_bond_type
C29   H14   S    
C21   C26   S    
C9    N1    D    
Cu2   N1    S    
C11   N3    D    
C47   H59   S    
C18   C26   D    
C24   C27   S    
C7    O7    A    
C12   N4    D    
C26   C49   S    
C8    O8    A    
C14   H1    S    
C21   C43   S    
C52   H66   S    
C45   C46   S    
C5    C20   S    
Cu1   O1    S    
C32   H20   S    
C27   C55   S    
C6    C19   S    
C40   H39   S    
C9    H10   S    
Cu1   Cu2   S    
N3    O20   S    
C43   H50   S    
C4    O4    A    
N1    O18   S    
O19   C35   S    
C53   H75   S    
C5    O5    A    
C18   H5    S    
Cu4   O13   S    
C12   H11   S    
C30   H15   S    
C44   H47   S    
C16   H3    S    
C29   C30   S    
Cu2   O9    S    
C43   C44   S    
C39   C40   S    
C4    C13   S    
C30   H16   S    
C42   H41   S    
C51   H70   S    
C2    O2    A    
C56   H76   S    
C22   C25   S    
Cu2   O12   S    
C10   N2    D    
C53   C54   S    
C56   H77   S    
Cu3   O8    S    
C19   C27   D    
C9    C10   S    
Cu4   O7    S    
C55   H80   S    
C31   H17   S    
C35   H27   S    
C48   H58   S    
C15   C23   D    
C29   H13   S    
Cu2   O2    S    
C16   C24   D    
C45   H55   S    
C10   H9    S    
Cu3   O14   S    
C37   H31   S    
C6    O6    A    
C31   H19   S    
Cu4   O6    S    
C52   H67   S    
C32   H21   S    
C40   H40   S    
C56   H78   S    
C49   H64   S    
C43   H49   S    
C5    O13   A    
Cu2   O3    S    
Cu3   O15   S    
O18   C32   S    
Cu4   O16   S    
N2    O17   S    
C33   H23   S    
C50   H61   S    
C44   H48   S    
C36   H29   S    
C20   H7    S    
C3    O3    A    
C51   C52   S    
C20   C28   D    
C37   H33   S    
C23   C28   S    
C24   C45   S    
C23   C47   S    
C30   C31   S    
C37   H32   S    
C51   H69   S    
C1    O9    A    
C36   H30   S    
C38   H34   S    
C54   H73   S    
C7    C18   S    
C4    O12   A    
C34   H26   S    
N4    O19   S    
C13   C21   D    
C11   H12   S    
C1    C16   S    
C53   H74   S    
Cu3   O5    S    
C39   H37   S    
C2    C15   S    
C42   H43   S    
C7    O15   A    
C3    C14   S    
C50   H62   S    
C55   H79   S    
C8    O16   A    
C46   H53   S    
C41   H44   S    
C31   H18   S    
C34   H25   S    
C35   H28   S    
O20   C38   S    
Cu3   N4    S    
C55   C56   S    
Cu4   N3    S    
C34   H24   S    
C25   C51   S    
C48   H56   S    
C15   H4    S    
C52   H68   S    
C46   H52   S    
C40   H38   S    
C32   C33   S    
C38   H35   S    
Cu3   Cu4   S    
C47   H60   S    
C54   H72   S    
C33   H22   S    
C48   H57   S    
C50   H63   S    
C11   C12   S    
C2    O10   A    
C49   C50   S    
C8    C17   S    
Cu1   N2    S    
C22   C41   S    
C17   C25   D    
C14   C22   D    
C47   C48   S    
C13   H2    S    
C44   H46   S    
C36   C37   S    
C6    O14   A    
C45   H54   S    
C35   C36   S    
C33   C34   S    
C17   H6    S    
C49   H65   S    
C39   H36   S    
C42   H42   S    
C19   H8    S    
C41   H45   S    
C38   C39   S    
Cu1   O10   S    
C28   C53   S    
O17   C29   S    
Cu1   O11   S    
C54   H71   S    
C41   C42   S    
C1    O1    A    
C46   H51   S    
Cu1   O4    S    
C3    O11   A    
