data_mof_unit_34567.cif
_audit_creation_date              2012-12-11T15:33:42-0500
_audit_creation_method            fapswitch 2.2
_symmetry_space_group_name_H-M    P1
_symmetry_Int_Tables_number       1
_space_group_crystal_system       triclinic
_cell_length_a                    27.037223
_cell_length_b                    7.19956
_cell_length_c                    22.766138
_cell_angle_alpha                 90.002486
_cell_angle_beta                  101.53081
_cell_angle_gamma                 90.003849
_cell_volume                      4342.12707024

loop_
_atom_site_label
_atom_site_type_symbol
_atom_type_description
_atom_site_fract_x
_atom_site_fract_y
_atom_site_fract_z
_atom_type_partial_charge
O1    O     O_R   0.207310 0.594030 0.676830 -0.541877
O2    O     O_R   0.792690 0.405970 0.323170 -0.537689
O3    O     O_R   0.292690 0.094030 0.823170 -0.541932
O4    O     O_R   0.707310 0.905970 0.176830 -0.537708
O5    O     O_R   0.197320 0.262370 0.795700 -0.502968
O6    O     O_R   0.802680 0.737630 0.204300 -0.500351
O7    O     O_R   0.302680 0.762370 0.704300 -0.502923
O8    O     O_R   0.697320 0.237630 0.295700 -0.500350
C1    C     C_R   0.184665 0.432225 0.812107 0.785356
C2    C     C_R   0.815398 0.567765 0.187960 0.783521
C3    C     C_R   0.315335 0.932228 0.687894 0.785384
C4    C     C_R   0.684602 0.067762 0.312039 0.783455
O9    O     O_R   0.201410 0.264250 0.675590 -0.532567
O10   O     O_R   0.798590 0.735750 0.324410 -0.538210
O11   O     O_R   0.298590 0.764250 0.824410 -0.532562
O12   O     O_R   0.701410 0.235750 0.175590 -0.538196
O13   O     O_R   0.296810 0.094940 0.702210 -0.501407
O14   O     O_R   0.703190 0.905060 0.297790 -0.503533
O15   O     O_R   0.203190 0.594940 0.797790 -0.501417
O16   O     O_R   0.796810 0.405060 0.202210 -0.503516
C5    C     C_R   0.189572 0.432531 0.653338 0.670313
C6    C     C_R   0.810449 0.567116 0.346654 0.667436
C7    C     C_R   0.310428 0.932552 0.846661 0.670255
C8    C     C_R   0.689550 0.067095 0.153349 0.667408
O17   O     O_3   0.281300 0.427390 0.758870 -0.364822
O18   O     O_3   0.718700 0.572610 0.241130 -0.363991
O19   O     O_3   0.218700 0.927390 0.741130 -0.364839
O20   O     O_3   0.781300 0.072610 0.258870 -0.363968
V1    V     V_3+5 0.244190 0.152150 0.748350 1.630310
V2    V     V_3+5 0.755810 0.847850 0.251650 1.631234
V3    V     V_3+5 0.255810 0.652150 0.751650 1.630359
V4    V     V_3+5 0.744190 0.347850 0.248350 1.631192
C9    C     C_R   0.655758 0.057049 0.093518 -0.158876
C10   C     C_R   0.344743 0.936161 0.906214 -0.158412
C11   C     C_R   0.844238 0.557201 0.406490 -0.158902
C12   C     C_R   0.155245 0.436012 0.593788 -0.158426
C13   C     C_R   0.642374 0.054269 0.985027 -0.042283
C14   C     C_R   0.360990 0.869292 0.012660 -0.043769
C15   C     C_R   0.857670 0.556097 0.514989 -0.042357
C16   C     C_R   0.138903 0.367568 0.487440 -0.043780
C17   C     C_R   0.674962 0.075540 0.040409 0.338588
C18   C     C_R   0.326682 0.891745 0.958619 0.341462
C19   C     C_R   0.825072 0.576809 0.459590 0.338582
C20   C     C_R   0.173246 0.390508 0.541430 0.341471
C21   C     C_R   0.604056 0.018581 0.089249 -0.200075
C22   C     C_R   0.396960 0.961743 0.910034 -0.203940
C23   C     C_R   0.895910 0.518159 0.410786 -0.199915
C24   C     C_R   0.103050 0.462200 0.589965 -0.203942
C25   C     C_R   0.571303 0.983136 0.033068 0.040259
C26   C     C_R   0.432596 0.925697 0.964052 0.042360
C27   C     C_R   0.928667 0.483323 0.467006 0.040253
C28   C     C_R   0.067367 0.425642 0.536021 0.042427
C29   C     C_R   0.591235 0.008564 0.980662 -0.165402
C30   C     C_R   0.413292 0.884906 0.016034 -0.161667
C31   C     C_R   0.908779 0.509897 0.519391 -0.165417
C32   C     C_R   0.086615 0.383724 0.484082 -0.161578
C33   C     C_R   0.519110 0.930457 0.026960 -0.167043
C34   C     C_R   0.486509 0.933835 0.968754 -0.170349
C35   C     C_R   0.980830 0.430207 0.473162 -0.166962
C36   C     C_R   0.013460 0.434277 0.531345 -0.170350
C37   C     C_R   0.509609 0.937962 0.917719 0.308808
C38   C     C_R   0.498306 0.867554 0.076202 0.311740
C39   C     C_R   0.990392 0.439558 0.582397 0.308824
C40   C     C_R   0.001571 0.366216 0.424001 0.311793
C41   C     C_R   0.560560 0.982160 0.924076 0.649424
C42   C     C_R   0.446227 0.853191 0.070810 0.648767
C43   C     C_R   0.939466 0.484176 0.576003 0.649410
C44   C     C_R   0.053637 0.351401 0.429375 0.648736
H1    H     H_    0.408700 0.010062 0.870107 0.173257
H2    H     H_    0.590141 0.020874 0.130481 0.174911
H3    H     H_    0.091364 0.511296 0.629836 0.173285
H4    H     H_    0.909809 0.519629 0.369540 0.174951
H5    H     H_    0.657782 0.071108 0.944902 0.211588
H6    H     H_    0.346243 0.836342 0.052329 0.210078
H7    H     H_    0.842294 0.573809 0.555102 0.211577
H8    H     H_    0.153608 0.333759 0.447808 0.210045
C45   C     C_R   0.638044 0.893610 0.381337 0.626523
C46   C     C_R   0.361172 0.105715 0.617776 0.629584
C47   C     C_R   0.861931 0.393655 0.118627 0.626469
C48   C     C_R   0.138861 0.605659 0.882268 0.629556
C49   C     C_R   0.602924 0.886689 0.418801 -0.186553
C50   C     C_R   0.396303 0.112816 0.580324 -0.190442
C51   C     C_R   0.897053 0.386739 0.081165 -0.186519
C52   C     C_R   0.103726 0.612757 0.919717 -0.190357
H9    H     H_    0.597624 0.756273 0.440474 0.218765
H10   H     H_    0.401202 0.242798 0.558191 0.217234
H11   H     H_    0.902330 0.256356 0.059460 0.218661
H12   H     H_    0.098855 0.742698 0.941890 0.217111
C53   C     C_R   0.574276 0.042968 0.427687 -0.271584
C54   C     C_R   0.425429 0.957251 0.571997 -0.270527
C55   C     C_R   0.925735 0.542981 0.072324 -0.271520
C56   C     C_R   0.074560 0.457242 0.927991 -0.270440
C57   C     C_R   0.582350 0.211444 0.398405 0.337348
C58   C     C_R   0.417779 0.789247 0.601787 0.339510
C59   C     C_R   0.917694 0.711422 0.101648 0.337389
C60   C     C_R   0.082170 0.289284 0.898150 0.339584
C61   C     C_R   0.616830 0.216457 0.359587 0.607775
C62   C     C_R   0.383358 0.784203 0.640670 0.605474
C63   C     C_R   0.883201 0.716438 0.140451 0.607832
C64   C     C_R   0.116603 0.284237 0.859282 0.605462
C65   C     C_R   0.645820 0.058869 0.350976 -0.408562
C66   C     C_R   0.353975 0.941146 0.648803 -0.407653
C67   C     C_R   0.854181 0.558880 0.149023 -0.408534
C68   C     C_R   0.146024 0.441137 0.851197 -0.407560
N1    N     N_R   0.490913 0.115500 0.452446 -0.239398
N2    N     N_R   0.508827 0.884985 0.547266 -0.236930
N3    N     N_R   0.009165 0.615041 0.047672 -0.239422
N4    N     N_R   0.991095 0.385452 0.952613 -0.236901
N5    N     N_R   0.456101 0.093934 0.485976 -0.257744
N6    N     N_R   0.543634 0.906519 0.513732 -0.255768
N7    N     N_R   0.043971 0.593469 0.014135 -0.257677
N8    N     N_R   0.956293 0.406991 0.986155 -0.255664
C69   C     C_R   0.464126 0.977290 0.533923 0.582002
C70   C     C_R   0.535604 0.023137 0.465784 0.581540
C71   C     C_R   0.035867 0.477286 0.966067 0.581772
C72   C     C_R   0.964402 0.523148 0.034224 0.581296
F1    F     F_    0.580690 0.991179 0.873975 -0.611814
F2    F     F_    0.427868 0.798866 0.119530 -0.614177
F3    F     F_    0.919370 0.494310 0.626111 -0.611809
F4    F     F_    0.071938 0.296008 0.380724 -0.614229
O21   O     O_3   0.276089 0.868402 0.959441 -0.611587
H13   H     H_    0.255316 0.909748 0.920880 0.333022
O22   O     O_3   0.724995 0.113543 0.039924 -0.612943
H14   H     H_    0.744453 0.125303 0.081361 0.335696
O23   O     O_3   0.223818 0.366503 0.540612 -0.611695
H15   H     H_    0.244632 0.408461 0.579076 0.333014
O24   O     O_3   0.775070 0.615419 0.460053 -0.613008
H16   H     H_    0.755584 0.626404 0.418606 0.335660
O25   O     O_3   0.485588 0.878849 0.861721 -0.592794
H17   H     H_    0.463867 0.772039 0.867450 0.304314
O26   O     O_3   0.527311 0.797998 0.128232 -0.593033
H18   H     H_    0.555907 0.729415 0.117121 0.299473
O27   O     O_3   0.014409 0.381194 0.638481 -0.592810
H19   H     H_    0.036061 0.274029 0.632909 0.304366
O28   O     O_3   0.972504 0.296046 0.372100 -0.593027
H20   H     H_    0.943881 0.227978 0.383346 0.299422
F5    F     F_    0.664411 0.736853 0.375379 -0.614907
F6    F     F_    0.334135 0.261440 0.622975 -0.615253
F7    F     F_    0.835533 0.236931 0.124547 -0.615051
F8    F     F_    0.165937 0.761334 0.877117 -0.615384
O29   O     O_3   0.558456 0.375464 0.407237 -0.577378
H21   H     H_    0.550192 0.373446 0.447650 0.315261
O30   O     O_3   0.442044 0.625674 0.593389 -0.576977
H22   H     H_    0.449975 0.626595 0.552805 0.314703
O31   O     O_3   0.941631 0.875411 0.092870 -0.577368
H23   H     H_    0.949984 0.873345 0.052503 0.315228
O32   O     O_3   0.057855 0.125753 0.906486 -0.576955
H24   H     H_    0.049841 0.126703 0.947029 0.314668
F9    F     F_    0.622107 0.378630 0.331010 -0.578391
F10   F     F_    0.378488 0.622571 0.669741 -0.583675
F11   F     F_    0.877945 0.878579 0.169059 -0.578419
F12   F     F_    0.121446 0.122649 0.830171 -0.583822

loop_
_geom_bond_atom_site_label_1
_geom_bond_atom_site_label_2
_ccdc_geom_bond_type
O17   V3    S    
C51   H11   S    
O1    C5    A    
C57   C61   A    
O19   V1    S    
C9    C21   A    
O3    C7    A    
O32   H24   S    
C59   O31   S    
O1    V3    S    
C48   C52   A    
O15   V3    S    
O31   H23   S    
C25   C33   A    
O22   H14   S    
C5    C12   S    
C64   F12   S    
O7    C3    A    
C6    C11   S    
C35   C40   A    
C26   C30   A    
C48   C68   A    
C36   C39   A    
C58   O30   S    
C40   C44   A    
N4    C71   A    
O9    V1    S    
C2    C67   S    
C45   F5    S    
C14   C18   A    
C62   F10   S    
O4    C8    A    
C59   C63   A    
C46   C66   A    
C58   C62   A    
O30   H22   S    
C56   C60   A    
O13   V1    S    
C55   C72   S    
O2    V4    S    
C54   C69   S    
O3    V1    S    
C22   H1    S    
N1    N5    A    
C28   C36   A    
C45   C65   A    
C1    O15   A    
C64   C68   A    
C15   C31   A    
C2    O16   A    
C16   C32   A    
C10   C18   A    
O2    C6    A    
C10   C22   A    
C15   H7    S    
C11   C19   A    
N6    C70   A    
C16   C20   A    
N5    C69   A    
C13   C29   A    
C34   C37   A    
O11   C7    A    
C40   O28   S    
C11   C23   A    
C35   C36   A    
O12   C8    A    
C48   F8    S    
C47   C67   A    
O10   V2    S    
C46   F6    S    
O16   V4    S    
C49   H9    S    
C54   C58   A    
O5    V1    S    
C23   H4    S    
C39   C43   A    
C20   O23   S    
O7    V3    S    
C38   C42   A    
N2    C69   A    
C26   C34   A    
N1    C70   A    
O28   H20   S    
C63   C67   A    
C19   O24   S    
O18   V4    S    
C15   C19   A    
C33   C38   A    
C62   C66   A    
C63   F11   S    
C53   C57   A    
C16   H8    S    
O8    V4    S    
C47   F7    S    
O5    C1    A    
C37   C41   A    
C46   C50   A    
C31   C43   A    
C14   C30   A    
C45   C49   A    
O8    C4    A    
C7    C10   S    
C29   C41   A    
C21   C25   A    
O9    C5    A    
O21   H13   S    
O14   V2    S    
O6    V2    S    
O27   H19   S    
C12   C20   A    
C27   C35   A    
C24   H3    S    
O24   H16   S    
C39   O27   S    
N8    C72   A    
C57   O29   S    
O25   H17   S    
C14   H6    S    
C60   O32   S    
C13   H5    S    
C53   C70   S    
C3    O13   A    
C41   F1    S    
C21   H2    S    
N3    N7    A    
C38   O26   S    
C52   H12   S    
O6    C2    A    
C23   C27   A    
O11   V3    S    
C30   C42   A    
C37   O25   S    
O12   V4    S    
C51   C55   A    
C22   C26   A    
C8    C9    S    
C50   C54   A    
C9    C17   A    
O10   C6    A    
O20   V2    S    
C49   C53   A    
C4    C65   S    
C50   H10   S    
O29   H21   S    
C44   F4    S    
C47   C51   A    
C17   O22   S    
C33   C34   A    
O23   H15   S    
C28   C32   A    
C1    C68   S    
C25   C29   A    
C60   C64   A    
C32   C44   A    
C12   C24   A    
C3    C66   S    
C27   C31   A    
C13   C17   A    
C56   C71   S    
O4    V2    S    
N3    C72   A    
C55   C59   A    
N4    N8    A    
C24   C28   A    
N2    N6    A    
C42   F2    S    
C4    O14   A    
C61   F9    S    
N7    C71   A    
C52   C56   A    
C43   F3    S    
C61   C65   A    
O26   H18   S    
C18   O21   S    
