data_mof_unit_6883.cif
_audit_creation_date              2013-03-05T15:51:15-0500
_audit_creation_method            fapswitch 2.2
_symmetry_space_group_name_H-M    P1
_symmetry_Int_Tables_number       1
_space_group_crystal_system       triclinic
_cell_length_a                    9.618128
_cell_length_b                    10.810319
_cell_length_c                    13.868513
_cell_angle_alpha                 93.67498
_cell_angle_beta                  85.107451
_cell_angle_gamma                 91.02476
_cell_volume                      1433.658927

loop_
_atom_site_label
_atom_site_type_symbol
_atom_site_description
_atom_site_fract_x
_atom_site_fract_y
_atom_site_fract_z
_atom_type_partial_charge
O1    O     O_R   0.381190 0.680360 0.500010 -0.571567
O2    O     O_R   0.618760 0.680340 0.500000 -0.534667
C1    C     C_R   0.500633 0.737675 0.505376 0.862070
O3    O     O_R   0.364420 0.499990 0.637850 -0.587315
O4    O     O_R   0.601990 0.499960 0.637840 -0.521015
C2    C     C_R   0.477485 0.494791 0.682393 0.842542
Cu1   Cu    Cu3+1 0.359340 0.500010 0.500010 0.940601
Cu2   Cu    Cu3+1 0.640660 0.499990 0.499990 0.999533
O5    O     O_R   0.381240 0.319660 0.500000 -0.612603
O6    O     O_R   0.618810 0.319640 0.499990 -0.591204
O7    O     O_R   0.398010 0.500040 0.362160 -0.585037
O8    O     O_R   0.635580 0.500010 0.362150 -0.595550
C3    C     C_R   0.498257 0.262786 0.502389 0.746696
C4    C     C_R   0.522345 0.499454 0.317158 0.783406
C5    C     C_1   0.535088 0.499616 0.213920 -0.162658
C6    C     C_2   0.555113 0.501933 0.023377 -0.151925
C7    C     C_2   0.444472 0.471706 0.974621 -0.164657
C8    C     C_1   0.453895 0.477886 0.871317 0.015862
C9    C     C_1   0.545024 0.500308 0.127030 0.001524
C10   C     C_1   0.464058 0.484914 0.784918 -0.170301
H1    H     H_    0.345983 0.444308 0.012071 0.151334
H2    H     H_    0.653286 0.530014 0.985818 0.172022
H3    H     H_    0.661621 0.881162 0.395282 0.156580
C11   C     C_R   0.343952 0.886391 0.666977 0.232108
C12   C     C_R   0.241645 0.953182 0.725488 -0.156776
H4    H     H_    0.185769 0.911484 0.786607 0.144637
C13   C     C_R   0.221412 0.077432 0.712370 -0.165473
H5    H     H_    0.146588 0.129792 0.760767 0.154819
C14   C     C_R   0.305462 0.137199 0.642687 -0.184220
H6    H     H_    0.293375 0.236035 0.642513 0.174965
C15   C     C_R   0.402774 0.070360 0.577707 0.056830
C16   C     C_R   0.414579 0.940961 0.585524 0.067562
C17   C     C_R   0.503282 0.872445 0.515038 -0.085102
C18   C     C_R   0.591909 0.933083 0.447941 -0.173375
H7    H     H_    0.659615 0.105392 0.393408 0.139974
C19   C     C_R   0.589514 0.060470 0.446125 -0.195859
C20   C     C_R   0.494190 0.129295 0.508505 -0.074621
C21   C     C_R   0.869315 0.334234 0.369830 -0.177693
H8    H     H_    0.760285 0.327262 0.363253 0.199451
C22   C     C_R   0.947580 0.252671 0.306530 -0.219673
H9    H     H_    0.894988 0.189003 0.257746 0.153034
C23   C     C_R   0.091680 0.251869 0.306263 0.272238
C24   C     C_R   0.156685 0.332893 0.371315 -0.193555
H10   H     H_    0.266934 0.326753 0.366830 0.193155
C25   C     C_R   0.080874 0.417807 0.436692 0.157516
C26   C     C_R   0.931610 0.418218 0.436319 0.143597
N1    N     N_R   0.852210 0.498790 0.499090 -0.253454
C27   C     C_R   0.921216 0.578749 0.560464 0.431233
H11   H     H_    0.120109 0.642380 0.609225 0.162939
C28   C     C_R   0.068909 0.578233 0.560107 -0.106212
N2    N     N_R   0.148080 0.498710 0.499060 -0.215299
N3    N     N_2   0.171829 0.167187 0.242000 -0.420098
H12   H     H_    0.270807 0.151875 0.261793 0.242864
C29   C     C_3   0.171466 0.189763 0.140303 -0.678997
H13   H     H_    0.233799 0.117787 0.096120 0.227541
H14   H     H_    0.218527 0.282242 0.126314 0.219420
H15   H     H_    0.063567 0.185178 0.117374 0.233173
N4    N     N_2   0.396022 0.777849 0.702997 -0.457629
H16   H     H_    0.320529 0.726779 0.740785 0.248754
C30   C     C_3   0.515946 0.804120 0.757963 -0.603198
H17   H     H_    0.556999 0.717520 0.782117 0.249842
H18   H     H_    0.486187 0.866054 0.823306 0.207390
H19   H     H_    0.600828 0.849005 0.712715 0.274832
N5    N     N_R   0.845327 0.665168 0.625863 0.130747
O9    O     O_R   0.822478 0.640146 0.716358 -0.397662
O10   O     O_R   0.840141 0.779852 0.603369 -0.383398

loop_
_geom_bond_atom_site_label_1
_geom_bond_atom_site_label_2
_geom_bond_distance
_ccdc_geom_bond_type
O4    Cu2   1.916249 S    
C5    C9    1.201164 T    
C24   H10   1.059924 S    
C11   C16   1.423276 A    
C11   C12   1.400777 A    
C14   H6    1.077001 S    
C13   C14   1.390311 A    
C2    C10   1.427384 S    
C29   H13   1.110505 S    
C18   C19   1.379581 A    
N1    C27   1.376108 A    
O8    C4    1.300285 A    
Cu2   O8    1.916435 S    
H3    C18   1.084131 S    
C6    H2    1.086823 S    
C16   C17   1.421124 A    
C27   C28   1.420223 A    
O2    C1    1.298226 A    
N4    H16   1.031752 S    
Cu2   N1    2.033956 S    
Cu1   N2    2.032884 S    
Cu1   Cu2   2.705752 S    
C14   C15   1.416708 A    
O1    Cu1   1.957194 S    
C25   C26   1.436182 A    
N5    O9    1.300359 A    
Cu1   O7    1.916249 S    
C24   C25   1.414514 A    
N5    O10   1.300485 A    
O4    C2    1.301821 A    
C30   H19   1.110501 S    
C22   C23   1.385835 A    
C22   H9    1.083313 S    
C21   C22   1.388002 A    
N3    C29   1.446988 S    
O6    C3    1.301472 A    
C7    C8    1.433570 S    
C8    C10   1.201048 T    
O3    Cu1   1.916435 S    
C6    C9    1.433715 S    
C21   H8    1.061280 S    
O7    C4    1.300813 A    
C29   H14   1.111600 S    
C21   C26   1.414563 A    
O3    C2    1.299459 A    
C27   N5    1.425136 S    
C23   C24   1.395473 A    
C25   N2    1.381679 A    
N4    C30   1.450067 S    
C15   C16   1.417263 A    
C11   N4    1.419860 S    
C15   C20   1.419324 A    
C17   C18   1.394685 A    
N3    H12   1.032012 S    
C30   H18   1.111858 S    
H11   C28   1.082517 S    
C13   H5    1.082722 S    
Cu1   O5    1.964717 S    
C1    C17   1.454452 S    
C4    C5    1.426649 S    
C19   C20   1.396132 A    
O5    C3    1.295973 A    
C28   N2    1.362285 A    
C12   H4    1.083100 S    
C26   N1    1.383074 A    
C3    C20   1.450621 S    
C29   H15   1.110404 S    
Cu2   O6    1.957194 S    
O2    Cu2   1.964718 S    
H7    C19   1.083818 S    
C6    C7    1.333565 D    
C23   N3    1.424802 S    
C30   H17   1.104779 S    
O1    C1    1.300933 A    
C12   C13   1.386295 A    
C7    H1    1.086548 S    
