data_mof_unit_63498.cif
_audit_creation_date              2012-12-10T19:01:39-0500
_audit_creation_method            fapswitch 2.2
_symmetry_space_group_name_H-M    P1
_symmetry_Int_Tables_number       1
_space_group_crystal_system       triclinic
_cell_length_a                    14.258682
_cell_length_b                    13.369321
_cell_length_c                    10.559573
_cell_angle_alpha                 89.999158
_cell_angle_beta                  90.365525
_cell_angle_gamma                 90.0
_cell_volume                      2012.91878727

loop_
_atom_site_label
_atom_site_type_symbol
_atom_type_description
_atom_site_fract_x
_atom_site_fract_y
_atom_site_fract_z
_atom_type_partial_charge
C1    C     C_R   0.326544 0.499999 0.500616 0.920215
C2    C     C_3   0.547424 0.416524 0.964213 -0.248713
C3    C     C_3   0.547501 0.583350 0.964245 -0.205145
C4    C     C_3   0.452503 0.416575 0.035783 -0.248818
C5    C     C_3   0.416042 0.499977 0.948718 0.290687
C6    C     C_3   0.583966 0.499884 0.051280 0.290681
C7    C     C_3   0.508708 0.499982 0.878305 -0.089709
C8    C     C_3   0.491300 0.499987 0.121693 -0.089717
C9    C     C_1   0.500000 0.169423 0.500000 0.064729
C10   C     C_1   0.500000 0.830577 0.500000 0.069716
C11   C     C_1   0.225906 0.499994 0.500506 -0.226043
C12   C     C_R   0.673456 0.499999 0.499384 0.920208
C13   C     C_1   0.774094 0.499993 0.499494 -0.226027
C14   C     C_1   0.141342 0.499988 0.500373 -0.008474
C15   C     C_1   0.858658 0.499988 0.499627 -0.008470
C16   C     C_3   0.245989 0.505442 0.968702 -0.798999
C17   C     C_3   0.754026 0.505111 0.031285 -0.799005
C18   C     C_1   0.042282 0.499984 0.500123 0.005978
C19   C     C_1   0.957718 0.499984 0.499877 0.005978
C20   C     C_1   0.500000 0.049525 0.500000 -0.050244
C21   C     C_1   0.500000 0.950476 0.500000 -0.050007
C22   C     C_R   0.485297 0.500002 0.255444 0.899285
C23   C     C_R   0.514709 0.500000 0.744554 0.899282
C24   C     C_3   0.452587 0.583401 0.035755 -0.205065
H1    H     H_    0.412755 0.649751 0.068620 0.148544
H2    H     H_    0.819481 0.509306 0.088564 0.247625
H3    H     H_    0.749661 0.573176 0.971237 0.245509
H4    H     H_    0.757040 0.437609 0.970039 0.232376
H5    H     H_    0.587649 0.350389 0.931521 0.154244
H6    H     H_    0.587398 0.649656 0.931382 0.148539
H7    H     H_    0.412215 0.350484 0.068473 0.154236
H8    H     H_    0.319549 0.443821 0.818563 0.228159
H9    H     H_    0.180538 0.509671 0.911420 0.247622
H10   H     H_    0.250421 0.573541 0.028675 0.245519
H11   H     H_    0.242911 0.437983 0.030022 0.232372
H12   H     H_    0.680395 0.443649 0.181468 0.228185
N1    N     N_1   0.500000 0.261870 0.500000 -0.066487
N2    N     N_1   0.500000 0.738130 0.500000 -0.065117
N3    N     N_2   0.325755 0.499738 0.885330 -0.297528
N4    N     N_2   0.674255 0.499547 0.114664 -0.297547
O1    O     O_R   0.373710 0.576470 0.500000 -0.593902
O2    O     O_R   0.626290 0.423530 0.500000 -0.601889
O3    O     O_R   0.626290 0.576470 0.500000 -0.593912
O4    O     O_R   0.373710 0.423530 0.500000 -0.601880
O5    O     O_R   0.499980 0.576440 0.313950 -0.603283
O6    O     O_R   0.500020 0.423560 0.686050 -0.616216
O7    O     O_R   0.500020 0.576440 0.686050 -0.603262
O8    O     O_R   0.499980 0.423560 0.313950 -0.616223
Zn1   Zn    Zn3+2 0.500000 0.602090 0.500000 0.974340
Zn2   Zn    Zn3+2 0.500000 0.397910 0.500000 0.957660

loop_
_geom_bond_atom_site_label_1
_geom_bond_atom_site_label_2
_ccdc_geom_bond_type
C10   N2    T    
C3    H6    S    
C2    C4    S    
C16   H9    S    
O6    Zn2   S    
C1    O4    A    
C22   O8    A    
C2    C7    S    
C1    C11   S    
O5    Zn1   S    
C4    C8    S    
C3    C6    S    
C20   C21   T    
O8    Zn2   S    
O7    Zn1   S    
N2    Zn1   S    
C24   H1    S    
C15   C19   S    
N1    Zn2   S    
C3    C24   S    
C2    C6    S    
C5    C24   S    
O2    Zn2   S    
C2    H5    S    
C7    C23   S    
C17   H2    S    
C6    C8    S    
O1    Zn1   S    
C16   H11   S    
C8    C24   S    
C12   O3    A    
C3    C7    S    
C13   C15   T    
C10   C21   S    
C11   C14   T    
C6    N4    S    
C4    H7    S    
C23   O7    A    
C16   N3    S    
C17   H3    S    
H12   N4    S    
C22   O5    A    
C12   C13   S    
C5    C7    S    
C18   C19   T    
H8    N3    S    
O4    Zn2   S    
C23   O6    A    
C5    N3    S    
C14   C18   S    
O3    Zn1   S    
C12   O2    A    
C9    C20   S    
C16   H10   S    
C17   H4    S    
C8    C22   S    
C17   N4    S    
C1    O1    A    
C4    C5    S    
C9    N1    T    
