data_mof_unit_18515.cif
_audit_creation_date              2012-12-10T19:43:26-0500
_audit_creation_method            fapswitch 2.2
_symmetry_space_group_name_H-M    P1
_symmetry_Int_Tables_number       1
_space_group_crystal_system       triclinic
_cell_length_a                    10.910776
_cell_length_b                    10.884127
_cell_length_c                    9.640271
_cell_angle_alpha                 90.408945
_cell_angle_beta                  91.515877
_cell_angle_gamma                 93.368973
_cell_volume                      1142.40157945

loop_
_atom_site_label
_atom_site_type_symbol
_atom_type_description
_atom_site_fract_x
_atom_site_fract_y
_atom_site_fract_z
_atom_type_partial_charge
C1    C     C_R   0.508332 0.263047 0.500852 0.804469
C2    C     C_R   0.250698 0.683179 0.030306 -0.066629
C3    C     C_R   0.933513 0.542816 0.387667 -0.228506
C4    C     C_R   0.871949 0.497984 0.504337 -0.032665
C5    C     C_R   0.940820 0.455762 0.619036 0.055924
C6    C     C_R   0.067744 0.455756 0.612290 -0.211002
C7    C     C_R   0.128715 0.500321 0.495839 -0.072421
C8    C     C_R   0.060806 0.544826 0.382337 -0.001289
C9    C     C_R   0.887347 0.501759 0.866034 0.025218
C10   C     C_R   0.845118 0.457596 0.994074 -0.192894
C11   C     C_R   0.810878 0.333365 0.011737 -0.141564
C12   C     C_R   0.262641 0.500660 0.498309 0.814547
C13   C     C_R   0.817957 0.250974 0.901508 -0.151319
C14   C     C_R   0.853703 0.293431 0.771559 -0.175032
C15   C     C_R   0.887382 0.418430 0.752174 0.061309
C16   C     C_R   0.553787 0.118293 0.761992 -0.189250
C17   C     C_R   0.533248 0.056070 0.885581 -0.107131
C18   C     C_R   0.469881 0.941953 0.882862 -0.106020
C19   C     C_R   0.441863 0.883570 0.756008 -0.173960
C20   C     C_R   0.480093 0.937845 0.630296 0.096293
C21   C     C_R   0.517229 0.063808 0.632349 0.100238
C22   C     C_R   0.517019 0.128907 0.504878 -0.131645
C23   C     C_R   0.492174 0.737043 0.500651 0.773725
C24   C     C_R   0.510346 0.063033 0.379418 -0.203998
C25   C     C_R   0.499611 0.935687 0.379011 -0.221723
C26   C     C_R   0.484776 0.871368 0.503491 -0.113639
C27   C     C_R   0.647175 0.679713 0.148728 -0.179220
C28   C     C_R   0.708569 0.775204 0.079436 -0.200049
C29   C     C_R   0.706422 0.776147 0.936277 -0.148602
C30   C     C_R   0.645510 0.679919 0.862357 -0.145829
C31   C     C_R   0.570160 0.589526 0.928297 0.184559
C32   C     C_R   0.570330 0.589623 0.077429 0.183289
C33   C     C_R   0.436415 0.410388 0.068762 0.059629
C34   C     C_R   0.737626 0.498772 0.501872 0.770180
C35   C     C_R   0.436722 0.412413 0.921484 -0.123649
C36   C     C_R   0.245717 0.756816 0.149152 -0.098912
C37   C     C_R   0.180832 0.713244 0.263476 -0.108813
C38   C     C_R   0.120174 0.595941 0.258393 0.130125
C39   C     C_R   0.123955 0.523381 0.138094 -0.055694
C40   C     C_R   0.189716 0.566841 0.024539 -0.096221
Cu1   Cu    Cu3+1 0.499990 0.499990 0.640660 0.931845
Cu2   Cu    Cu3+1 0.500010 0.500010 0.359340 0.960696
H1    H     H_    0.301663 0.715727 0.942654 0.107622
H2    H     H_    0.780536 0.300752 0.111689 0.141814
H3    H     H_    0.794779 0.154020 0.916405 0.131767
H4    H     H_    0.858298 0.228231 0.686668 0.126173
H5    H     H_    0.515476 0.109807 0.280984 0.192473
H6    H     H_    0.602906 0.206633 0.770213 0.183649
H7    H     H_    0.564035 0.097827 0.983537 0.162066
H8    H     H_    0.447031 0.896692 0.979008 0.132913
H9    H     H_    0.389394 0.796802 0.757364 0.159360
H10   H     H_    0.502441 0.887757 0.280410 0.167226
H11   H     H_    0.292725 0.847115 0.153241 0.126440
H12   H     H_    0.667086 0.677901 0.257223 0.203866
H13   H     H_    0.763702 0.845112 0.137117 0.161981
H14   H     H_    0.759969 0.846789 0.882246 0.163895
H15   H     H_    0.665428 0.676376 0.754960 0.211409
H16   H     H_    0.384336 0.341808 0.861801 0.168950
H17   H     H_    0.179606 0.769549 0.356484 0.112967
H18   H     H_    0.078501 0.432236 0.133651 0.138706
H19   H     H_    0.193196 0.510452 0.932055 0.111759
H20   H     H_    0.882660 0.580843 0.301987 0.150660
H21   H     H_    0.119294 0.421763 0.700306 0.142677
H22   H     H_    0.840355 0.519264 0.081478 0.164762
N1    N     N_R   0.501190 0.501210 0.147910 -0.229630
N2    N     N_R   0.501230 0.501290 0.852040 -0.211113
O1    O     O_R   0.499990 0.319640 0.618810 -0.591046
O2    O     O_R   0.500000 0.319660 0.381240 -0.567853
O3    O     O_R   0.319640 0.500000 0.618780 -0.597887
O4    O     O_R   0.319650 0.500020 0.381210 -0.517548
O5    O     O_R   0.500000 0.680340 0.618760 -0.613253
O6    O     O_R   0.500010 0.680360 0.381190 -0.600028
O7    O     O_R   0.680350 0.499980 0.618790 -0.585437
O8    O     O_R   0.680360 0.500000 0.381220 -0.615819
C41   C     C_2   0.367730 0.302813 0.129173 0.846566
O9    O     O_2   0.381714 0.200112 0.082488 -0.665959
O10   O     O_R   0.280080 0.316745 0.229373 -0.738565
H23   H     H_    0.238665 0.235527 0.258591 0.316288
C42   C     C_2   0.933667 0.633246 0.856022 0.795180
O11   O     O_2   0.960082 0.692818 0.961776 -0.608193
O12   O     O_R   0.944722 0.690824 0.727415 -0.780076
H24   H     H_    0.976425 0.780066 0.735969 0.326870

loop_
_geom_bond_atom_site_label_1
_geom_bond_atom_site_label_2
_ccdc_geom_bond_type
C31   N2    A    
C12   O3    A    
C16   C21   A    
Cu1   Cu2   S    
C19   C20   A    
C16   H6    S    
O12   H24   S    
C27   H12   S    
C33   N1    A    
C7    C8    A    
Cu1   O1    S    
O10   H23   S    
C37   C38   A    
C35   H16   S    
C36   C37   A    
C5    C6    A    
C30   H15   S    
Cu2   O4    S    
C1    O2    A    
C18   C19   A    
C9    C42   S    
C23   C26   S    
C36   H11   S    
C1    O1    A    
C33   C41   S    
C16   C17   A    
Cu2   N1    S    
C9    C10   A    
Cu1   O5    S    
C1    C22   S    
C21   C22   A    
Cu2   O2    S    
C8    C38   S    
C28   H13   S    
C6    C7    A    
C7    C12   S    
C4    C34   S    
Cu2   O8    S    
C23   O5    A    
C38   C39   A    
C24   C25   A    
C14   H4    S    
C3    C8    A    
C17   H7    S    
C39   C40   A    
C42   O12   S    
C35   N2    A    
C25   C26   A    
C40   H19   S    
C6    H21   S    
C41   O9    D    
C29   C30   A    
C2    C40   A    
C31   C32   A    
C2    H1    S    
Cu2   O6    S    
C17   C18   A    
C11   H2    S    
C41   O10   S    
C37   H17   S    
C34   O8    A    
C22   C24   A    
C3    C4    A    
C18   H8    S    
Cu1   O3    S    
C3    H20   S    
C2    C36   A    
C12   O4    A    
C28   C29   A    
C27   C32   A    
C24   H5    S    
C23   O6    A    
C10   H22   S    
C4    C5    A    
Cu1   N2    S    
C29   H14   S    
C9    C15   A    
C25   H10   S    
C13   H3    S    
C11   C13   A    
C30   C31   A    
C20   C26   A    
C39   H18   S    
C33   C35   A    
C5    C15   S    
C10   C11   A    
C34   O7    A    
Cu1   O7    S    
C42   O11   D    
C19   H9    S    
C20   C21   A    
C27   C28   A    
C14   C15   A    
C13   C14   A    
C32   N1    A    
