data_mof_unit_32350.cif
_audit_creation_date              2012-12-11T14:40:29-0500
_audit_creation_method            fapswitch 2.2
_symmetry_space_group_name_H-M    P1
_symmetry_Int_Tables_number       1
_space_group_crystal_system       triclinic
_cell_length_a                    19.822425
_cell_length_b                    11.007021
_cell_length_c                    19.473236
_cell_angle_alpha                 90.798388
_cell_angle_beta                  96.808549
_cell_angle_gamma                 89.837409
_cell_volume                      4218.40877791

loop_
_atom_site_label
_atom_site_type_symbol
_atom_type_description
_atom_site_fract_x
_atom_site_fract_y
_atom_site_fract_z
_atom_type_partial_charge
C1    C     C_R   0.707537 0.000359 0.366394 0.536237
C2    C     C_3   0.247739 0.411052 0.568932 0.029694
C3    C     C_1   0.851640 0.050134 0.462533 0.260599
C4    C     C_R   0.879198 0.452370 0.425017 0.035847
C5    C     C_R   0.936362 0.376785 0.439065 -0.071288
C6    C     C_R   0.977722 0.350212 0.387474 -0.090948
C7    C     C_R   0.962888 0.399964 0.321938 -0.048640
C8    C     C_R   0.910990 0.485839 0.309946 -0.070971
C9    C     C_R   0.870211 0.514027 0.361806 -0.083306
C10   C     C_R   0.118414 0.340221 0.550122 0.051194
C11   C     C_R   0.094819 0.405803 0.605190 -0.071804
C12   C     C_R   0.053388 0.349440 0.648329 -0.088218
C13   C     C_3   0.249999 0.905633 0.431750 0.037792
C14   C     C_R   0.033381 0.229245 0.635212 -0.068796
C15   C     C_R   0.049348 0.169370 0.575431 -0.078938
C16   C     C_R   0.091906 0.224873 0.532925 -0.094497
C17   C     C_R   0.379192 0.952391 0.425014 0.035837
C18   C     C_R   0.436356 0.876811 0.439056 -0.071292
C19   C     C_R   0.477712 0.850243 0.387461 -0.090947
C20   C     C_R   0.462873 0.899993 0.321927 -0.048639
C21   C     C_R   0.410975 0.985864 0.309941 -0.070978
C22   C     C_R   0.370201 0.014049 0.361805 -0.083310
C23   C     C_R   0.618415 0.840197 0.550110 0.051191
C24   C     C_3   0.747739 0.911050 0.568931 0.029693
C25   C     C_R   0.594818 0.905746 0.605188 -0.071783
C26   C     C_R   0.553392 0.849349 0.648318 -0.088202
C27   C     C_R   0.533389 0.729159 0.635181 -0.068777
C28   C     C_R   0.549349 0.669329 0.575384 -0.078937
C29   C     C_R   0.591904 0.724863 0.532887 -0.094533
C30   C     C_1   0.856813 0.267272 0.562409 0.215897
C31   C     C_1   0.217902 0.247533 0.410331 0.205966
C32   C     C_1   0.356817 0.767281 0.562404 0.215900
C33   C     C_1   0.717913 0.747535 0.410327 0.205969
C34   C     C_R   0.465201 0.944443 0.058607 0.019757
C35   C     C_3   0.712378 0.502738 0.468788 -0.123456
C36   C     C_R   0.520595 0.871546 0.084883 -0.047762
C37   C     C_R   0.510541 0.754992 0.109013 -0.115316
C38   C     C_R   0.444975 0.708248 0.105253 -0.108690
C39   C     C_R   0.389878 0.778747 0.077940 -0.089583
C40   C     C_R   0.400034 0.897649 0.055977 -0.110842
C41   C     C_R   0.542157 0.944886 0.936437 0.020180
C42   C     C_R   0.486077 0.873764 0.908736 -0.048433
C43   C     C_R   0.494622 0.755712 0.884396 -0.114562
C44   C     C_R   0.559245 0.704740 0.889913 -0.108111
C45   C     C_R   0.614949 0.772550 0.919097 -0.079728
C46   C     C_3   0.249305 0.541790 0.545007 -0.152139
C47   C     C_R   0.606864 0.893632 0.940764 -0.100409
C48   C     C_R   0.965201 0.444443 0.058607 0.019757
C49   C     C_R   0.020595 0.371546 0.084883 -0.047761
C50   C     C_R   0.010541 0.254992 0.109013 -0.115316
C51   C     C_R   0.944975 0.208248 0.105253 -0.108689
C52   C     C_R   0.889878 0.278747 0.077940 -0.089583
C53   C     C_R   0.900034 0.397649 0.055976 -0.110842
C54   C     C_R   0.042157 0.444886 0.936436 0.020180
C55   C     C_R   0.986077 0.373764 0.908736 -0.048433
C56   C     C_R   0.994622 0.255712 0.884396 -0.114564
C57   C     C_3   0.212372 0.002733 0.468789 -0.123460
C58   C     C_R   0.059245 0.204741 0.889912 -0.108110
C59   C     C_R   0.114949 0.272550 0.919097 -0.079726
C60   C     C_R   0.106864 0.393632 0.940764 -0.100409
C61   C     C_3   0.749301 0.041789 0.545007 -0.152138
C62   C     C_3   0.783369 0.544919 0.504820 -0.154046
C63   C     C_3   0.182432 0.516409 0.496350 -0.193634
C64   C     C_3   0.283361 0.044921 0.504821 -0.154045
C65   C     C_R   0.291122 0.993050 0.633487 0.555455
C66   C     C_3   0.682430 0.016403 0.496349 -0.193635
C67   C     C_3   0.820112 0.444286 0.467593 -0.010672
C68   C     C_3   0.180798 0.385479 0.521166 0.004660
C69   C     C_3   0.320108 0.944297 0.467592 -0.010675
C70   C     C_3   0.680800 0.885472 0.521163 0.004665
C71   C     C_3   0.810899 0.354327 0.525046 -0.007563
C72   C     C_3   0.224181 0.341663 0.464833 -0.011200
C73   C     C_3   0.310901 0.854332 0.525044 -0.007564
C74   C     C_3   0.724186 0.841663 0.464831 -0.011198
C75   C     C_3   0.775119 0.454472 0.562577 0.021648
C76   C     C_R   0.207537 0.500359 0.366394 0.536236
C77   C     C_3   0.224551 0.472470 0.439487 0.012940
C78   C     C_3   0.275116 0.954469 0.562577 0.021647
C79   C     C_3   0.724552 0.972471 0.439487 0.012938
C80   C     C_3   0.528911 0.265365 0.974493 -0.117143
C81   C     C_3   0.475150 0.263595 0.025778 -0.117960
C82   C     C_3   0.028911 0.765365 0.974493 -0.117143
C83   C     C_3   0.975150 0.763595 0.025778 -0.117960
C84   C     C_3   0.571138 0.164637 0.014702 -0.135712
C85   C     C_3   0.434599 0.161875 0.983887 -0.137695
C86   C     C_3   0.071138 0.664637 0.014702 -0.135712
C87   C     C_R   0.791123 0.493053 0.633486 0.555455
C88   C     C_3   0.934599 0.661875 0.983886 -0.137694
C89   C     C_3   0.517218 0.165628 0.065972 0.044252
C90   C     C_3   0.488186 0.166395 0.932439 0.046490
C91   C     C_3   0.017218 0.665628 0.065972 0.044252
C92   C     C_3   0.988186 0.666395 0.932439 0.046490
C93   C     C_R   0.558811 0.183871 0.347659 0.531226
C94   C     C_R   0.464643 0.179476 0.662286 0.539710
C95   C     C_R   0.058811 0.683871 0.347659 0.531224
C96   C     C_R   0.964643 0.679476 0.662286 0.539704
C97   C     C_3   0.478094 0.064393 0.025210 -0.023646
C98   C     C_3   0.741470 0.314013 0.488558 -0.150623
C99   C     C_3   0.529129 0.065708 0.971200 -0.021727
C100  C     C_3   0.978094 0.564392 0.025210 -0.023646
C101  C     C_3   0.029129 0.565708 0.971200 -0.021727
C102  C     C_1   0.756984 0.417983 0.900598 -0.021572
C103  C     C_1   0.245419 0.405092 0.101710 -0.026125
C104  C     C_1   0.256984 0.917983 0.900598 -0.021572
C105  C     C_1   0.745419 0.905092 0.101710 -0.026125
C106  C     C_1   0.736194 0.393137 0.029542 -0.076092
C107  C     C_1   0.273301 0.354001 0.976457 -0.075931
C108  C     C_1   0.236194 0.893137 0.029542 -0.076092
C109  C     C_3   0.290803 0.367875 0.512084 -0.145898
C110  C     C_1   0.773301 0.854001 0.976457 -0.075931
C111  C     C_1   0.743918 0.403041 0.958715 -0.067495
C112  C     C_1   0.261287 0.377762 0.045566 -0.063902
C113  C     C_1   0.243918 0.903041 0.958715 -0.067495
C114  C     C_1   0.761287 0.877762 0.045566 -0.063902
C115  C     C_1   0.735823 0.381714 0.090967 -0.025004
C116  C     C_1   0.277019 0.335402 0.915730 -0.034888
C117  C     C_1   0.235823 0.881714 0.090967 -0.025005
C118  C     C_1   0.777019 0.835402 0.915730 -0.034888
C119  C     C_R   0.738994 0.362691 0.361425 0.546660
C120  C     C_3   0.241472 0.814011 0.488556 -0.150622
C121  C     C_R   0.260688 0.362349 0.638296 0.548845
C122  C     C_R   0.238993 0.862691 0.361425 0.546661
C123  C     C_R   0.760688 0.862349 0.638296 0.548841
C124  C     C_R   0.722750 0.950566 0.164617 0.552221
C125  C     C_R   0.277275 0.952077 0.835394 0.545835
C126  C     C_R   0.222750 0.450566 0.164617 0.552220
C127  C     C_R   0.777275 0.452077 0.835394 0.545837
C128  C     C_R   0.533939 0.177947 0.139660 0.554632
C129  C     C_R   0.467925 0.178484 0.859393 0.544876
C130  C     C_R   0.033939 0.677947 0.139660 0.554632
C131  C     C_3   0.790806 0.867880 0.512084 -0.145893
C132  C     C_R   0.967925 0.678484 0.859393 0.544875
C133  C     C_R   0.734051 0.354532 0.162416 0.545515
C134  C     C_R   0.278296 0.310146 0.843235 0.556902
C135  C     C_R   0.234051 0.854533 0.162416 0.545514
C136  C     C_R   0.778296 0.810146 0.843235 0.556903
C137  C     C_1   0.488394 0.170321 0.596456 0.007495
C138  C     C_1   0.533942 0.177355 0.412969 -0.004686
C139  C     C_1   0.988393 0.670320 0.596455 0.007493
C140  C     C_1   0.033941 0.677354 0.412968 -0.004684
C141  C     C_1   0.517621 0.172259 0.470117 -0.040440
C142  C     C_3   0.750001 0.405631 0.431751 0.037788
C143  C     C_1   0.502474 0.168422 0.538349 -0.029934
C144  C     C_1   0.017620 0.672258 0.470116 -0.040436
C145  C     C_1   0.002472 0.668421 0.538349 -0.029930
C146  C     C_3   0.706343 0.413263 0.526754 -0.022173
C147  C     C_3   0.290509 0.498425 0.486479 -0.000547
C148  C     C_3   0.206342 0.913254 0.526755 -0.022178
C149  C     C_3   0.790508 0.998430 0.486480 -0.000547
C150  C     C_1   0.646602 0.392934 0.562692 0.207720
C151  C     C_1   0.351641 0.550126 0.462531 0.260596
C152  C     C_1   0.146601 0.892921 0.562693 0.207712
Cr1   Cr    Cr6+3 0.765830 0.160660 0.268180 1.036250
Cr2   Cr    Cr6+3 0.384070 0.324050 0.751550 1.029002
Cr3   Cr    Cr6+3 0.115930 0.824050 0.248450 1.025549
Cr4   Cr    Cr6+3 0.884070 0.824050 0.751550 1.029006
Cr5   Cr    Cr6+3 0.234170 0.160660 0.731820 1.027487
Cr6   Cr    Cr6+3 0.265830 0.660660 0.268180 1.036249
Cr7   Cr    Cr6+3 0.734170 0.660660 0.731820 1.027484
Cr8   Cr    Cr6+3 0.612110 0.009150 0.248770 0.993023
Cr9   Cr    Cr6+3 0.387890 0.009150 0.751230 1.000052
Cr10  Cr    Cr6+3 0.112110 0.509150 0.248770 0.993023
Cr11  Cr    Cr6+3 0.887890 0.509150 0.751230 1.000041
Cr12  Cr    Cr6+3 0.615930 0.324050 0.248450 1.025546
H1    H     H_    0.720341 0.225962 0.471013 0.098933
H2    H     H_    0.638725 0.078492 0.489292 0.107218
H3    H     H_    0.803474 0.635702 0.517246 0.098296
H4    H     H_    0.138729 0.578504 0.489292 0.107215
H5    H     H_    0.626992 0.164980 0.029447 0.110327
H6    H     H_    0.378791 0.158572 0.969422 0.102148
H7    H     H_    0.126992 0.664979 0.029447 0.110327
H8    H     H_    0.878791 0.658572 0.969421 0.102149
H9    H     H_    0.549854 0.347830 0.952575 0.131091
H10   H     H_    0.452777 0.344665 0.049109 0.132036
H11   H     H_    0.049854 0.847830 0.952575 0.131091
H12   H     H_    0.339366 0.317092 0.521269 0.109203
H13   H     H_    0.952777 0.844665 0.049109 0.132036
H14   H     H_    0.947393 0.332744 0.488154 0.141079
H15   H     H_    0.019875 0.287790 0.397515 0.120528
H16   H     H_    0.993233 0.375392 0.281140 0.131127
H17   H     H_    0.901132 0.527909 0.259829 0.122067
H18   H     H_    0.827669 0.574679 0.350020 0.139229
H19   H     H_    0.114067 0.495999 0.618914 0.111801
H20   H     H_    0.039251 0.397056 0.693480 0.131281
H21   H     H_    0.004189 0.183499 0.670650 0.139341
H22   H     H_    0.029968 0.079058 0.562963 0.163520
H23   H     H_    0.220349 0.725958 0.471009 0.098936
H24   H     H_    0.105886 0.176796 0.488466 0.096690
H25   H     H_    0.447390 0.832772 0.488144 0.141076
H26   H     H_    0.519866 0.787826 0.397497 0.120526
H27   H     H_    0.493214 0.875423 0.281127 0.131129
H28   H     H_    0.401113 0.027932 0.259827 0.122063
H29   H     H_    0.327659 0.074699 0.350024 0.139231
H30   H     H_    0.614065 0.995936 0.618927 0.111802
H31   H     H_    0.539257 0.896935 0.693479 0.131255
H32   H     H_    0.504202 0.683385 0.670612 0.139353
H33   H     H_    0.529967 0.579027 0.562898 0.163522
H34   H     H_    0.839369 0.817099 0.521269 0.109206
H35   H     H_    0.605877 0.676822 0.488415 0.096691
H36   H     H_    0.571834 0.903567 0.083748 0.152387
H37   H     H_    0.553656 0.699905 0.128763 0.124371
H38   H     H_    0.436910 0.616808 0.122325 0.120708
H39   H     H_    0.339828 0.739125 0.072920 0.138850
H40   H     H_    0.358611 0.953549 0.034643 0.118870
H41   H     H_    0.435111 0.907864 0.909567 0.158610
H42   H     H_    0.450895 0.702476 0.863602 0.124649
H43   H     H_    0.566053 0.611809 0.873097 0.118693
H44   H     H_    0.663677 0.728333 0.926004 0.133635
H45   H     H_    0.665974 0.544229 0.442360 0.138414
H46   H     H_    0.649655 0.946279 0.963628 0.119224
H47   H     H_    0.071834 0.403567 0.083748 0.152386
H48   H     H_    0.053656 0.199904 0.128763 0.124370
H49   H     H_    0.936910 0.116808 0.122325 0.120708
H50   H     H_    0.839828 0.239125 0.072919 0.138850
H51   H     H_    0.858611 0.453549 0.034643 0.118871
H52   H     H_    0.935111 0.407864 0.909567 0.158611
H53   H     H_    0.950895 0.202476 0.863601 0.124648
H54   H     H_    0.066053 0.111809 0.873096 0.118693
H55   H     H_    0.163677 0.228333 0.926003 0.133635
H56   H     H_    0.256955 0.619003 0.582119 0.143772
H57   H     H_    0.149654 0.446279 0.963628 0.119225
H58   H     H_    0.165966 0.044220 0.442363 0.138417
H59   H     H_    0.756948 0.119003 0.582120 0.143771
H60   H     H_    0.303462 0.135706 0.517251 0.098296
N1    N     N_1   0.600059 0.377041 0.591998 -0.312372
N2    N     N_1   0.399904 0.589393 0.443061 -0.300532
N3    N     N_1   0.100059 0.877026 0.591999 -0.312372
N4    N     N_1   0.899903 0.089403 0.443063 -0.300527
N5    N     N_1   0.891015 0.196820 0.593118 -0.321679
N6    N     N_1   0.213290 0.180232 0.363777 -0.312175
N7    N     N_1   0.391020 0.696831 0.593113 -0.321679
N8    N     N_1   0.713306 0.680235 0.363774 -0.312177
O1    O     O_R   0.783230 0.287800 0.346510 -0.506586
O2    O     O_R   0.454570 0.285140 0.836900 -0.523272
O3    O     O_R   0.045430 0.785140 0.163100 -0.514481
O4    O     O_R   0.954570 0.785140 0.836900 -0.523272
O5    O     O_R   0.677850 0.374730 0.185500 -0.490723
O6    O     O_R   0.322150 0.374730 0.814500 -0.486513
O7    O     O_R   0.177850 0.874730 0.185500 -0.490723
O8    O     O_R   0.822150 0.874730 0.814500 -0.486513
O9    O     O_3   0.664630 0.164620 0.255130 -0.300701
O10   O     O_3   0.335370 0.164620 0.744870 -0.305013
O11   O     O_3   0.164630 0.664620 0.255130 -0.300700
O12   O     O_R   0.216770 0.287800 0.653490 -0.510295
O13   O     O_3   0.835370 0.664620 0.744870 -0.305012
O14   O     O_R   0.760130 0.037060 0.338610 -0.486798
O15   O     O_R   0.239870 0.037060 0.661390 -0.483402
O16   O     O_R   0.260130 0.537060 0.338610 -0.486799
O17   O     O_R   0.739870 0.537060 0.661390 -0.483395
O18   O     O_R   0.666620 0.921370 0.332440 -0.497735
O19   O     O_R   0.333380 0.921370 0.667560 -0.501336
O20   O     O_R   0.166620 0.421370 0.332440 -0.497733
O21   O     O_R   0.833380 0.421370 0.667560 -0.501337
O22   O     O_R   0.557170 0.082420 0.312350 -0.519770
O23   O     O_R   0.283230 0.787800 0.346510 -0.506584
O24   O     O_R   0.442830 0.082420 0.687650 -0.524007
O25   O     O_R   0.057170 0.582420 0.312350 -0.519770
O26   O     O_R   0.942830 0.582420 0.687650 -0.524024
O27   O     O_R   0.548310 0.285980 0.316250 -0.493926
O28   O     O_R   0.451690 0.285980 0.683750 -0.490811
O29   O     O_R   0.048310 0.785980 0.316250 -0.493925
O30   O     O_R   0.951690 0.785980 0.683750 -0.490806
O31   O     O_R   0.680520 0.375500 0.327470 -0.507277
O32   O     O_R   0.319480 0.375500 0.672530 -0.490500
O33   O     O_R   0.180520 0.875500 0.327470 -0.507275
O34   O     O_R   0.716770 0.787800 0.653490 -0.510301
O35   O     O_R   0.819480 0.875500 0.672530 -0.490496
O36   O     O_R   0.780350 0.286970 0.193350 -0.517205
O37   O     O_R   0.219650 0.286970 0.806650 -0.509165
O38   O     O_R   0.280350 0.786970 0.193350 -0.517205
O39   O     O_R   0.719650 0.786970 0.806650 -0.509169
O40   O     O_R   0.757460 0.036290 0.196640 -0.489761
O41   O     O_R   0.242540 0.036290 0.803360 -0.507631
O42   O     O_R   0.257460 0.536290 0.196640 -0.489761
O43   O     O_R   0.742540 0.536290 0.803360 -0.507631
O44   O     O_R   0.663740 0.920540 0.179290 -0.524669
O45   O     O_R   0.554500 0.081650 0.170370 -0.514129
O46   O     O_R   0.336260 0.920540 0.820710 -0.526149
O47   O     O_R   0.163740 0.420540 0.179290 -0.524670
O48   O     O_R   0.836260 0.420540 0.820710 -0.526149
O49   O     O_R   0.445500 0.081650 0.829630 -0.518322
O50   O     O_R   0.054500 0.581650 0.170370 -0.514128
O51   O     O_R   0.945500 0.581650 0.829630 -0.518325
O52   O     O_R   0.545430 0.285140 0.163100 -0.514481

loop_
_geom_bond_atom_site_label_1
_geom_bond_atom_site_label_2
_ccdc_geom_bond_type
C121  O12   A    
C24   C61   S    
C6    H15   S    
C107  C112  S    
C19   C20   A    
C110  C118  T    
C96   C139  S    
C30   C71   S    
C118  C136  S    
C125  O41   A    
C134  O37   A    
C66   C79   S    
Cr11  O26   S    
Cr4   O13   S    
C5    C6    A    
C130  O3    A    
C65   O15   A    
C103  C126  S    
Cr7   O13   S    
C9    H18   S    
C146  C150  S    
C29   H35   S    
C70   C74   S    
C127  O48   A    
C33   N8    T    
C77   C147  S    
C78   C148  S    
C79   C149  S    
C83   C88   S    
C59   C60   A    
C150  N1    T    
C21   C22   A    
C134  O6    A    
C102  C111  T    
C76   O16   A    
Cr12  O9    S    
C45   C47   A    
Cr7   O39   S    
C48   C100  S    
C85   C90   S    
C3    C149  S    
C51   C52   A    
C36   H36   S    
C16   H24   S    
C122  O23   A    
C93   O22   A    
C4    C5    A    
C21   H28   S    
C103  C112  T    
C108  C113  S    
C43   C44   A    
C37   C38   A    
C68   C72   S    
Cr1   O14   S    
Cr2   O2    S    
C132  O4    A    
Cr3   O33   S    
Cr4   O30   S    
C84   H5    S    
C74   C79   S    
C136  O8    A    
C1    C79   S    
C62   C75   S    
C131  C149  S    
C117  C135  S    
C32   C73   S    
Cr2   O28   S    
C2    C121  S    
C96   O30   A    
C85   H6    S    
C127  O43   A    
C144  C145  S    
C138  C141  T    
Cr10  O47   S    
C6    C7    A    
C10   C68   S    
C83   C91   S    
C63   C68   S    
C28   H33   S    
C106  C115  T    
Cr9   O46   S    
C10   C16   A    
C24   C131  S    
C66   C70   S    
C24   C123  S    
C85   C97   S    
Cr3   O29   S    
C95   O29   A    
C132  O51   A    
C20   C21   A    
C38   H38   S    
Cr12  O5    S    
C94   C137  S    
C27   H32   S    
C61   C149  S    
C3    N4    T    
C25   H30   S    
C8    H17   S    
C2    C109  S    
C17   C69   S    
Cr1   O9    S    
C54   C101  S    
C60   H57   S    
C20   H27   S    
C24   C70   S    
C7    C8    A    
C23   C29   A    
C36   C37   A    
C92   C132  S    
C80   H9    S    
C2    C68   S    
C38   C39   A    
C13   C57   S    
C125  O46   A    
C34   C97   S    
Cr12  O52   S    
C42   H41   S    
C93   O27   A    
C90   C129  S    
C119  O1    A    
C94   O28   A    
C40   H40   S    
C110  C114  S    
C126  O42   A    
C50   H48   S    
C74   C131  S    
C98   C142  S    
C43   H42   S    
C23   C70   S    
C109  C147  S    
C133  O5    A    
C106  C111  S    
C75   C146  S    
C48   C53   A    
C46   H56   S    
Cr1   O36   S    
Cr7   O17   S    
C39   C40   A    
C14   H21   S    
C25   C26   A    
C44   H43   S    
C147  C151  S    
Cr5   O10   S    
C152  N3    T    
Cr5   O37   S    
C52   H50   S    
C17   C18   A    
C41   C47   A    
C64   C69   S    
C75   C87   S    
C45   H44   S    
C91   C100  S    
C128  O52   A    
C90   C99   S    
C13   C120  S    
C52   C53   A    
C87   O17   A    
C54   C55   A    
C31   C72   S    
C64   C78   S    
C108  C117  T    
C148  C152  S    
Cr11  O51   S    
C126  O47   A    
Cr2   O6    S    
C129  O2    A    
C58   H54   S    
C123  O34   A    
C13   C69   S    
Cr4   O4    S    
C100  C101  S    
C56   C58   A    
C7    H16   S    
C34   C36   A    
C107  C116  T    
Cr2   O32   S    
C10   C11   A    
C35   C142  S    
C104  C113  T    
C82   H11   S    
C96   O26   A    
C49   C50   A    
Cr12  O27   S    
C14   C15   A    
C4    C9    A    
Cr9   O24   S    
C81   C85   S    
Cr3   O11   S    
C55   C56   A    
C39   H39   S    
C41   C42   A    
C80   C84   S    
Cr7   O34   S    
C26   C27   A    
C57   C64   S    
C30   N5    T    
C28   C29   A    
Cr5   O12   S    
C86   C91   S    
C141  C143  S    
C121  O32   A    
Cr5   O41   S    
Cr9   O49   S    
C116  C134  S    
C82   C92   S    
C64   H60   S    
C18   C19   A    
Cr8   O22   S    
Cr11  O21   S    
C93   C138  S    
C72   C109  S    
C124  O40   A    
C104  C125  S    
C41   C99   S    
C22   H29   S    
C69   C73   S    
Cr8   O44   S    
C81   C89   S    
Cr3   O7    S    
C53   H51   S    
C73   C120  S    
C26   H31   S    
C56   H53   S    
C57   H58   S    
C15   H22   S    
C83   H13   S    
C131  H34   S    
Cr9   O19   S    
C115  C133  S    
C58   C59   A    
C82   C86   S    
Cr4   O8    S    
C105  C124  S    
C35   C146  S    
C46   C147  S    
C50   C51   A    
Cr1   O1    S    
Cr5   O15   S    
Cr9   O10   S    
C88   C100  S    
C92   C101  S    
C48   C49   A    
Cr1   O40   S    
C42   C43   A    
C120  H23   S    
C44   C45   A    
C65   C78   S    
C84   C99   S    
Cr8   O45   S    
C140  C144  T    
C46   C63   S    
C17   C22   A    
Cr6   O38   S    
C12   H20   S    
C136  O39   A    
C67   C71   S    
Cr6   O11   S    
C123  O35   A    
C33   C74   S    
C87   O21   A    
C151  N2    T    
C82   C83   S    
C57   C148  S    
C119  C142  S    
C37   H37   S    
C67   C142  S    
C89   C128  S    
Cr2   O10   S    
C18   H25   S    
C88   H8    S    
Cr12  O31   S    
C109  H12   S    
C91   C130  S    
C54   C60   A    
C2    C46   S    
C95   C140  S    
C62   C67   S    
C34   C40   A    
C1    O14   A    
Cr11  O48   S    
C15   C16   A    
C31   N6    T    
Cr6   O23   S    
Cr10  O20   S    
C61   C66   S    
C119  O31   A    
C88   C92   S    
Cr10  O25   S    
C8    C9    A    
C73   C78   S    
Cr8   O9    S    
C51   H49   S    
C62   H3    S    
C137  C143  T    
C32   N7    T    
Cr6   O16   S    
C97   C99   S    
Cr6   O42   S    
Cr10  O50   S    
C5    H14   S    
C71   C98   S    
C66   H2    S    
C86   H7    S    
Cr8   O18   S    
C105  C114  T    
C11   H19   S    
C76   C77   S    
C102  C127  S    
C55   H52   S    
C1    O18   A    
C98   C146  S    
C135  O38   A    
C89   C97   S    
C61   H59   S    
C72   C77   S    
C94   O24   A    
Cr3   O3    S    
C49   H47   S    
C129  O49   A    
C63   H4    S    
C12   C14   A    
C65   O19   A    
C84   C89   S    
C128  O45   A    
C133  O36   A    
C63   C77   S    
C95   O25   A    
C139  C145  T    
C80   C81   S    
C4    C67   S    
C11   C12   A    
C120  C148  S    
Cr7   O43   S    
C81   H10   S    
C35   H45   S    
C130  O50   A    
C59   H55   S    
C71   C75   S    
C13   C122  S    
C124  O44   A    
Cr4   O35   S    
C135  O7    A    
C35   C62   S    
C23   C25   A    
C80   C90   S    
C98   H1    S    
Cr11  O13   S    
C19   H26   S    
C47   H46   S    
C27   C28   A    
Cr10  O11   S    
C86   C101  S    
C122  O33   A    
C76   O20   A    
