data_mof_unit_10058.cif
_audit_creation_date              2012-12-11T14:34:13-0500
_audit_creation_method            fapswitch 2.2
_symmetry_space_group_name_H-M    P1
_symmetry_Int_Tables_number       1
_space_group_crystal_system       triclinic
_cell_length_a                    14.815253
_cell_length_b                    14.81926
_cell_length_c                    27.227917
_cell_angle_alpha                 89.986833
_cell_angle_beta                  89.777678
_cell_angle_gamma                 120.071021
_cell_volume                      5173.26528802

loop_
_atom_site_label
_atom_site_type_symbol
_atom_type_description
_atom_site_fract_x
_atom_site_fract_y
_atom_site_fract_z
_atom_type_partial_charge
C1    C     C_R   0.239003 0.784458 0.569134 0.546218
C2    C     C_1   0.728529 0.863196 0.858659 0.064419
C3    C     C_1   0.127891 0.892180 0.853180 0.059177
C4    C     C_1   0.124045 0.266417 0.857542 -0.007540
C5    C     C_1   0.613887 0.803446 0.659844 0.185263
C6    C     C_1   0.199832 0.812789 0.659640 0.170827
C7    C     C_1   0.183524 0.393600 0.660733 0.112638
C8    C     C_1   0.587329 0.787300 0.617533 0.188947
C9    C     C_1   0.215108 0.799845 0.617676 0.192370
C10   C     C_1   0.198414 0.419036 0.618384 0.172412
C11   C     C_R   0.103009 0.217170 0.088073 0.610919
C12   C     C_R   0.215326 0.455376 0.569311 0.544807
C13   C     C_R   0.783146 0.885714 0.088543 0.612895
C14   C     C_R   0.114295 0.895904 0.087505 0.628623
C15   C     C_R   0.101186 0.212513 0.950143 0.586265
C16   C     C_R   0.786536 0.888604 0.950542 0.579733
C17   C     C_R   0.094083 0.928124 0.944179 0.527959
C18   C     C_R   0.590363 0.871145 0.358263 -0.114406
C19   C     C_R   0.203409 0.730080 0.347811 -0.089208
C20   C     C_R   0.283591 0.445224 0.352047 -0.081884
C21   C     C_R   0.620235 0.888838 0.309398 0.063157
C22   C     C_R   0.190066 0.744078 0.298599 0.078451
C23   C     C_R   0.546507 0.761647 0.569017 0.540835
C24   C     C_R   0.271310 0.415548 0.303238 0.098845
C25   C     C_R   0.661147 0.904862 0.207871 0.013219
C26   C     C_R   0.158939 0.770757 0.198867 0.010814
C27   C     C_R   0.243609 0.363196 0.202987 -0.009397
C28   C     C_R   0.236723 0.785735 0.431845 0.501684
C29   C     C_R   0.214419 0.450180 0.432019 0.502726
C30   C     C_R   0.551992 0.765465 0.432408 0.513854
C31   C     C_R   0.608546 0.952019 0.228998 -0.027602
C32   C     C_R   0.169638 0.686012 0.214154 -0.046137
C33   C     C_R   0.342645 0.434761 0.221272 -0.066441
C34   C     C_3   0.671858 0.737168 0.789422 0.383741
C35   C     C_R   0.586698 0.943543 0.279319 0.268383
C36   C     C_R   0.184356 0.671596 0.263627 0.257387
C37   C     C_R   0.357173 0.462126 0.270935 0.277299
C38   C     C_R   0.678486 0.908428 0.156382 0.246751
C39   C     C_R   0.142541 0.784935 0.148747 0.233779
C40   C     C_R   0.227802 0.337836 0.152298 0.176145
C41   C     C_R   0.741620 0.869670 0.138485 -0.006067
C42   C     C_R   0.126047 0.867966 0.136940 -0.009383
C43   C     C_R   0.129083 0.257222 0.137708 -0.002578
C44   C     C_R   0.683997 0.777065 0.370885 0.294015
C45   C     C_3   0.260220 0.952014 0.785389 0.380307
C46   C     C_R   0.198223 0.886759 0.370246 0.286276
C47   C     C_R   0.102089 0.318080 0.369968 0.282605
C48   C     C_R   0.718426 0.796538 0.321420 0.035558
C49   C     C_R   0.192666 0.907266 0.319937 0.048870
C50   C     C_R   0.084289 0.294933 0.319453 0.028431
C51   C     C_R   0.679732 0.846860 0.290070 -0.074945
C52   C     C_R   0.183146 0.832010 0.284408 -0.039684
C53   C     C_R   0.171191 0.341243 0.286435 -0.054418
C54   C     C_R   0.785846 0.763262 0.301412 0.282860
C55   C     C_R   0.191903 0.998079 0.303899 0.293057
C56   C     C_3   0.053103 0.327548 0.789893 0.393480
C57   C     C_R   0.983081 0.226729 0.300746 0.276476
C58   C     C_R   0.795544 0.761366 0.250035 0.228483
C59   C     C_R   0.157620 0.000359 0.256008 0.259530
C60   C     C_R   0.973588 0.189849 0.252378 0.236039
C61   C     C_R   0.756516 0.810850 0.219879 0.006885
C62   C     C_R   0.148538 0.925862 0.221461 0.036233
C63   C     C_R   0.059501 0.237235 0.220244 0.027774
C64   C     C_3   0.588592 0.865441 0.742274 -0.235651
C65   C     C_3   0.135858 0.735087 0.743535 -0.246524
C66   C     C_3   0.265413 0.415079 0.742722 -0.230797
C67   C     C_3   0.622354 0.714442 0.735500 0.354979
C68   C     C_R   0.699689 0.854802 0.239326 -0.053519
C69   C     C_R   0.164725 0.843488 0.234805 -0.022329
C70   C     C_R   0.157960 0.314653 0.236471 -0.028332
C71   C     C_R   0.777397 0.819854 0.170146 -0.110056
C72   C     C_R   0.125753 0.934540 0.173040 -0.107865
C73   C     C_R   0.047793 0.206936 0.171673 -0.083628
C74   C     C_R   0.614378 0.808830 0.387744 -0.020166
C75   C     C_R   0.207255 0.799805 0.383151 -0.011636
C76   C     C_R   0.199829 0.399271 0.384883 -0.033123
C77   C     C_3   0.764056 0.910703 0.715208 0.441604
C78   C     C_3   0.285771 0.920205 0.733139 0.366275
C79   C     C_3   0.089560 0.859095 0.709225 0.420035
C80   C     C_3   0.139687 0.240837 0.713541 0.431452
C81   C     C_3   0.795315 0.932514 0.772429 0.429906
C82   C     C_3   0.064814 0.874841 0.764830 0.408152
C83   C     C_3   0.126642 0.205696 0.769995 0.469193
C84   C     C_1   0.750174 0.874435 0.901456 0.083595
C85   C     C_1   0.110974 0.907063 0.894828 0.067146
C86   C     C_1   0.118709 0.245539 0.900415 0.064714
C87   C     C_3   0.647347 0.821959 0.711829 -0.120624
C88   C     C_3   0.179439 0.833020 0.710122 -0.121988
C89   C     C_3   0.078881 0.377625 0.735658 0.398247
C90   C     C_3   0.164728 0.356856 0.711894 -0.166728
C91   C     C_3   0.612226 0.873595 0.798558 0.065395
C92   C     C_3   0.126949 0.758254 0.798884 0.066447
C93   C     C_3   0.248499 0.387651 0.798576 0.080133
C94   C     C_3   0.703254 0.852030 0.805849 -0.010640
C95   C     C_3   0.144505 0.870488 0.801716 -0.017870
C96   C     C_3   0.136477 0.294887 0.805039 -0.054967
Cr1   Cr    Cr6+3 0.164410 0.584450 0.499910 1.138379
Cr2   Cr    Cr6+3 0.415550 0.579960 0.499910 1.135923
Cr3   Cr    Cr6+3 0.420040 0.835590 0.499910 1.115345
Cr4   Cr    Cr6+3 0.155170 0.075460 0.019960 1.140768
Cr5   Cr    Cr6+3 0.924540 0.079710 0.019960 1.137693
Cr6   Cr    Cr6+3 0.920290 0.844830 0.019960 1.136626
H1    H     H_    0.506791 0.812936 0.737014 0.277880
H2    H     H_    0.584745 0.996953 0.206982 0.192253
H3    H     H_    0.164659 0.628612 0.188283 0.182247
H4    H     H_    0.410373 0.468854 0.197627 0.193906
H5    H     H_    0.827050 0.791467 0.155990 0.208639
H6    H     H_    0.111838 0.997104 0.162286 0.174712
H7    H     H_    0.973192 0.143407 0.159508 0.194533
H8    H     H_    0.606794 0.941547 0.727467 0.279943
H9    H     H_    0.059655 0.675922 0.729292 0.257133
H10   H     H_    0.323920 0.398166 0.727518 0.265572
H11   H     H_    0.661855 0.147182 0.804187 0.394104
H12   H     H_    0.188937 0.705835 0.740506 0.273882
H13   H     H_    0.855888 0.530680 0.810954 0.398338
H14   H     H_    0.485445 0.358276 0.806058 0.384648
H15   H     H_    0.794937 0.746386 0.759098 0.440471
H16   H     H_    0.245331 0.058353 0.751858 0.437003
H17   H     H_    0.940547 0.203741 0.761055 0.433901
H18   H     H_    0.463537 0.938545 0.109899 0.395754
H19   H     H_    0.254739 0.652490 0.080201 0.391106
H20   H     H_    0.327548 0.551668 0.125505 0.345917
H21   H     H_    0.512860 0.021377 0.273621 0.349673
H22   H     H_    0.187389 0.543922 0.249608 0.324291
H23   H     H_    0.293525 0.497064 0.737985 0.280173
H24   H     H_    0.505705 0.560589 0.261191 0.335931
H25   H     H_    0.826458 0.649122 0.247844 0.383881
H26   H     H_    0.110984 0.098267 0.270690 0.362079
H27   H     H_    0.842998 0.062333 0.263153 0.359762
H28   H     H_    0.958403 0.801732 0.405252 0.381384
H29   H     H_    0.198654 0.184011 0.394045 0.368736
H30   H     H_    0.764448 0.088350 0.385918 0.376808
H31   H     H_    0.716822 0.744877 0.434899 0.356089
H32   H     H_    0.175052 0.913295 0.438458 0.337823
H33   H     H_    0.058060 0.268208 0.437205 0.341884
H34   H     H_    0.545002 0.811985 0.818704 0.208735
H35   H     H_    0.899534 0.935892 0.693300 0.416405
H36   H     H_    0.066458 0.966837 0.681896 0.412040
H37   H     H_    0.055745 0.188202 0.654375 0.379241
H38   H     H_    0.699933 0.067544 0.625532 0.397090
H39   H     H_    0.868365 0.602115 0.698505 0.403961
H40   H     H_    0.397582 0.271414 0.699887 0.393725
H41   H     H_    0.847886 0.047853 0.819056 0.353280
H42   H     H_    0.949774 0.809576 0.811679 0.365034
H43   H     H_    0.187054 0.149929 0.816017 0.350536
H44   H     H_    0.897906 0.930348 0.816474 0.287937
H45   H     H_    0.190439 0.759058 0.820079 0.204901
H46   H     H_    0.065358 0.984306 0.803665 0.312747
H47   H     H_    0.017604 0.101871 0.811982 0.288201
H48   H     H_    0.412053 0.612340 0.812804 0.407282
H49   H     H_    0.384900 0.820721 0.815792 0.406932
H50   H     H_    0.186521 0.593792 0.811596 0.408935
H51   H     H_    0.624964 0.482897 0.723110 0.376422
H52   H     H_    0.509164 0.179123 0.702756 0.369538
H53   H     H_    0.805220 0.307092 0.706584 0.377171
H54   H     H_    0.605264 0.603100 0.824083 0.422876
H55   H     H_    0.393440 0.022026 0.820388 0.428163
H56   H     H_    0.251369 0.453207 0.819007 0.203238
H57   H     H_    0.014909 0.361147 0.854282 0.385693
H58   H     H_    0.539208 0.897915 0.372116 0.208554
H59   H     H_    0.212960 0.665109 0.359120 0.182612
H60   H     H_    0.358309 0.508101 0.364392 0.203022
O1    O     O_R   0.137150 0.468200 0.553200 -0.471935
O2    O     O_R   0.140110 0.470540 0.446010 -0.468985
O3    O     O_2   0.942624 0.258149 0.659096 -0.229504
O4    O     O_3   0.858104 0.309933 0.729667 -0.408257
O5    O     O_3   0.600975 0.667860 0.824668 -0.614602
O6    O     O_3   0.327554 0.953944 0.822389 -0.616215
O7    O     O_3   0.056517 0.399605 0.824944 -0.589698
O8    O     O_R   0.529460 0.669570 0.446010 -0.473768
O9    O     O_R   0.330430 0.859890 0.446010 -0.478919
O10   O     O_R   0.176710 0.690910 0.450560 -0.495967
O11   O     O_R   0.309090 0.485800 0.450560 -0.506700
O12   O     O_R   0.514200 0.823290 0.450560 -0.516354
O13   O     O_3   0.333333 0.666667 0.499990 -0.363886
O14   O     O_R   0.176750 0.985260 0.074180 -0.498442
O15   O     O_R   0.014740 0.191490 0.074180 -0.505534
O16   O     O_R   0.808510 0.823250 0.074180 -0.514371
O17   O     O_R   0.531800 0.668950 0.553200 -0.463137
O18   O     O_R   0.146100 0.172630 0.068980 -0.466332
O19   O     O_R   0.827370 0.973470 0.068980 -0.460561
O20   O     O_R   0.026530 0.853900 0.068980 -0.476689
O21   O     O_3   1.000000 1.000000 0.020040 -0.360958
O22   O     O_R   0.148270 0.170520 0.969620 -0.491363
O23   O     O_R   0.829480 0.977750 0.969620 -0.486374
O24   O     O_R   0.022250 0.851730 0.969620 -0.444270
O25   O     O_2   0.526005 0.971287 0.849977 -0.244837
O26   O     O_2   0.706077 0.033654 0.868523 -0.263565
O27   O     O_3   0.665445 0.090744 0.786416 -0.384170
O28   O     O_R   0.331050 0.862850 0.553200 -0.464969
O29   O     O_2   0.037133 0.578431 0.853122 -0.214069
O30   O     O_2   0.971219 0.694129 0.871070 -0.261072
O31   O     O_3   0.910810 0.588625 0.791334 -0.406827
O32   O     O_2   0.425701 0.474927 0.853675 -0.248223
O33   O     O_2   0.316201 0.290637 0.866856 -0.247552
O34   O     O_3   0.423220 0.347794 0.787801 -0.423324
O35   O     O_3   0.759885 0.725074 0.791197 -0.603342
O36   O     O_3   0.272645 0.051918 0.783667 -0.585179
O37   O     O_3   0.952238 0.240978 0.792203 -0.595158
O38   O     O_2   0.671369 0.070024 0.116428 -0.246165
O39   O     O_R   0.179100 0.982980 0.967000 -0.452409
O40   O     O_2   0.617261 0.918325 0.063088 -0.224217
O41   O     O_3   0.490738 0.904591 0.131956 -0.506402
O42   O     O_2   0.055849 0.593571 0.109472 -0.253358
O43   O     O_2   0.139473 0.737930 0.050960 -0.218516
O44   O     O_3   0.258186 0.700369 0.106452 -0.513729
O45   O     O_2   0.407864 0.376147 0.110838 -0.202791
O46   O     O_2   0.285802 0.391981 0.056274 -0.228251
O47   O     O_3   0.385665 0.538102 0.119531 -0.483967
O48   O     O_3   0.531823 0.987304 0.299746 -0.667143
O49   O     O_3   0.192801 0.586882 0.278574 -0.707854
O50   O     O_R   0.017020 0.196120 0.967000 -0.497653
O51   O     O_3   0.454616 0.534076 0.288649 -0.681664
O52   O     O_3   0.843529 0.712058 0.228197 -0.663945
O53   O     O_3   0.135614 0.076579 0.241551 -0.689069
O54   O     O_3   0.880400 0.109151 0.235175 -0.679815
O55   O     O_2   0.811056 0.628810 0.358151 -0.185674
O56   O     O_2   0.961566 0.750579 0.309086 -0.298537
O57   O     O_3   0.916555 0.823463 0.385458 -0.453022
O58   O     O_2   0.339007 0.124186 0.368938 -0.185133
O59   O     O_2   0.294158 0.208873 0.304483 -0.269072
O60   O     O_3   0.160507 0.118282 0.375244 -0.460917
O61   O     O_R   0.803880 0.820900 0.967000 -0.489453
O62   O     O_2   0.887032 0.294881 0.362935 -0.179273
O63   O     O_2   0.781556 0.180404 0.296741 -0.232430
O64   O     O_3   0.828004 0.097387 0.369240 -0.480668
O65   O     O_3   0.709782 0.718520 0.400839 -0.568652
O66   O     O_3   0.185907 0.946521 0.405773 -0.585040
O67   O     O_3   0.026719 0.256582 0.404096 -0.574295
O68   O     O_3   0.826706 0.876988 0.692648 -0.588393
O69   O     O_3   0.124667 0.952180 0.683526 -0.590140
O70   O     O_3   0.044516 0.176608 0.690308 -0.575570
O71   O     O_2   0.798530 0.112391 0.710333 -0.144939
O72   O     O_R   0.173970 0.688730 0.549930 -0.473984
O73   O     O_2   0.870090 0.055853 0.643134 -0.205955
O74   O     O_3   0.677583 0.001585 0.643607 -0.539720
O75   O     O_2   0.936054 0.813302 0.641313 -0.160897
O76   O     O_2   0.002794 0.696080 0.638933 -0.298776
O77   O     O_3   0.881351 0.671339 0.709515 -0.367300
O78   O     O_2   0.185350 0.132772 0.645777 -0.168950
O79   O     O_2   0.303968 0.316030 0.643209 -0.312594
O80   O     O_3   0.328371 0.219690 0.713309 -0.377289
O81   O     O_3   0.820226 0.033499 0.785128 -0.553728
O82   O     O_3   0.964424 0.797259 0.777574 -0.549449
O83   O     O_R   0.311270 0.485240 0.549930 -0.467974
O84   O     O_3   0.202522 0.180611 0.782562 -0.541234
O85   O     O_3   0.882933 0.923190 0.780784 -0.624807
O86   O     O_3   0.069662 0.970847 0.768494 -0.603482
O87   O     O_3   0.028857 0.116965 0.776342 -0.578449
O88   O     O_2   0.432383 0.622508 0.692690 -0.263898
O89   O     O_2   0.475943 0.528233 0.753504 -0.264068
O90   O     O_3   0.424361 0.659674 0.784968 -0.498589
O91   O     O_2   0.379815 0.820943 0.694670 -0.261878
O92   O     O_2   0.474432 0.964250 0.752920 -0.224279
O93   O     O_3   0.342071 0.782859 0.787277 -0.515081
O94   O     O_R   0.514760 0.826030 0.549930 -0.481520
O95   O     O_2   0.171079 0.568453 0.693174 -0.272006
O96   O     O_2   0.033495 0.520581 0.755572 -0.191514
O97   O     O_3   0.219014 0.574869 0.784953 -0.508803
O98   O     O_2   0.565338 0.563981 0.662045 -0.207562
O99   O     O_2   0.743738 0.696036 0.660890 -0.143773
O100  O     O_3   0.681031 0.555120 0.729980 -0.465053
O101  O     O_2   0.432780 0.005472 0.657706 -0.208250
O102  O     O_2   0.307611 0.061505 0.657695 -0.157005
O103  O     O_3   0.450440 0.134622 0.725056 -0.453277
O104  O     O_2   0.981567 0.434031 0.663842 -0.198431
S1    S     S_3+6 0.627848 0.993697 0.827646 0.076676
S2    S     S_3+6 0.780711 0.023808 0.678203 0.106426
S3    S     S_3+6 0.976387 0.758953 0.673286 0.114472
S4    S     S_3+6 0.240476 0.227005 0.677763 0.093188
S5    S     S_3+6 0.484890 0.630212 0.741001 0.019437
S6    S     S_3+6 0.371990 0.869864 0.741772 0.032532
S7    S     S_3+6 0.128009 0.514403 0.741600 0.056920
S8    S     S_3+6 0.655148 0.633303 0.695007 0.125518
S9    S     S_3+6 0.367528 0.031280 0.691036 0.127116
S10   S     S_3+6 0.964547 0.342709 0.694949 0.130503
S11   S     S_3+6 0.010256 0.654164 0.830342 0.080987
S12   S     S_3+6 0.353934 0.374325 0.828289 0.079621
S13   S     S_3+6 0.615969 0.952944 0.114844 0.052198
S14   S     S_3+6 0.145920 0.702173 0.101813 0.037375
S15   S     S_3+6 0.327612 0.409582 0.107717 0.049520
S16   S     S_3+6 0.870333 0.738395 0.338546 0.074048
S17   S     S_3+6 0.250939 0.116347 0.338448 0.080077
S18   S     S_3+6 0.866996 0.201923 0.332576 0.098195

loop_
_geom_bond_atom_site_label_1
_geom_bond_atom_site_label_2
_ccdc_geom_bond_type
C44   O65   S    
C25   C31   A    
C65   C92   S    
C89   S7    S    
C26   C32   A    
Cr1   O13   S    
C71   H5    S    
C56   O7    S    
C64   H1    S    
C18   C21   A    
C65   H12   S    
C81   O85   S    
C2    C84   T    
C34   O35   S    
C80   C90   S    
C16   C84   S    
Cr2   O8    S    
H52   O103  S    
C6    C9    T    
C13   C41   S    
C79   C82   S    
O96   S7    D    
C6    C88   S    
O46   S15   D    
C66   C90   S    
C29   C76   S    
Cr3   O9    S    
C27   C33   A    
C48   C54   A    
C46   C49   A    
C77   O68   S    
Cr6   O24   S    
Cr1   O10   S    
H43   O84   S    
C60   C63   A    
C17   C85   S    
Cr6   O21   S    
C32   C36   A    
C13   O16   A    
H49   O93   S    
H36   O69   S    
C35   O48   S    
C12   O1    A    
C47   C76   A    
C55   C59   A    
C16   O23   A    
C92   H45   S    
C30   C74   S    
C57   S18   S    
C91   S1    S    
O40   S13   D    
C4    C86   T    
H29   O60   S    
O42   S14   D    
O91   S6    D    
C12   O83   A    
H21   O48   S    
H46   O86   S    
C8    C23   S    
O47   S15   S    
O79   S4    D    
C20   C76   A    
H31   O65   S    
C19   H59   S    
O63   S18   D    
O78   S4    D    
C92   S11   S    
Cr4   O21   S    
C65   H9    S    
C14   O14   A    
C52   C69   A    
C4    C96   S    
O34   S12   S    
C43   C73   A    
O103  S9    S    
C40   C43   A    
C30   O8    A    
C91   H34   S    
C20   C24   A    
O104  S10   D    
Cr1   O1    S    
C26   C39   A    
Cr4   O14   S    
C89   S10   S    
C11   C43   S    
C45   C78   S    
C11   O15   A    
C78   S6    S    
C47   C50   A    
C36   O49   S    
C17   O24   A    
C64   C87   S    
C23   O17   A    
Cr5   O21   S    
O30   S11   D    
C41   C71   A    
C56   O37   S    
O98   S8    D    
C1    O28   A    
C61   C71   A    
C58   C61   A    
H13   O31   S    
C46   C75   A    
H39   O77   S    
C83   O87   S    
O33   S12   D    
C55   S17   S    
C29   O2    A    
C93   H56   S    
C25   C68   A    
H19   O44   S    
C80   O70   S    
C80   C83   S    
Cr5   O23   S    
C53   C70   A    
C39   S14   S    
H55   O6    S    
C37   O51   S    
C79   C88   S    
C14   O20   A    
H47   O87   S    
C28   O10   A    
Cr6   O61   S    
C39   C42   A    
O93   S6    S    
C48   C51   A    
Cr5   O50   S    
O31   S11   S    
O100  S8    S    
O74   S2    S    
C40   S15   S    
O102  S9    D    
C83   O84   S    
O77   S3    S    
O26   S1    D    
C62   C72   A    
C50   C53   A    
C72   H6    S    
C2    C94   S    
C19   C22   A    
C1    C9    S    
C11   O18   A    
C38   C41   A    
O89   S5    D    
Cr2   O11   S    
H35   O68   S    
C57   C60   A    
O99   S8    D    
C63   C73   A    
H54   O5    S    
C45   O36   S    
C49   C55   A    
C7    C90   S    
H44   O85   S    
C92   C95   S    
C33   C37   A    
C62   C69   A    
C67   C87   S    
H32   O66   S    
O76   S3    D    
C44   C74   A    
O59   S17   D    
C59   O53   S    
Cr3   O94   S    
O60   S17   S    
H24   O51   S    
H30   O64   S    
C25   C38   A    
C5    C8    T    
Cr4   O39   S    
C38   S13   S    
C28   O9    A    
C64   H8    S    
C54   S16   S    
C63   C70   A    
O25   S1    D    
C1    O72   A    
O38   S13   D    
C20   H60   S    
C15   O22   A    
C42   C72   A    
C24   C37   A    
H20   O47   S    
O44   S14   S    
O90   S5    S    
C79   S3    S    
H41   O81   S    
C17   O39   A    
H51   O100  S    
C79   O69   S    
C93   S12   S    
H37   O70   S    
C27   C70   A    
C10   C12   S    
Cr2   O83   S    
C15   C86   S    
C47   O67   S    
C58   O52   S    
C56   C89   S    
O32   S12   D    
C93   C96   S    
O101  S9    D    
C32   H3    S    
C66   C93   S    
H33   O67   S    
Cr6   O16   S    
C31   C35   A    
C3    C85   T    
H11   O27   S    
Cr6   O20   S    
C78   S9    S    
C34   O5    S    
Cr4   O18   S    
O80   S4    S    
C21   C51   A    
C5    C87   S    
H15   O35   S    
C65   C88   S    
C22   C52   A    
O88   S5    D    
C54   C58   A    
C78   C88   S    
O73   S2    D    
C56   C96   S    
C45   C95   S    
Cr1   O72   S    
C59   C62   A    
C82   C95   S    
H57   O7    S    
C27   C40   A    
C50   C57   A    
O95   S7    D    
C33   H4    S    
C34   C94   S    
C49   C52   A    
C29   O11   A    
C23   O94   A    
C34   C67   S    
Cr3   O28   S    
C3    C95   S    
C66   H23   S    
H25   O52   S    
H48   O90   S    
C21   C35   A    
H22   O49   S    
C82   O86   S    
O56   S16   D    
C22   C36   A    
C13   O19   A    
C77   S2    S    
C14   C42   S    
C82   O82   S    
Cr1   O2    S    
C7    C10   T    
C81   O81   S    
H27   O54   S    
C19   C75   A    
C24   C53   A    
C67   S5    S    
O45   S15   D    
H40   O80   S    
C31   H2    S    
O71   S2    D    
C81   C94   S    
O29   S11   D    
C61   C68   A    
O55   S16   D    
O62   S18   D    
Cr3   O12   S    
C67   S8    S    
C83   C96   S    
H42   O82   S    
O43   S14   D    
O92   S6    D    
O4    S10   S    
O97   S7    S    
O58   S17   D    
C80   S4    S    
C73   H7    S    
C15   O50   A    
O3    S10   D    
C60   O54   S    
H28   O57   S    
Cr4   O22   S    
Cr5   O19   S    
O64   S18   S    
C18   H58   S    
C45   O6    S    
H26   O53   S    
O41   S13   S    
H14   O34   S    
H50   O97   S    
H17   O37   S    
Cr3   O13   S    
C77   C87   S    
O57   S16   S    
C18   C74   A    
C77   C81   S    
C51   C68   A    
H38   O74   S    
H18   O41   S    
C46   O66   S    
O27   S1    S    
C16   O61   A    
O75   S3    D    
C26   C69   A    
H53   O4    S    
C64   C91   S    
C66   H10   S    
C89   C90   S    
C28   C75   S    
C30   O12   A    
Cr5   O15   S    
C44   C48   A    
Cr2   O17   S    
Cr2   O13   S    
C91   C94   S    
H16   O36   S    
