data_mof_unit_28182.cif
_audit_creation_date              2013-03-05T16:25:58-0500
_audit_creation_method            fapswitch 2.2
_symmetry_space_group_name_H-M    P1
_symmetry_Int_Tables_number       1
_space_group_crystal_system       triclinic
_cell_length_a                    18.232362
_cell_length_b                    18.266337
_cell_length_c                    18.423462
_cell_angle_alpha                 119.758191
_cell_angle_beta                  89.95361
_cell_angle_gamma                 119.865132
_cell_volume                      4364.9150443

loop_
_atom_site_label
_atom_site_type_symbol
_atom_site_description
_atom_site_fract_x
_atom_site_fract_y
_atom_site_fract_z
_atom_type_partial_charge
Zn1   Zn    Zn3+2 0.956630 0.413250 0.869870 0.974728
Zn2   Zn    Zn3+2 0.130130 0.586750 0.043370 0.999362
Zn3   Zn    Zn3+2 0.956630 0.413250 0.043380 0.986737
Zn4   Zn    Zn3+2 0.956610 0.586750 0.043370 0.962393
O1    O     O_3   0.000000 0.500000 0.000000 -0.490821
O2    O     O_R   0.055050 0.731580 0.115780 -0.618376
O3    O     O_R   0.884220 0.268410 0.823490 -0.643567
O4    O     O_R   0.176520 0.560720 0.944920 -0.601531
O5    O     O_R   0.884200 0.439290 0.115800 -0.651512
O6    O     O_R   0.176530 0.560720 0.115800 -0.657428
O7    O     O_R   0.884180 0.560710 0.944910 -0.671606
O8    O     O_R   0.055100 0.439290 0.115810 -0.640243
O9    O     O_R   0.884190 0.439280 0.823480 -0.633312
O10   O     O_R   0.055090 0.439280 0.823480 -0.652651
O11   O     O_R   0.884180 0.560710 0.115790 -0.635312
O12   O     O_R   0.176500 0.731590 0.115790 -0.661686
O13   O     O_R   0.884220 0.268420 0.944930 -0.636850
C1    C     C_R   0.140352 0.779942 0.143843 0.817714
C2    C     C_R   0.857884 0.220081 0.860823 0.865650
C3    C     C_R   0.140222 0.497151 0.860258 0.827702
C4    C     C_R   0.859677 0.499703 0.139630 0.787249
C5    C     C_R   0.140319 0.499192 0.139243 0.895876
C6    C     C_R   0.855129 0.496703 0.861045 0.812148
C7    C     C_R   0.811481 0.659365 0.926885 0.150335
C8    C     C_R   0.845936 0.759308 0.947945 0.145458
C9    C     C_R   0.850194 0.773279 0.879456 -0.204222
H1    H     H_    0.884333 0.850457 0.895534 0.169045
C10   C     C_R   0.807989 0.688908 0.790824 0.150950
C11   C     C_R   0.765275 0.588817 0.771781 0.010323
C12   C     C_R   0.789296 0.579528 0.837364 -0.036703
C13   C     C_R   0.787457 0.489999 0.808699 -0.172136
C14   C     C_R   0.727747 0.398289 0.724153 0.034993
C15   C     C_R   0.679353 0.401875 0.667941 0.293174
C16   C     C_R   0.699122 0.497704 0.691362 -0.215655
C17   C     C_R   0.793028 0.054865 0.719039 -0.022629
C18   C     C_R   0.795620 0.108195 0.806242 -0.071723
C19   C     C_R   0.733294 0.050812 0.834969 0.137414
C20   C     C_R   0.681646 0.942478 0.778766 -0.215501
H2    H     H_    0.638333 0.898203 0.802251 0.170564
C21   C     C_R   0.686536 0.891364 0.693417 -0.107095
C22   C     C_R   0.734582 0.949650 0.661114 -0.007980
C23   C     C_3   0.797446 0.944284 0.609430 0.080211
C24   C     C_3   0.865856 0.059933 0.679623 0.042379
H3    H     H_    0.814236 0.891307 0.603703 0.185167
H4    H     H_    0.888000 0.110290 0.655691 0.154064
C25   C     C_R   0.806661 0.584947 0.253758 0.011672
C26   C     C_R   0.799642 0.495796 0.190912 -0.056468
C27   C     C_R   0.729759 0.401351 0.173816 -0.232400
H5    H     H_    0.720771 0.330930 0.121052 0.150500
C28   C     C_R   0.672276 0.397490 0.225131 0.151491
C29   C     C_R   0.687739 0.491694 0.295979 -0.018674
C30   C     C_R   0.751960 0.582677 0.305214 -0.040160
C31   C     C_3   0.825005 0.686293 0.384965 0.136089
C32   C     C_3   0.885839 0.689631 0.327333 -0.142216
H6    H     H_    0.811335 0.744936 0.405054 0.178220
H7    H     H_    0.901265 0.747214 0.313118 0.233200
C33   C     C_R   0.162160 0.947843 0.225288 -0.030441
C34   C     C_R   0.197594 0.891240 0.207981 -0.061303
C35   C     C_R   0.291002 0.948354 0.253738 0.146209
C36   C     C_R   0.343600 0.056725 0.302770 -0.197177
H8    H     H_    0.414751 0.099595 0.334928 0.202177
C37   C     C_R   0.305130 0.109591 0.311523 -0.077664
C38   C     C_R   0.213170 0.051720 0.274585 -0.024386
C39   C     C_3   0.135479 0.056973 0.260460 0.412538
C40   C     C_3   0.076566 0.937409 0.205577 0.002880
H9    H     H_    0.044398 0.895872 0.133771 0.105736
C41   C     C_R   0.289462 0.572184 0.230540 -0.058786
C42   C     C_R   0.196205 0.504892 0.200746 -0.084283
C43   C     C_R   0.156853 0.455995 0.243172 -0.261549
H10   H     H_    0.084923 0.411959 0.228387 0.205435
C44   C     C_R   0.209625 0.462814 0.304776 0.311202
C45   C     C_R   0.303830 0.518282 0.322556 -0.178384
C46   C     C_R   0.341722 0.584462 0.295083 -0.011293
C47   C     C_3   0.422647 0.620411 0.267258 -0.096148
C48   C     C_3   0.359722 0.589354 0.185196 0.350682
H11   H     H_    0.450320 0.574253 0.252247 0.213392
C49   C     C_R   0.281771 0.578676 0.833109 0.100693
C50   C     C_R   0.197153 0.489882 0.805132 -0.143176
C51   C     C_R   0.171161 0.396432 0.723502 0.129152
C52   C     C_R   0.223488 0.401849 0.667467 -0.181229
H12   H     H_    0.201821 0.333309 0.602641 0.209823
C53   C     C_R   0.303998 0.494853 0.694854 -0.089129
C54   C     C_R   0.334761 0.580183 0.780220 0.039544
C55   C     C_3   0.375490 0.689609 0.813779 -0.502699
C56   C     C_3   0.317355 0.689805 0.873904 0.410562
H13   H     H_    0.448486 0.738441 0.849597 0.220835
H14   H     H_    0.359059 0.698008 0.761616 0.182659
Zn5   Zn    Zn3+2 0.543330 0.586660 0.630080 0.977341
Zn6   Zn    Zn3+2 0.543320 0.586660 0.456570 0.969549
Zn7   Zn    Zn3+2 0.369830 0.413160 0.456580 1.097878
Zn8   Zn    Zn3+2 0.543350 0.413170 0.456590 1.040674
O14   O     O_3   0.499960 0.499910 0.499960 -0.518915
O15   O     O_R   0.615770 0.439200 0.384160 -0.633837
O16   O     O_R   0.444870 0.560630 0.676470 -0.640781
O17   O     O_R   0.615730 0.731500 0.555020 -0.642584
O18   O     O_R   0.323450 0.268330 0.384170 -0.593146
O19   O     O_R   0.444860 0.560620 0.384150 -0.678317
O20   O     O_R   0.615780 0.439200 0.555040 -0.581628
O21   O     O_R   0.323420 0.439190 0.384160 -0.565609
O22   O     O_R   0.615760 0.560630 0.676470 -0.646656
O23   O     O_R   0.615740 0.731500 0.676460 -0.649290
O24   O     O_R   0.444900 0.268330 0.384170 -0.643820
O25   O     O_R   0.615750 0.560630 0.384150 -0.639144
O26   O     O_R   0.323430 0.439200 0.555040 -0.600213
C57   C     C_R   0.638216 0.497877 0.358119 0.855249
C58   C     C_R   0.359714 0.499824 0.639380 0.824460
C59   C     C_R   0.639058 0.779914 0.639349 0.813909
C60   C     C_R   0.360057 0.220167 0.360778 0.852251
C61   C     C_R   0.359729 0.504291 0.364261 0.840553
C62   C     C_R   0.640858 0.499612 0.638869 0.857963
C63   C     C_3   0.706246 0.294648 0.697863 -0.378222
C64   C     C_3   0.751488 0.258100 0.632077 -0.687258
H15   H     H_    0.824505 0.317831 0.657135 0.268769
H16   H     H_    0.740935 0.187627 0.621322 0.249495
H17   H     H_    0.722557 0.239278 0.567482 0.280467
H18   H     H_    0.725721 0.297222 0.756562 0.192086
H19   H     H_    0.632765 0.235669 0.668229 0.231205
N1    N     N_R   0.764752 0.922786 0.523857 0.214498
O27   O     O_R   0.751698 0.984543 0.519318 -0.412582
O28   O     O_R   0.746415 0.839901 0.451021 -0.409562
N2    N     N_R   0.940628 0.083990 0.738413 0.196385
O29   O     O_R   0.994481 0.176749 0.809431 -0.393402
O30   O     O_R   0.961404 0.018623 0.715054 -0.366954
C65   C     C_3   0.597395 0.292947 0.202762 -0.406486
C66   C     C_3   0.505341 0.265368 0.167031 -0.795961
H20   H     H_    0.452829 0.186702 0.147904 0.259403
H21   H     H_    0.492102 0.319595 0.217647 0.238588
H22   H     H_    0.500778 0.266814 0.107685 0.266313
H23   H     H_    0.603598 0.231754 0.151174 0.208781
H24   H     H_    0.601842 0.289825 0.261055 0.248122
N3    N     N_R   0.849985 0.683818 0.458980 0.209954
O31   O     O_R   0.850230 0.607084 0.446033 -0.419627
O32   O     O_R   0.863182 0.754645 0.538621 -0.419547
C67   C     C_3   0.969049 0.693163 0.351921 -0.323758
C68   C     C_3   0.041925 0.797128 0.435685 -0.712384
H25   H     H_    0.059286 0.860644 0.429245 0.289087
H26   H     H_    0.020117 0.810021 0.494524 0.292903
H27   H     H_    0.102944 0.799044 0.446442 0.228689
H28   H     H_    0.951669 0.630342 0.359381 0.249732
H29   H     H_    0.997463 0.681538 0.296961 0.199100
C69   C     C_3   0.338799 0.900866 0.255080 -0.471801
C70   C     C_3   0.388429 0.893895 0.188115 -0.637421
H30   H     H_    0.423318 0.859010 0.188935 0.250972
H31   H     H_    0.340221 0.846268 0.121107 0.304540
H32   H     H_    0.439229 0.971734 0.204454 0.249661
H33   H     H_    0.388293 0.949790 0.321983 0.217677
H34   H     H_    0.293325 0.824902 0.243948 0.226758
C71   C     C_3   0.779609 0.631747 0.991905 -0.346859
C72   C     C_3   0.703947 0.643718 0.015127 -0.829961
H35   H     H_    0.729713 0.725423 0.063121 0.275035
H36   H     H_    0.653025 0.609872 0.954554 0.267688
H37   H     H_    0.670842 0.602962 0.046569 0.262245
H38   H     H_    0.750567 0.549375 0.962029 0.218880
H39   H     H_    0.836159 0.677918 0.052957 0.240875
N4    N     N_R   0.116470 0.107231 0.341946 0.253791
O33   O     O_R   0.046721 0.109930 0.337454 -0.276543
O34   O     O_R   0.167040 0.147024 0.418773 -0.386009
N5    N     N_R   0.141969 0.098150 0.207778 0.174152
O35   O     O_R   0.153693 0.057698 0.131426 -0.429604
O36   O     O_R   0.144099 0.180979 0.240040 -0.277320
N6    N     N_R   0.015966 0.895535 0.247648 0.244186
O37   O     O_R   0.941391 0.888574 0.242631 -0.373182
O38   O     O_R   0.035084 0.863724 0.289300 -0.408508
N7    N     N_R   0.166634 0.414920 0.348951 0.244438
O39   O     O_R   0.197636 0.467155 0.434710 -0.376923
O40   O     O_R   0.087606 0.328335 0.306725 -0.311369
C73   C     C_3   0.493080 0.737926 0.336211 -0.440979
C74   C     C_3   0.536328 0.765017 0.424286 -0.628324
H40   H     H_    0.485343 0.740321 0.455298 0.231407
H41   H     H_    0.572940 0.729065 0.414553 0.311428
H42   H     H_    0.584152 0.849643 0.470376 0.265138
H43   H     H_    0.547185 0.767550 0.309969 0.246639
H44   H     H_    0.461993 0.780679 0.351371 0.213669
C75   C     C_3   0.386571 0.671852 0.166784 -0.419457
C76   C     C_3   0.464500 0.691451 0.129603 -0.693528
H45   H     H_    0.517663 0.696646 0.165193 0.239810
H46   H     H_    0.439963 0.627746 0.058705 0.293407
H47   H     H_    0.494524 0.764508 0.135024 0.263085
H48   H     H_    0.329352 0.645075 0.116654 0.282448
H49   H     H_    0.402983 0.744845 0.226448 0.172898
C77   C     C_3   0.883344 0.853745 0.041539 -0.401133
C78   C     C_3   0.832284 0.902991 0.056040 -0.753508
H50   H     H_    0.845481 0.938929 0.019241 0.250238
H51   H     H_    0.759121 0.845037 0.033641 0.251578
H52   H     H_    0.854904 0.964043 0.127528 0.287077
H53   H     H_    0.882534 0.835940 0.090706 0.248130
H54   H     H_    0.954486 0.911341 0.054924 0.238872
N8    N     N_R   0.334382 0.491329 0.104381 0.224520
O41   O     O_R   0.391277 0.466706 0.090068 -0.394534
O42   O     O_R   0.261280 0.437464 0.039840 -0.364308
C79   C     C_3   0.089959 0.290699 0.692645 -0.406613
C80   C     C_3   0.116115 0.217760 0.677454 -0.687548
H55   H     H_    0.149316 0.206407 0.626223 0.256156
H56   H     H_    0.161617 0.248426 0.740196 0.282219
H57   H     H_    0.055164 0.141208 0.653834 0.278586
H58   H     H_    0.053826 0.292924 0.740974 0.254177
H59   H     H_    0.042493 0.257511 0.629943 0.231066
N9    N     N_R   0.373099 0.757061 0.966809 0.195239
O43   O     O_R   0.426983 0.855927 0.005071 -0.432702
O44   O     O_R   0.374545 0.718595 0.009779 -0.432356
C81   C     C_3   0.248144 0.711665 0.860551 -0.438600
C82   C     C_3   0.186484 0.646293 0.765296 -0.858676
H60   H     H_    0.224512 0.664063 0.722761 0.268239
H61   H     H_    0.149317 0.562906 0.735775 0.267349
H62   H     H_    0.136561 0.664315 0.765690 0.261721
H63   H     H_    0.205734 0.700321 0.902440 0.201127
H64   H     H_    0.284763 0.793922 0.885080 0.241981
C83   C     C_3   0.824765 0.709766 0.720095 -0.396083
C84   C     C_3   0.880176 0.672518 0.672882 -0.730268
H65   H     H_    0.941836 0.705057 0.721841 0.246720
H66   H     H_    0.840737 0.587218 0.632324 0.256160
H67   H     H_    0.900318 0.698125 0.628610 0.313571
H68   H     H_    0.762217 0.674517 0.671215 0.211833
H69   H     H_    0.862768 0.793700 0.750220 0.229108
N10   N     N_R   0.608007 0.307938 0.588849 0.205014
O45   O     O_R   0.526865 0.261866 0.591002 -0.414142
O46   O     O_R   0.622503 0.273896 0.513439 -0.382172
C85   C     C_3   0.719274 0.099685 0.923239 -0.424391
C86   C     C_3   0.773930 0.106951 0.992289 -0.721916
H70   H     H_    0.846326 0.152351 0.001204 0.284236
H71   H     H_    0.763915 0.145217 0.056684 0.242312
H72   H     H_    0.751911 0.028792 0.971635 0.243665
H73   H     H_    0.735048 0.176527 0.947326 0.206221
H74   H     H_    0.647252 0.052419 0.915295 0.202849

loop_
_geom_bond_atom_site_label_1
_geom_bond_atom_site_label_2
_geom_bond_distance
_ccdc_geom_bond_type
O23   C59   1.286701 A    
C68   H27   1.110351 S    
O22   C62   1.293270 A    
C83   H68   1.104919 S    
O20   C62   1.272343 A    
C14   C63   1.524201 S    
C25   C30   1.375278 A    
Zn6   O17   1.947854 S    
N4    O34   1.302012 A    
C22   C23   1.499145 S    
C17   C18   1.390318 A    
C67   H28   1.109245 S    
C55   H14   1.108822 S    
C64   H16   1.110671 S    
Zn5   O23   1.936969 S    
C77   H54   1.110854 S    
C85   H73   1.108896 S    
C76   H46   1.110866 S    
C49   C50   1.398519 A    
O6    C5    1.275921 A    
C39   N4    1.471255 S    
C79   H59   1.111238 S    
C9    H1    1.083727 S    
O4    C3    1.287479 A    
C82   H61   1.106948 S    
Zn1   O1    1.966714 S    
N8    O42   1.301369 A    
N7    O39   1.301552 A    
C19   C20   1.409445 A    
C55   H13   1.112285 S    
C64   H17   1.107655 S    
C2    C18   1.458731 S    
N10   O46   1.300848 A    
C67   H29   1.110854 S    
C12   C13   1.429191 A    
C52   H12   1.083412 S    
C37   C60   1.439981 S    
C49   C54   1.371937 A    
C78   H51   1.109596 S    
C32   C67   1.544548 S    
O8    C5    1.279360 A    
C84   H67   1.107289 S    
O9    C6    1.300850 A    
C36   C37   1.403656 A    
C46   C47   1.496321 S    
O7    C6    1.275198 A    
C43   C44   1.404087 A    
N1    O27   1.302774 A    
C47   C73   1.555969 S    
Zn3   O8    1.937387 S    
O15   C57   1.272687 A    
C75   C76   1.533428 S    
C1    C34   1.456989 S    
C74   H42   1.107562 S    
O16   C58   1.281416 A    
C63   C64   1.529279 S    
C42   C43   1.406207 A    
C71   H39   1.110700 S    
C82   H62   1.110400 S    
C86   H70   1.109936 S    
C66   H22   1.110902 S    
C81   H63   1.111143 S    
O24   C60   1.273558 A    
N9    O43   1.301505 A    
C41   C46   1.377102 A    
C17   C24   1.497251 S    
C24   N2    1.469039 S    
C56   C81   1.553109 S    
C73   H44   1.110497 S    
C74   H41   1.108364 S    
C66   H20   1.110573 S    
O18   C60   1.270083 A    
C49   C56   1.510318 S    
C35   C36   1.410651 A    
C51   C79   1.519517 S    
Zn6   O25   1.934651 S    
C48   C75   1.548564 S    
N5    O36   1.301052 A    
N7    O40   1.301378 A    
C70   H32   1.110912 S    
C23   H3    1.111253 S    
C19   C85   1.514053 S    
C23   N1    1.465914 S    
O26   C58   1.281526 A    
C64   H15   1.109163 S    
N6    O38   1.301059 A    
C8    C77   1.513808 S    
C28   C29   1.425493 A    
C76   H47   1.109376 S    
N1    O28   1.297890 A    
C31   H6    1.103956 S    
C15   N10   1.434497 S    
O2    C1    1.283010 A    
C32   H7    1.110303 S    
C82   H60   1.108001 S    
C38   C39   1.498039 S    
C41   C42   1.397680 A    
C80   H57   1.108496 S    
Zn5   O14   1.966563 S    
C68   H25   1.109589 S    
C28   C65   1.517770 S    
C55   C56   1.532468 S    
C52   C53   1.400761 A    
C47   C48   1.557896 S    
C72   H37   1.110906 S    
C73   C74   1.521841 S    
C50   C51   1.430837 A    
C83   C84   1.528347 S    
N3    O32   1.300276 A    
C34   C35   1.435006 A    
C31   C32   1.535024 S    
C11   C16   1.405599 A    
C29   C30   1.394135 A    
Zn6   O19   1.937136 S    
N8    O41   1.301676 A    
Zn4   O7    1.944850 S    
C78   H52   1.110484 S    
C6    C13   1.483756 S    
C77   C78   1.530456 S    
N10   O45   1.300604 A    
C11   C12   1.399595 A    
Zn3   O5    1.934697 S    
O10   C3    1.281541 A    
C44   N7    1.436995 S    
Zn8   O15   1.936980 S    
O19   C61   1.279925 A    
Zn7   O14   1.944346 S    
C54   C55   1.491527 S    
O11   C4    1.274391 A    
C29   C57   1.452639 S    
Zn7   O26   1.942731 S    
C25   C32   1.502946 S    
C37   C38   1.383581 A    
C84   H65   1.111175 S    
C81   H64   1.111279 S    
C65   H24   1.108475 S    
O25   C57   1.278010 A    
O12   C1    1.267914 A    
C25   C26   1.389193 A    
C7    C8    1.425849 A    
Zn6   O14   1.945199 S    
C85   H74   1.112182 S    
C24   H4    1.111720 S    
C5    C42   1.453286 S    
N2    O29   1.300526 A    
Zn5   O22   1.931576 S    
O17   C59   1.280354 A    
C69   H33   1.112398 S    
C21   C59   1.455781 S    
C31   N3    1.466847 S    
Zn4   O2    1.942009 S    
C74   H40   1.109692 S    
C53   C54   1.383795 A    
O3    C2    1.289591 A    
C7    C71   1.527725 S    
N5    O35   1.302075 A    
C10   C83   1.520806 S    
C70   H31   1.107932 S    
Zn2   O1    1.944343 S    
C41   C48   1.515056 S    
C71   H38   1.110018 S    
C47   H11   1.110798 S    
Zn8   O24   1.942158 S    
C39   N5    1.468899 S    
N3    O31   1.302252 A    
Zn2   O6    1.937700 S    
C75   H49   1.106284 S    
Zn7   O21   1.937650 S    
Zn8   O14   1.940426 S    
Zn2   O12   1.940282 S    
C30   C31   1.498985 S    
C79   C80   1.530786 S    
C68   H26   1.108063 S    
C45   C61   1.466287 S    
C10   C11   1.420539 A    
C83   H69   1.112050 S    
C48   N8    1.472134 S    
C26   C27   1.403899 A    
Zn1   O3    1.936969 S    
C13   C14   1.419125 A    
Zn2   O4    1.942476 S    
C79   H58   1.103721 S    
C33   C38   1.350310 A    
C33   C40   1.496532 S    
C45   C46   1.403519 A    
Zn3   O1    1.945050 S    
N9    O44   1.300679 A    
C77   H53   1.101890 S    
Zn7   O18   1.940090 S    
C73   H43   1.107683 S    
C67   C68   1.527912 S    
C9    C10   1.398746 A    
C81   C82   1.534755 S    
C3    C50   1.458842 S    
C63   H19   1.110611 S    
C63   H18   1.109651 S    
C80   H55   1.109090 S    
Zn4   O11   1.936976 S    
C72   H36   1.111170 S    
C8    C9    1.401099 A    
C44   C45   1.422067 A    
C76   H45   1.107294 S    
N6    O37   1.299914 A    
C69   C70   1.521214 S    
C14   C15   1.407728 A    
C86   H72   1.111023 S    
C20   C21   1.406241 A    
O5    C4    1.273006 A    
C85   C86   1.527000 S    
C20   H2    1.084274 S    
C27   H5    1.084215 S    
C39   C40   1.555402 S    
C27   C28   1.410021 A    
O13   C2    1.277509 A    
C15   C16   1.415019 A    
C65   H23   1.112051 S    
Zn3   O13   1.947753 S    
C71   C72   1.529857 S    
C53   C58   1.443345 S    
Zn8   O20   1.944804 S    
C43   H10   1.083324 S    
C17   C22   1.376325 A    
C7    C12   1.427063 A    
N2    O30   1.301710 A    
C69   H34   1.107653 S    
C51   C52   1.411215 A    
C56   N9    1.464172 S    
Zn4   O1    1.940575 S    
Zn1   O9    1.931724 S    
C35   C69   1.512165 S    
C18   C19   1.426027 A    
C40   H9    1.109715 S    
C23   C24   1.535356 S    
C40   N6    1.466992 S    
N4    O33   1.301199 A    
C66   H21   1.108985 S    
Zn5   O16   1.931311 S    
C84   H66   1.110142 S    
C70   H30   1.106434 S    
C36   H8    1.084471 S    
C21   C22   1.397979 A    
Zn1   O10   1.931310 S    
C16   C62   1.461836 S    
C33   C34   1.387686 A    
C72   H35   1.105609 S    
C75   H48   1.107038 S    
C86   H71   1.110395 S    
C78   H50   1.110268 S    
C80   H56   1.110922 S    
C65   C66   1.527927 S    
C4    C26   1.443360 S    
O21   C61   1.278716 A    
