data_mof_unit_16442.cif
_audit_creation_date              2012-12-10T19:42:13-0500
_audit_creation_method            fapswitch 2.2
_symmetry_space_group_name_H-M    P1
_symmetry_Int_Tables_number       1
_space_group_crystal_system       triclinic
_cell_length_a                    10.85042
_cell_length_b                    10.924044
_cell_length_c                    9.66976
_cell_angle_alpha                 90.013898
_cell_angle_beta                  89.96076
_cell_angle_gamma                 89.947018
_cell_volume                      1146.16036133

loop_
_atom_site_label
_atom_site_type_symbol
_atom_type_description
_atom_site_fract_x
_atom_site_fract_y
_atom_site_fract_z
_atom_type_partial_charge
C1    C     C_R   0.506301 0.265496 0.500063 0.843716
C2    C     C_R   0.248170 0.252758 0.053642 -0.180802
C3    C     C_R   0.935354 0.430222 0.394499 0.258812
C4    C     C_R   0.872129 0.493097 0.501059 -0.137477
C5    C     C_R   0.938654 0.548840 0.610317 -0.035031
C6    C     C_R   0.066129 0.545797 0.608282 -0.206094
C7    C     C_R   0.128997 0.491462 0.498505 -0.087550
C8    C     C_R   0.064165 0.432649 0.390734 0.036082
C9    C     C_R   0.814632 0.720083 0.713242 -0.086091
C10   C     C_R   0.751904 0.772077 0.825267 -0.078750
C11   C     C_R   0.753043 0.714348 0.954208 -0.113574
C12   C     C_R   0.262500 0.496743 0.499655 0.837545
C13   C     C_R   0.817378 0.604663 0.971677 -0.070506
C14   C     C_R   0.880345 0.552240 0.860168 -0.087407
C15   C     C_R   0.878512 0.609178 0.729927 0.110120
C16   C     C_2   0.512846 0.933415 0.389600 -0.107698
C17   C     C_2   0.485719 0.866406 0.501063 -0.253060
C18   C     C_2   0.499193 0.066300 0.392264 -0.174775
C19   C     C_2   0.531058 0.135302 0.501550 0.145102
C20   C     C_2   0.557815 0.420400 0.922093 -0.053946
C21   C     C_2   0.549807 0.415043 0.077538 -0.054686
C22   C     C_R   0.497106 0.734693 0.500014 0.836410
C23   C     C_R   0.737866 0.497336 0.500154 0.841620
C24   C     C_R   0.212114 0.374868 0.040870 -0.159595
C25   C     C_R   0.153138 0.434301 0.150681 0.277075
C26   C     C_R   0.129447 0.370586 0.274969 0.043984
C27   C     C_R   0.167551 0.247585 0.287579 0.268512
C28   C     C_R   0.225962 0.189370 0.176480 -0.151926
Cu1   Cu    Cu3+1 0.500020 0.500020 0.638630 0.980158
Cu2   Cu    Cu3+1 0.499980 0.499980 0.361370 0.985884
H1    H     H_    0.293987 0.207346 0.968385 0.177996
H2    H     H_    0.703806 0.754414 0.040486 0.138577
H3    H     H_    0.928645 0.466349 0.874586 0.161209
H4    H     H_    0.537656 0.890262 0.292234 0.166005
H5    H     H_    0.452321 0.908858 0.595435 0.192330
H6    H     H_    0.459365 0.108406 0.300952 0.144909
H7    H     H_    0.615777 0.353320 0.870884 0.192376
H8    H     H_    0.592501 0.337496 0.128381 0.197995
H9    H     H_    0.464831 0.575792 0.105818 0.207663
H10   H     H_    0.116699 0.589532 0.691511 0.175488
H11   H     H_    0.811659 0.764745 0.613296 0.142892
N1    N     N_2   0.498640 0.498660 0.846910 -0.289757
N2    N     N_2   0.498610 0.498630 0.153040 -0.282814
O1    O     O_R   0.500020 0.321960 0.617040 -0.551179
O2    O     O_R   0.499980 0.321920 0.382900 -0.592652
O3    O     O_R   0.319660 0.500030 0.617070 -0.586460
O4    O     O_R   0.319620 0.499990 0.382930 -0.561888
O5    O     O_R   0.500020 0.678080 0.617100 -0.577843
O6    O     O_R   0.499980 0.678040 0.382960 -0.577732
O7    O     O_R   0.680380 0.500010 0.617070 -0.572231
O8    O     O_R   0.680340 0.499970 0.382930 -0.548270
H12   H     H_    0.817829 0.559956 0.071495 0.189291
Br1   Br    Br    0.630637 0.077343 0.653677 -0.541446
H13   H     H_    0.437276 0.556827 0.894023 0.201360
H14   H     H_    0.230748 0.423615 0.945666 0.166464
Br2   Br    Br    0.112142 0.604117 0.129821 -0.549174
Br3   Br    Br    0.141612 0.156335 0.454539 -0.491439
H15   H     H_    0.254259 0.094663 0.185294 0.171024
Br4   Br    Br    0.849781 0.329295 0.260210 -0.512598
H16   H     H_    0.701479 0.856570 0.812112 0.183852

loop_
_geom_bond_atom_site_label_1
_geom_bond_atom_site_label_2
_ccdc_geom_bond_type
C20   N1    D    
Cu2   O8    S    
Cu1   Cu2   S    
C28   H15   S    
Cu1   N1    S    
C13   H12   S    
C8    C26   S    
C9    C10   A    
Cu2   O2    S    
C22   O5    A    
C17   C22   S    
C25   Br2   S    
Cu1   O3    S    
C19   Br1   S    
C14   H3    S    
C9    C15   A    
C7    C8    A    
C21   N2    D    
C13   C14   A    
C24   C25   A    
C24   H14   S    
C20   H7    S    
C11   C13   A    
C1    O2    A    
C26   C27   A    
C6    C7    A    
C18   H6    S    
C12   O4    A    
C5    C6    A    
C16   C18   S    
Cu2   O6    S    
C11   H2    S    
C3    C8    A    
Cu1   O7    S    
C22   O6    A    
Cu1   O1    S    
C2    C24   A    
C7    C12   S    
C6    H10   S    
Cu2   N2    S    
C5    C15   S    
C2    C28   A    
C10   C11   A    
C21   H8    S    
Cu1   O5    S    
C3    C4    A    
Cu2   O4    S    
C17   H5    S    
C20   C21   S    
C12   O3    A    
C18   C19   D    
C27   Br3   S    
C27   C28   A    
C4    C23   S    
C10   H16   S    
C2    H1    S    
C23   O7    A    
H9    N2    S    
C1    O1    A    
C16   H4    S    
C25   C26   A    
C14   C15   A    
C1    C19   S    
C9    H11   S    
N1    H13   S    
C23   O8    A    
C16   C17   D    
C4    C5    A    
C3    Br4   S    
