data_mof_unit_63854.cif
_audit_creation_date              2012-12-10T18:34:34-0500
_audit_creation_method            fapswitch 2.2
_symmetry_space_group_name_H-M    P1
_symmetry_Int_Tables_number       1
_space_group_crystal_system       triclinic
_cell_length_a                    15.107166
_cell_length_b                    15.503126
_cell_length_c                    15.735169
_cell_angle_alpha                 90.606073
_cell_angle_beta                  105.264051
_cell_angle_gamma                 81.560203
_cell_volume                      3515.27721745

loop_
_atom_site_label
_atom_site_type_symbol
_atom_type_description
_atom_site_fract_x
_atom_site_fract_y
_atom_site_fract_z
_atom_type_partial_charge
C1    C     C_R   0.441414 0.661748 0.487249 0.927988
C2    C     C_R   0.555844 0.100539 0.513482 0.041042
C3    C     C_R   0.358007 0.932208 0.503304 -0.066922
C4    C     C_R   0.641993 0.067792 0.496696 -0.066922
C5    C     C_R   0.512685 0.954609 0.495567 -0.110826
C6    C     C_R   0.487315 0.045391 0.504434 -0.110826
C7    C     C_R   0.393231 0.078157 0.498830 0.683740
C8    C     C_R   0.606769 0.921843 0.501170 0.683740
C9    C     C_R   0.331760 0.021844 0.505511 -0.223093
C10   C     C_R   0.668240 0.978156 0.494489 -0.223093
C11   C     C_R   0.840259 0.645146 0.620431 -0.271566
C12   C     C_R   0.558586 0.338252 0.512751 0.927987
C13   C     C_R   0.159740 0.354854 0.379568 -0.271568
C14   C     C_R   0.755038 0.617261 0.607255 0.281516
C15   C     C_R   0.244962 0.382739 0.392745 0.281517
C16   C     C_R   0.501655 0.500361 0.662028 0.888798
C17   C     C_R   0.498345 0.499639 0.337972 0.888798
C18   C     C_R   0.792925 0.510235 0.507949 0.684842
C19   C     C_R   0.207075 0.489765 0.492050 0.684843
C20   C     C_R   0.884840 0.530470 0.526323 -0.139998
C21   C     C_R   0.115160 0.469530 0.473676 -0.139998
C22   C     C_R   0.904522 0.603491 0.579004 0.043269
C23   C     C_R   0.297926 0.874779 0.513637 -0.231089
C24   C     C_R   0.095478 0.396510 0.420995 0.043268
C25   C     C_R   0.956820 0.483566 0.493579 0.095014
C26   C     C_R   0.043180 0.516435 0.506420 0.095014
C27   C     C_R   0.053303 0.596200 0.549049 -0.111845
C28   C     C_R   0.946696 0.403801 0.450949 -0.111845
C29   C     C_R   0.987133 0.636424 0.588283 -0.138698
C30   C     C_R   0.012866 0.363577 0.411715 -0.138698
C31   C     C_3   0.480339 0.582398 0.024146 0.097095
C32   C     C_3   0.519661 0.417602 0.975854 0.097094
C33   C     C_3   0.566937 0.546392 0.992102 -0.370604
C34   C     C_R   0.702073 0.125221 0.486363 -0.231088
C35   C     C_3   0.433062 0.453608 0.007898 -0.370604
C36   C     C_1   0.505066 0.501169 0.751873 -0.078622
C37   C     C_1   0.494934 0.498831 0.248127 -0.078621
C38   C     C_3   0.418679 0.536365 0.949263 0.700117
C39   C     C_3   0.581321 0.463635 0.050737 0.700117
C40   C     C_3   0.504084 0.500423 0.917949 -0.133144
C41   C     C_3   0.495915 0.499577 0.082050 -0.133145
C42   C     C_1   0.505776 0.501227 0.827401 0.126641
C43   C     C_1   0.494224 0.498772 0.172599 0.126641
C44   C     C_R   0.404980 0.754266 0.482955 -0.287409
C45   C     C_R   0.324353 0.785278 0.509292 0.634791
C46   C     C_R   0.595020 0.245734 0.517045 -0.287410
C47   C     C_R   0.675647 0.214722 0.490708 0.634791
C48   C     C_R   0.457045 0.812994 0.459966 0.180963
C49   C     C_R   0.542955 0.187006 0.540034 0.180963
C50   C     C_R   0.444156 0.899461 0.486518 0.041042
F1    F     F_    0.239857 0.545686 0.555042 -0.611181
F2    F     F_    0.760142 0.454315 0.444956 -0.611181
F3    F     F_    0.665252 0.425638 0.105393 -0.600641
F4    F     F_    0.334748 0.574362 0.894607 -0.600641
F5    F     F_    0.729011 0.270285 0.470238 -0.612270
F6    F     F_    0.270989 0.729714 0.529762 -0.612269
F7    F     F_    0.358596 0.163873 0.482250 -0.644522
F8    F     F_    0.641404 0.836127 0.517750 -0.644522
H1    H     H_    0.622073 0.583479 0.984603 0.217107
H2    H     H_    0.766987 0.101178 0.471008 0.182254
H3    H     H_    0.999602 0.695547 0.624067 0.168856
H4    H     H_    0.000397 0.304455 0.375930 0.168856
H5    H     H_    0.377927 0.416521 0.015397 0.217107
H6    H     H_    0.856257 0.699203 0.663223 0.191513
H7    H     H_    0.143743 0.300798 0.336776 0.191513
H8    H     H_    0.110601 0.630774 0.551927 0.247064
H9    H     H_    0.889398 0.369227 0.448071 0.247064
H10   H     H_    0.262206 0.048504 0.508470 0.179852
H11   H     H_    0.737793 0.951496 0.491531 0.179852
H12   H     H_    0.233013 0.898822 0.528992 0.182254
I1    I     I_    0.332727 0.317726 0.319441 -0.200853
I2    I     I_    0.667273 0.682274 0.680559 -0.200852
I3    I     I_    0.447195 0.712990 0.062943 -0.168505
I4    I     I_    0.552805 0.287009 0.937057 -0.168505
I5    I     I_    0.480477 0.221169 0.646343 -0.205639
I6    I     I_    0.519523 0.778831 0.353657 -0.205639
N1    N     N_R   0.731710 0.552730 0.549140 -0.175788
N2    N     N_R   0.268290 0.447270 0.450860 -0.175788
O1    O     O_R   0.383110 0.605620 0.475230 -0.540013
O2    O     O_R   0.616890 0.394380 0.524770 -0.540014
O3    O     O_R   0.531900 0.639510 0.506760 -0.577773
O4    O     O_R   0.468100 0.360490 0.493240 -0.577772
O5    O     O_R   0.425620 0.483070 0.607460 -0.533697
O6    O     O_R   0.574380 0.516930 0.392540 -0.533696
O7    O     O_R   0.574400 0.516960 0.638990 -0.624805
O8    O     O_R   0.425600 0.483040 0.361010 -0.624805
Zn1   Zn    Zn3+2 0.400660 0.477370 0.478940 1.087038
Zn2   Zn    Zn3+2 0.599340 0.522630 0.521060 1.087038

loop_
_geom_bond_atom_site_label_1
_geom_bond_atom_site_label_2
_ccdc_geom_bond_type
N2    Zn1   S    
O5    Zn1   S    
C21   C26   A    
C23   C45   A    
C22   C29   A    
C27   C29   A    
C48   I6    S    
C36   C42   T    
O1    Zn1   S    
C18   F2    S    
C39   C41   S    
C13   H7    S    
C25   C28   A    
C46   C49   A    
C26   C27   A    
C33   C39   S    
C19   C21   A    
C30   H4    S    
C32   I4    S    
C5    C6    A    
C11   C14   A    
C31   I3    S    
C15   N2    A    
C20   C25   A    
C1    O3    A    
O4    Zn1   S    
C32   C39   S    
C8    F8    S    
C3    C23   A    
N1    Zn2   S    
C31   C33   S    
C40   C42   S    
C33   H1    S    
C34   H2    S    
C41   C43   S    
C23   H12   S    
C2    C6    A    
C3    C50   A    
C4    C34   A    
C29   H3    S    
C33   C40   S    
C17   O8    A    
C32   C35   S    
C28   H9    S    
C45   F6    S    
C12   C46   S    
C11   H6    S    
C14   N1    A    
O8    Zn1   S    
C25   C26   A    
C16   O5    A    
C13   C24   A    
C37   C43   T    
C19   N2    A    
C2    C4    A    
C3    C9    A    
C2    C49   A    
C1    C44   S    
C38   F4    S    
C35   C38   S    
C49   I5    S    
C12   O4    A    
C17   C37   S    
C20   C22   A    
C13   C15   A    
C16   O7    A    
C1    O1    A    
C5    C50   A    
C4    C10   A    
C44   C45   A    
C47   F5    S    
O7    Zn2   S    
C7    C9    A    
C46   C47   A    
C31   C41   S    
C14   I2    S    
O6    Zn2   S    
C5    C8    A    
C6    C7    A    
C15   I1    S    
C11   C22   A    
C31   C38   S    
C17   O6    A    
C28   C30   A    
C9    H10   S    
O2    Zn2   S    
C27   H8    S    
C16   C36   S    
C38   C40   S    
C39   F3    S    
C18   N1    A    
C12   O2    A    
C48   C50   A    
C18   C20   A    
C32   C40   S    
C35   C41   S    
C24   C30   A    
O3    Zn2   S    
C10   H11   S    
C19   F1    S    
C8    C10   A    
C21   C24   A    
C35   H5    S    
C34   C47   A    
C7    F7    S    
C44   C48   A    
