data_mof_unit_29219.cif
_audit_creation_date              2012-12-10T17:51:24-0500
_audit_creation_method            fapswitch 2.2
_symmetry_space_group_name_H-M    P1
_symmetry_Int_Tables_number       1
_space_group_crystal_system       triclinic
_cell_length_a                    9.928087
_cell_length_b                    10.624238
_cell_length_c                    16.579038
_cell_angle_alpha                 91.42106
_cell_angle_beta                  85.330459
_cell_angle_gamma                 87.788811
_cell_volume                      1740.94205356

loop_
_atom_site_label
_atom_site_type_symbol
_atom_type_description
_atom_site_fract_x
_atom_site_fract_y
_atom_site_fract_z
_atom_type_partial_charge
C1    C     C_R   0.497187 0.739324 0.494906 0.889165
C2    C     C_R   0.367701 0.489741 0.791301 0.675648
C3    C     C_R   0.437870 0.521035 0.130108 -0.203481
C4    C     C_R   0.437767 0.478947 0.208532 0.292677
C5    C     C_R   0.626672 0.612089 0.230313 0.544197
C6    C     C_R   0.626472 0.653614 0.151259 0.223540
C7    C     C_R   0.528866 0.610879 0.101819 -0.083079
C8    C     C_2   0.412749 0.665700 0.982768 -0.117518
C9    C     C_2   0.528608 0.649624 0.017921 -0.042827
C10   C     C_R   0.530614 0.526554 0.259976 -0.286282
C11   C     C_R   0.447430 0.880950 0.345022 0.219871
C12   C     C_R   0.480707 0.504776 0.653349 0.956447
C13   C     C_R   0.482410 0.938471 0.271880 -0.240178
C14   C     C_R   0.541126 0.055115 0.271420 0.289498
C15   C     C_R   0.552218 0.120631 0.344498 0.593117
C16   C     C_R   0.516876 0.063099 0.419136 -0.180306
C17   C     C_R   0.482945 0.936252 0.418835 -0.010736
C18   C     C_R   0.486987 0.872494 0.492677 -0.092037
C19   C     C_R   0.497448 0.936234 0.566108 -0.291605
C20   C     C_R   0.503223 0.064961 0.567602 0.638629
C21   C     C_R   0.512470 0.127522 0.494686 -0.195475
C22   C     C_R   0.840867 0.668447 0.604111 -0.098631
C23   C     C_R   0.503206 0.260412 0.499279 1.055924
C24   C     C_R   0.901010 0.751795 0.654895 -0.156870
C25   C     C_R   0.040477 0.752004 0.654328 -0.144913
C26   C     C_R   0.120357 0.668784 0.603035 -0.072783
C27   C     C_R   0.062574 0.583817 0.550450 0.057208
C28   C     C_R   0.918152 0.583551 0.550745 0.149218
C29   C     C_R   0.938172 0.418477 0.452578 -0.151177
C30   C     C_R   0.081060 0.417695 0.453117 0.713739
C31   C     C_R   0.518906 0.501609 0.346361 1.072192
C32   C     C_R   0.464107 0.544151 0.738079 -0.208183
C33   C     C_R   0.528952 0.651824 0.762452 -0.353829
C34   C     C_R   0.504345 0.701236 0.840775 0.338604
C35   C     C_R   0.414984 0.640848 0.895868 -0.013346
C36   C     C_R   0.343888 0.537768 0.870185 -0.270995
H1    H     H_    0.595182 0.700534 0.720086 0.168823
H2    H     H_    0.498806 0.886060 0.622269 0.161957
H3    H     H_    0.458070 0.895157 0.215342 0.214811
H4    H     H_    0.892344 0.351636 0.413977 0.210016
H5    H     H_    0.733850 0.672343 0.608884 0.182662
H6    H     H_    0.838804 0.816000 0.695290 0.188679
H7    H     H_    0.087176 0.816328 0.694268 0.175872
H8    H     H_    0.226611 0.672689 0.606896 0.187949
H9    H     H_    0.625122 0.646069 0.981777 0.203625
H10   H     H_    0.275089 0.490609 0.912468 0.195651
H11   H     H_    0.367467 0.481743 0.090674 0.194894
H12   H     H_    0.316290 0.663769 0.018722 0.178469
N1    N     N_R   0.857140 0.501200 0.500750 -0.150970
N2    N     N_R   0.142740 0.501280 0.500770 -0.171617
O1    O     O_R   0.385310 0.683220 0.500000 -0.628170
O2    O     O_R   0.614640 0.683250 0.500010 -0.628262
O3    O     O_R   0.371780 0.500010 0.615800 -0.616555
O4    O     O_R   0.601110 0.500030 0.615800 -0.637705
O5    O     O_R   0.385360 0.316750 0.499990 -0.559504
O6    O     O_R   0.614690 0.316780 0.500000 -0.588439
O7    O     O_R   0.398890 0.499970 0.384200 -0.549212
O8    O     O_R   0.628220 0.499990 0.384200 -0.534686
Zn1   Zn    Zn3+2 0.346870 0.499980 0.499990 1.070683
Zn2   Zn    Zn3+2 0.653130 0.500020 0.500010 1.036449
Br1   Br    Br    0.755825 0.773894 0.114267 -0.308798
Br2   Br    Br    0.307360 0.762831 0.340647 -0.430889
Br3   Br    Br    0.595555 0.128591 0.170310 -0.285517
F1    F     F_    0.604944 0.236258 0.341893 -0.664311
F2    F     F_    0.502679 0.128691 0.639733 -0.621575
Br4   Br    Br    0.310624 0.354319 0.240276 -0.291154
F3    F     F_    0.157160 0.330660 0.406919 -0.597522
F4    F     F_    0.715675 0.661150 0.279428 -0.602496
F5    F     F_    0.299456 0.388811 0.767484 -0.605662
Br5   Br    Br    0.592299 0.852136 0.869080 -0.392920

loop_
_geom_bond_atom_site_label_1
_geom_bond_atom_site_label_2
_ccdc_geom_bond_type
C15   F1    S    
C8    H12   S    
C23   O5    A    
C16   C21   A    
C19   H2    S    
O5    Zn1   S    
C2    F5    S    
C24   H6    S    
C28   N1    A    
C34   Br5   S    
C30   F3    S    
C27   N2    A    
C12   O4    A    
C11   Br2   S    
C32   C33   A    
C25   H7    S    
C17   C18   A    
O3    Zn1   S    
C29   N1    A    
C26   H8    S    
C5    C10   A    
C20   C21   A    
C22   C28   A    
C13   C14   A    
C12   C32   S    
C4    Br4   S    
C36   H10   S    
C1    O1    A    
C31   O7    A    
C1    C18   S    
C29   C30   A    
N1    Zn2   S    
C5    F4    S    
N2    Zn1   S    
C31   O8    A    
C3    H11   S    
C9    H9    S    
C33   C34   A    
C6    C7    A    
C3    C7    A    
C2    C36   A    
C21   C23   S    
C26   C27   A    
C5    C6    A    
C30   N2    A    
C1    O2    A    
C22   C24   A    
O7    Zn1   S    
C22   H5    S    
C13   H3    S    
C14   Br3   S    
O8    Zn2   S    
C15   C16   A    
C12   O3    A    
O6    Zn2   S    
C20   F2    S    
C11   C13   A    
O1    Zn1   S    
C24   C25   A    
C6    Br1   S    
C2    C32   A    
C34   C35   A    
C23   O6    A    
C27   C28   A    
C7    C9    S    
C14   C15   A    
C18   C19   A    
O4    Zn2   S    
C35   C36   A    
O2    Zn2   S    
C29   H4    S    
C25   C26   A    
C4    C10   A    
C10   C31   S    
C33   H1    S    
C3    C4    A    
C19   C20   A    
C16   C17   A    
C8    C9    D    
C8    C35   S    
C11   C17   A    
