data_mof_unit_44525.cif
_audit_creation_date              2012-12-11T15:55:56-0500
_audit_creation_method            fapswitch 2.2
_symmetry_space_group_name_H-M    P1
_symmetry_Int_Tables_number       1
_space_group_crystal_system       triclinic
_cell_length_a                    11.224157
_cell_length_b                    11.135004
_cell_length_c                    18.739081
_cell_angle_alpha                 90.172283
_cell_angle_beta                  90.354675
_cell_angle_gamma                 59.239892
_cell_volume                      2012.50546316

loop_
_atom_site_label
_atom_site_type_symbol
_atom_type_description
_atom_site_fract_x
_atom_site_fract_y
_atom_site_fract_z
_atom_type_partial_charge
C1    C     C_R   0.354679 0.778290 0.400554 0.545901
C2    C     C_R   0.271493 0.434909 0.194127 -0.155784
C3    C     C_R   0.254339 0.440135 0.267320 -0.018082
C4    C     C_R   0.383862 0.352587 0.387580 0.578089
C5    C     C_R   0.882755 0.802843 0.332538 0.465239
C6    C     C_R   0.881410 0.719322 0.277647 -0.058449
C7    C     C_R   0.998139 0.591081 0.263003 -0.178497
C8    C     C_R   0.125105 0.560551 0.292588 -0.060946
C9    C     C_R   0.354607 0.331046 0.311264 0.028159
C10   C     C_R   0.929148 0.313324 0.191781 0.003915
C11   C     C_R   0.790430 0.400755 0.207927 -0.023314
C12   C     C_R   0.636207 0.103153 0.178361 0.046752
C13   C     C_R   0.746015 0.422730 0.277034 0.130275
C14   C     C_R   0.979694 0.285124 0.319601 -0.156993
C15   C     C_R   0.025852 0.269956 0.248439 -0.194437
C16   C     C_R   0.779850 0.377681 0.404312 0.562721
C17   C     C_3   0.660506 0.413458 0.179312 -0.228776
C18   C     C_3   0.609713 0.442053 0.256162 0.199644
C19   C     C_R   0.836856 0.349557 0.333043 0.095205
C20   C     C_R   0.318128 0.883539 0.183572 0.064633
C21   C     C_R   0.443107 0.791832 0.214682 -0.107714
C22   C     C_R   0.451302 0.779877 0.288309 -0.002396
C23   C     C_R   0.375055 0.317283 0.160664 -0.005530
C24   C     C_R   0.208486 0.930581 0.300939 -0.173271
C25   C     C_R   0.199823 0.950977 0.227244 -0.177282
C26   C     C_3   0.570266 0.798144 0.212119 0.256429
C27   C     C_3   0.573449 0.792847 0.293034 0.741637
C28   C     C_R   0.342446 0.771121 0.602988 0.550068
C29   C     C_R   0.337466 0.843783 0.332017 0.037742
C30   C     C_R   0.307730 0.327699 0.814703 0.038363
C31   C     C_R   0.439500 0.271642 0.785795 0.108829
C32   C     C_R   0.455506 0.272893 0.713796 -0.027467
C33   C     C_R   0.207831 0.398756 0.695608 -0.195868
C34   C     C_R   0.458408 0.209791 0.276568 -0.000201
C35   C     C_R   0.190855 0.396584 0.769449 -0.168466
C36   C     C_3   0.567235 0.129729 0.793001 0.274776
C37   C     C_3   0.583435 0.131287 0.713136 -0.203505
C38   C     C_R   0.341889 0.330047 0.667353 -0.007728
C39   C     C_R   0.822402 0.325230 0.834793 0.059297
C40   C     C_R   0.370929 0.349007 0.595080 0.539476
C41   C     C_R   0.746421 0.457268 0.803064 -0.053393
C42   C     C_R   0.736198 0.468676 0.730308 0.010291
C43   C     C_R   0.854196 0.219908 0.716166 -0.141477
C44   C     C_R   0.868680 0.205726 0.790489 0.411920
C45   C     C_R   0.484332 0.205648 0.202516 0.104618
C46   C     C_3   0.742737 0.594408 0.809717 0.277509
C47   C     C_3   0.742414 0.599047 0.729054 0.293696
C48   C     C_R   0.795270 0.352461 0.685431 -0.080010
C49   C     C_R   0.280605 0.882532 0.819369 0.067015
C50   C     C_R   0.207787 0.828269 0.786705 0.114757
C51   C     C_R   0.218640 0.805500 0.714612 -0.031209
C52   C     C_R   0.762110 0.377571 0.610319 0.535493
C53   C     C_R   0.352378 0.917417 0.702067 -0.090516
C54   C     C_R   0.341099 0.940689 0.775837 -0.142914
C55   C     C_3   0.207141 0.697698 0.802425 0.255011
C56   C     C_R   0.129860 0.668244 0.326103 -0.086557
C57   C     C_3   0.219347 0.671950 0.722686 -0.197364
C58   C     C_R   0.302585 0.836205 0.672528 0.042591
C59   C     C_R   0.971883 0.290350 0.117954 0.524231
C60   C     C_R   0.332378 0.292347 0.090969 0.545532
C61   C     C_R   0.300112 0.909819 0.107579 0.561601
C62   C     C_R   0.883334 0.309202 0.905118 0.578373
C63   C     C_R   0.294019 0.287977 0.885561 0.563090
C64   C     C_R   0.923080 0.915307 0.146849 -0.075173
C65   C     C_R   0.267772 0.907620 0.895243 0.583994
C66   C     C_R   0.883555 0.987574 0.210670 -0.206644
C67   C     C_R   0.009367 0.780571 0.355597 0.385770
C68   C     C_R   0.744870 0.077369 0.226412 -0.073161
C69   C     C_R   0.681807 0.020146 0.114617 0.008415
C70   C     C_R   0.822083 0.931691 0.098684 0.367191
Cr1   Cr    Cr6+3 0.601740 0.606840 0.505840 1.145623
Cr2   Cr    Cr6+3 0.291500 0.601560 0.495070 1.074353
Cr3   Cr    Cr6+3 0.606780 0.291630 0.499130 1.125604
Cr4   Cr    Cr6+3 0.062440 0.063060 0.008240 1.121496
Cr5   Cr    Cr6+3 0.062950 0.375000 0.998920 1.124526
Cr6   Cr    Cr6+3 0.374550 0.061770 0.992470 1.075960
F1    F     F_    0.765006 0.917396 0.354846 -0.566758
F2    F     F_    0.860910 0.586854 0.836959 -0.640718
F3    F     F_    0.623693 0.710263 0.701459 -0.653348
F4    F     F_    0.324927 0.601256 0.839295 -0.627790
F5    F     F_    0.591730 0.344336 0.288332 -0.698515
F6    F     F_    0.859435 0.853000 0.038460 -0.604425
F7    F     F_    0.541128 0.925217 0.186711 -0.656185
F8    F     F_    0.682543 0.676325 0.323551 -0.647348
F9    F     F_    0.543861 0.915253 0.326598 -0.561244
F10   F     F_    0.669442 0.136275 0.830909 -0.557778
F11   F     F_    0.011031 0.877355 0.398782 -0.615331
F12   F     F_    0.937652 0.074684 0.817968 -0.587150
H1    H     H_    0.795646 0.758064 0.242763 0.173170
H2    H     H_    0.031053 0.840282 0.136800 0.158780
H3    H     H_    0.726882 0.118851 0.279440 0.253728
H4    H     H_    0.193770 0.520414 0.161801 0.143327
H5    H     H_    0.534734 0.126514 0.309299 0.255193
H6    H     H_    0.054132 0.245275 0.363048 0.124167
H7    H     H_    0.135759 0.220196 0.237669 0.135481
H8    H     H_    0.677038 0.314653 0.156262 0.170332
H9    H     H_    0.518504 0.544506 0.264156 0.125052
H10   H     H_    0.100927 0.022289 0.203569 0.145382
H11   H     H_    0.117832 0.451797 0.661027 0.131433
H12   H     H_    0.992668 0.524811 0.222497 0.157854
H13   H     H_    0.087677 0.439490 0.790260 0.206542
H14   H     H_    0.676118 0.134234 0.696363 0.186321
H15   H     H_    0.893516 0.127701 0.682897 0.145383
H16   H     H_    0.645537 0.678089 0.834461 0.176817
H17   H     H_    0.408095 0.952998 0.669836 0.156697
H18   H     H_    0.382499 0.000454 0.798916 0.116937
H19   H     H_    0.320059 0.580397 0.706420 0.182024
H20   H     H_    0.125299 0.679265 0.698388 0.125211
H21   H     H_    0.959192 0.967595 0.251272 0.135442
H22   H     H_    0.226951 0.663409 0.321500 0.160095
H23   H     H_    0.603196 0.506208 0.144121 0.105090
H24   H     H_    0.618732 0.000228 0.079824 0.228187
H25   H     H_    0.116118 0.982301 0.333031 0.194819
H26   H     H_    0.655171 0.706447 0.184022 0.088763
H27   H     H_    0.551892 0.044044 0.810906 0.144012
H28   H     H_    0.567783 0.052501 0.684774 0.116352
H29   H     H_    0.839386 0.584529 0.705089 0.141043
H30   H     H_    0.108173 0.716509 0.825684 0.191310
O1    O     O_R   0.748670 0.497520 0.427970 -0.450350
O2    O     O_R   0.417470 0.174910 0.067830 -0.524924
O3    O     O_R   0.375160 0.946380 0.070880 -0.450109
O4    O     O_R   0.476470 0.723930 0.429450 -0.446364
O5    O     O_R   0.160500 0.919670 0.926690 -0.431372
O6    O     O_R   0.933140 0.190380 0.936050 -0.422440
O7    O     O_R   0.909010 0.403210 0.925030 -0.449037
O8    O     O_R   0.179590 0.361290 0.918480 -0.464912
O9    O     O_R   0.391360 0.170840 0.907510 -0.523969
O10   O     O_R   0.350950 0.942600 0.922260 -0.529088
O11   O     O_3   0.166650 0.166610 0.999880 -0.332578
O12   O     O_R   0.300170 0.471020 0.567120 -0.509392
O13   O     O_R   0.264730 0.744140 0.416740 -0.484563
O14   O     O_R   0.309440 0.472410 0.418220 -0.509781
O15   O     O_R   0.501630 0.260530 0.414310 -0.444038
O16   O     O_R   0.727920 0.305730 0.428950 -0.451089
O17   O     O_R   0.738670 0.496020 0.588600 -0.485750
O18   O     O_R   0.467190 0.722540 0.578350 -0.447350
O19   O     O_R   0.254720 0.742640 0.577370 -0.515187
O20   O     O_R   0.491630 0.259030 0.574940 -0.513817
O21   O     O_R   0.718640 0.304340 0.577850 -0.511624
O22   O     O_3   0.500010 0.500010 0.500020 -0.297887
O23   O     O_R   0.186620 0.923750 0.087000 -0.550601
O24   O     O_R   0.957350 0.194160 0.084660 -0.508274
O25   O     O_R   0.935120 0.407280 0.085350 -0.499229
O26   O     O_R   0.203800 0.365060 0.067090 -0.507313

loop_
_geom_bond_atom_site_label_1
_geom_bond_atom_site_label_2
_ccdc_geom_bond_type
Cr4   O6    S    
C12   C69   A    
C26   F7    S    
C23   C45   A    
C22   C29   A    
C41   C42   A    
Cr1   O4    S    
C66   C68   A    
C34   H5    S    
C47   F3    S    
C5    C67   A    
C16   O16   A    
C8    C56   A    
C62   O6    A    
C7    C8    A    
C39   C41   A    
C37   H28   S    
C53   C54   A    
C12   C68   A    
C26   C27   S    
Cr6   O2    S    
C49   C65   S    
C13   C18   S    
Cr6   O3    S    
C36   C37   S    
C38   C40   S    
C10   C15   A    
C15   H7    S    
C5    C6    A    
C69   H24   S    
C20   C25   A    
C49   C54   A    
C68   H3    S    
C61   O3    A    
C20   C61   S    
C27   F9    S    
C24   C29   A    
C1    O4    A    
C11   C17   S    
C59   O24   A    
C40   O20   A    
C41   C46   S    
C51   C57   S    
C18   H9    S    
C64   H2    S    
C43   C48   A    
Cr4   O5    S    
Cr4   O24   S    
C59   O25   A    
C24   H25   S    
C21   C22   A    
C17   H23   S    
C56   H22   S    
C17   H8    S    
C21   C26   S    
Cr2   O14   S    
C23   C60   S    
C7    H12   S    
C54   H18   S    
C65   O10   A    
C24   C25   A    
C4    O14   A    
C3    C8    S    
Cr5   O26   S    
C16   O1    A    
Cr1   O18   S    
C34   C45   A    
C13   C19   A    
Cr3   O21   S    
C36   F10   S    
C46   H16   S    
C33   H11   S    
C64   C66   A    
C43   C44   A    
C26   H26   S    
C3    C9    A    
Cr6   O11   S    
C31   C32   A    
C14   C15   A    
C48   C52   S    
C30   C31   A    
C64   C70   A    
C1    C29   S    
C17   C18   S    
C50   C51   A    
C51   C58   A    
C42   C48   A    
C32   C37   S    
C20   C21   A    
C2    H4    S    
C39   C44   A    
Cr5   O25   S    
C30   C35   A    
C61   O23   A    
Cr2   O19   S    
C57   H19   S    
Cr4   O23   S    
Cr3   O15   S    
C32   C38   A    
C18   F5    S    
C55   C57   S    
C9    C34   A    
Cr6   O10   S    
Cr2   O22   S    
C5    F1    S    
C56   C67   A    
Cr2   O13   S    
C46   F2    S    
C52   O17   A    
C39   C62   S    
C40   O12   A    
C46   C47   S    
C27   F8    S    
Cr1   O22   S    
C28   O18   A    
C14   C19   A    
C28   O19   A    
C50   C55   S    
C12   C45   S    
C35   H13   S    
C62   O7    A    
C53   C58   A    
Cr2   O12   S    
C6    C7    A    
Cr3   O22   S    
C28   C58   S    
C6    H1    S    
C67   F11   S    
C33   C38   A    
Cr1   O1    S    
C22   C27   S    
Cr5   O8    S    
C2    C3    A    
C52   O21   A    
C44   F12   S    
C60   O26   A    
Cr1   O17   S    
C55   F4    S    
C11   C13   A    
C37   H14   S    
C16   C19   S    
C1    O13   A    
C33   C35   A    
C60   O2    A    
C42   C47   S    
C65   O5    A    
C66   H21   S    
C69   C70   A    
C70   F6    S    
C43   H15   S    
C63   O8    A    
C10   C11   A    
C53   H17   S    
C25   H10   S    
C47   H29   S    
C57   H20   S    
Cr3   O16   S    
C49   C50   A    
Cr3   O20   S    
Cr4   O11   S    
C2    C23   A    
Cr6   O9    S    
C31   C36   S    
Cr5   O7    S    
C4    C9    S    
C30   C63   S    
C36   H27   S    
C10   C59   S    
C14   H6    S    
C63   O9    A    
Cr5   O11   S    
C4    O15   A    
C55   H30   S    
