data_mof_unit_27912.cif
_audit_creation_date              2012-12-11T14:42:13-0500
_audit_creation_method            fapswitch 2.2
_symmetry_space_group_name_H-M    P1
_symmetry_Int_Tables_number       1
_space_group_crystal_system       triclinic
_cell_length_a                    18.913017
_cell_length_b                    10.931614
_cell_length_c                    18.775432
_cell_angle_alpha                 89.877675
_cell_angle_beta                  90.618971
_cell_angle_gamma                 90.134362
_cell_volume                      3881.57101127

loop_
_atom_site_label
_atom_site_type_symbol
_atom_type_description
_atom_site_fract_x
_atom_site_fract_y
_atom_site_fract_z
_atom_type_partial_charge
C1    C     C_R   0.727959 0.953447 0.853134 0.531345
C2    C     C_R   0.251780 0.398015 0.920291 0.030786
C3    C     C_R   0.248250 0.898330 0.079675 0.031413
C4    C     C_R   0.751780 0.898015 0.920291 0.030786
C5    C     C_R   0.791309 0.310151 0.047722 -0.124224
C6    C     C_R   0.208707 0.309518 0.952409 -0.125424
C7    C     C_R   0.291309 0.810151 0.047722 -0.124224
C8    C     C_R   0.708707 0.809518 0.952409 -0.125424
C9    C     C_R   0.781262 0.279918 0.976866 -0.129053
C10   C     C_R   0.218812 0.279284 0.023307 -0.129034
C11   C     C_R   0.281263 0.779918 0.976866 -0.129053
C12   C     C_R   0.272045 0.953641 0.146847 0.539234
C13   C     C_R   0.718812 0.779284 0.023307 -0.129034
C14   C     C_R   0.727632 0.336017 0.936664 0.027278
C15   C     C_R   0.272518 0.335689 0.063341 0.025802
C16   C     C_R   0.227632 0.836017 0.936664 0.027278
C17   C     C_R   0.772518 0.835689 0.063341 0.025802
C18   C     C_R   0.456086 0.264249 0.551786 -0.189772
C19   C     C_R   0.440864 0.267487 0.480229 -0.203492
C20   C     C_R   0.956086 0.764249 0.551786 -0.189772
C21   C     C_R   0.940864 0.767487 0.480229 -0.203492
C22   C     C_R   0.457316 0.167744 0.437375 -0.011069
C23   C     C_R   0.227959 0.453447 0.853134 0.531345
C24   C     C_R   0.486829 0.159875 0.581487 -0.004248
C25   C     C_R   0.957316 0.667744 0.437375 -0.011069
C26   C     C_R   0.986829 0.659875 0.581487 -0.004248
C27   C     C_R   0.484788 0.058608 0.467606 0.231988
C28   C     C_R   0.493679 0.051761 0.540902 0.235036
C29   C     C_R   0.984788 0.558607 0.467606 0.231988
C30   C     C_R   0.993679 0.551761 0.540902 0.235036
C31   C     C_R   0.814127 0.403633 0.544597 -0.160381
C32   C     C_R   0.207667 0.317421 0.470184 -0.089134
C33   C     C_R   0.314127 0.903634 0.544597 -0.160381
C34   C     C_R   0.772045 0.453641 0.146847 0.539234
C35   C     C_R   0.707666 0.817421 0.470184 -0.089134
C36   C     C_R   0.819966 0.409991 0.471848 -0.171140
C37   C     C_R   0.206325 0.329655 0.542891 -0.126769
C38   C     C_R   0.319966 0.909991 0.471848 -0.171140
C39   C     C_R   0.706325 0.829655 0.542891 -0.126769
C40   C     C_R   0.529944 0.177422 0.850867 0.541275
C41   C     C_R   0.470028 0.177727 0.149118 0.558311
C42   C     C_R   0.029944 0.677422 0.850867 0.541275
C43   C     C_R   0.970028 0.677727 0.149118 0.558311
C44   C     C_R   0.760309 0.431564 0.428423 0.064969
C45   C     C_R   0.689624 0.444545 0.041982 -0.144737
C46   C     C_R   0.248592 0.417754 0.576303 0.058699
C47   C     C_R   0.260309 0.931564 0.428423 0.064970
C48   C     C_R   0.748592 0.917754 0.576303 0.058699
C49   C     C_R   0.693644 0.447368 0.459333 0.073287
C50   C     C_R   0.297638 0.486791 0.535943 0.073440
C51   C     C_R   0.193644 0.947368 0.459333 0.073287
C52   C     C_R   0.797638 0.986792 0.535943 0.073440
C53   C     C_R   0.687768 0.437287 0.533108 -0.125269
C54   C     C_R   0.298432 0.473749 0.462166 -0.144165
C55   C     C_R   0.187768 0.937286 0.533108 -0.125268
C56   C     C_R   0.310482 0.444569 0.957826 -0.145140
C57   C     C_R   0.798432 0.973749 0.462166 -0.144165
C58   C     C_R   0.747855 0.411615 0.575389 0.000088
C59   C     C_R   0.253051 0.390278 0.429209 0.017545
C60   C     C_R   0.247855 0.911614 0.575389 0.000088
C61   C     C_R   0.753051 0.890278 0.429209 0.017545
C62   C     C_R   0.723914 0.311980 0.859987 0.560409
C63   C     C_R   0.276138 0.311814 0.140057 0.562326
C64   C     C_R   0.223914 0.811980 0.859987 0.560409
C65   C     C_R   0.776138 0.811814 0.140057 0.562326
C66   C     C_R   0.728417 0.955140 0.647543 0.567504
C67   C     C_R   0.189624 0.944545 0.041982 -0.144737
C68   C     C_R   0.273219 0.957511 0.353792 0.565899
C69   C     C_R   0.228417 0.455140 0.647543 0.567503
C70   C     C_R   0.773219 0.457511 0.353792 0.565899
C71   C     C_R   0.526718 0.174846 0.646870 0.569437
C72   C     C_R   0.439473 0.179220 0.362902 0.570635
C73   C     C_R   0.026718 0.674846 0.646870 0.569437
C74   C     C_R   0.939473 0.679221 0.362902 0.570635
C75   C     C_R   0.739125 0.363537 0.646606 0.560958
C76   C     C_R   0.261277 0.359046 0.354952 0.559233
C77   C     C_R   0.239125 0.863537 0.646606 0.560958
C78   C     C_R   0.810481 0.944569 0.957826 -0.145140
C79   C     C_R   0.761277 0.859046 0.354952 0.559233
C80   C     C_2   0.497557 0.167897 0.920951 -0.107569
C81   C     C_2   0.502483 0.168726 0.079059 -0.106643
C82   C     C_2   0.997557 0.667897 0.920951 -0.107569
C83   C     C_2   0.002483 0.668726 0.079059 -0.106643
C84   C     C_2   0.492072 0.069169 0.038344 -0.156824
C85   C     C_2   0.508851 0.069091 0.962204 -0.156027
C86   C     C_2   0.992072 0.569169 0.038344 -0.156824
C87   C     C_2   0.008851 0.569091 0.962204 -0.156027
C88   C     C_R   0.679296 0.413529 0.970518 -0.138374
C89   C     C_R   0.748250 0.398331 0.079675 0.031413
C90   C     C_R   0.320881 0.413514 0.029320 -0.138568
C91   C     C_R   0.179296 0.913529 0.970518 -0.138374
C92   C     C_R   0.820881 0.913514 0.029320 -0.138568
Cl1   Cl    Cl    0.516279 0.933410 0.416508 -0.539765
Cl2   Cl    Cl    0.515459 0.907291 0.578852 -0.570504
Cl3   Cl    Cl    0.016279 0.433410 0.416508 -0.539765
Cl4   Cl    Cl    0.015459 0.407291 0.578852 -0.570504
Cr1   Cr    Cr6+3 0.769270 0.163730 0.750710 1.046405
Cr2   Cr    Cr6+3 0.385840 0.322500 0.252290 1.026426
Cr3   Cr    Cr6+3 0.114160 0.822500 0.747710 1.024147
Cr4   Cr    Cr6+3 0.885840 0.822500 0.252290 1.026426
Cr5   Cr    Cr6+3 0.230730 0.163730 0.249290 1.048195
Cr6   Cr    Cr6+3 0.269270 0.663730 0.750710 1.046405
Cr7   Cr    Cr6+3 0.730730 0.663730 0.249290 1.048195
Cr8   Cr    Cr6+3 0.612620 0.009790 0.748780 1.073628
Cr9   Cr    Cr6+3 0.387380 0.009790 0.251220 1.068157
Cr10  Cr    Cr6+3 0.112620 0.509790 0.748780 1.073628
Cr11  Cr    Cr6+3 0.887380 0.509790 0.251220 1.068157
Cr12  Cr    Cr6+3 0.614160 0.322500 0.747710 1.024147
H1    H     H_    0.469780 0.985953 0.060588 0.157875
H2    H     H_    0.335504 0.526774 0.431010 0.132713
H3    H     H_    0.135690 0.942092 0.556450 0.146033
H4    H     H_    0.835504 0.026774 0.431010 0.132713
H5    H     H_    0.526610 0.250476 0.056832 0.109784
H6    H     H_    0.472819 0.249063 0.942771 0.109232
H7    H     H_    0.026610 0.750476 0.056832 0.109784
H8    H     H_    0.972820 0.749063 0.942771 0.109232
H9    H     H_    0.635672 0.454307 0.941236 0.132587
H10   H     H_    0.364522 0.454583 0.058504 0.132491
H11   H     H_    0.135672 0.954307 0.941236 0.132587
H12   H     H_    0.531863 0.986459 0.940407 0.158217
H13   H     H_    0.864522 0.954583 0.058504 0.132491
H14   H     H_    0.654165 0.509198 0.066441 0.119022
H15   H     H_    0.345898 0.509630 0.933240 0.118051
H16   H     H_    0.154165 0.009198 0.066441 0.119022
H17   H     H_    0.845898 0.009630 0.933240 0.118051
H18   H     H_    0.835834 0.270063 0.075972 0.135474
H19   H     H_    0.164110 0.269281 0.924271 0.133955
H20   H     H_    0.335833 0.770063 0.075972 0.135474
H21   H     H_    0.664110 0.769281 0.924271 0.133955
H22   H     H_    0.817766 0.216889 0.952609 0.125026
H23   H     H_    0.969780 0.485953 0.060588 0.157875
H24   H     H_    0.182242 0.216133 0.047753 0.124939
H25   H     H_    0.317766 0.716889 0.952609 0.125026
H26   H     H_    0.682242 0.716133 0.047753 0.124939
H27   H     H_    0.448358 0.346286 0.582957 0.156809
H28   H     H_    0.419607 0.350646 0.457478 0.147869
H29   H     H_    0.948358 0.846286 0.582957 0.156809
H30   H     H_    0.919607 0.850646 0.457477 0.147869
H31   H     H_    0.860821 0.383834 0.576391 0.191021
H32   H     H_    0.173771 0.248430 0.446397 0.173020
H33   H     H_    0.360821 0.883835 0.576392 0.191020
H34   H     H_    0.031863 0.486459 0.940407 0.158217
H35   H     H_    0.673771 0.748430 0.446397 0.173020
H36   H     H_    0.596198 0.396995 0.425424 0.246909
H37   H     H_    0.608376 0.549447 0.433103 0.239378
H38   H     H_    0.397025 0.546445 0.555981 0.223590
H39   H     H_    0.336275 0.657656 0.546317 0.252445
H40   H     H_    0.096198 0.896994 0.425424 0.246909
H41   H     H_    0.108376 0.049446 0.433103 0.239378
H42   H     H_    0.897024 0.046445 0.555981 0.223591
H43   H     H_    0.836275 0.157656 0.546317 0.252445
H44   H     H_    0.871973 0.398925 0.449733 0.198307
H45   H     H_    0.169311 0.274023 0.572545 0.172008
H46   H     H_    0.371973 0.898925 0.449733 0.198307
H47   H     H_    0.669311 0.774023 0.572545 0.172008
H48   H     H_    0.635690 0.442092 0.556450 0.146033
N1    N     N_3   0.631919 0.468298 0.416132 -0.593319
N2    N     N_3   0.345487 0.571789 0.568898 -0.575680
N3    N     N_3   0.131919 0.968298 0.416132 -0.593319
N4    N     N_3   0.845487 0.071789 0.568898 -0.575681
O1    O     O_R   0.784320 0.290430 0.830510 -0.512108
O2    O     O_R   0.456080 0.282180 0.333210 -0.507658
O3    O     O_R   0.043920 0.782180 0.666790 -0.529666
O4    O     O_R   0.956080 0.782180 0.333210 -0.507658
O5    O     O_R   0.679040 0.374160 0.674430 -0.501029
O6    O     O_R   0.320960 0.374160 0.325570 -0.521378
O7    O     O_R   0.179040 0.874160 0.674430 -0.501029
O8    O     O_R   0.820960 0.874160 0.325570 -0.521378
O9    O     O_3   0.665350 0.165340 0.749070 -0.280367
O10   O     O_3   0.334650 0.165340 0.250930 -0.310578
O11   O     O_3   0.165350 0.665340 0.749070 -0.280367
O12   O     O_R   0.215680 0.290430 0.169490 -0.502643
O13   O     O_3   0.834650 0.665340 0.250930 -0.310578
O14   O     O_R   0.762640 0.040960 0.825200 -0.527102
O15   O     O_R   0.237360 0.040960 0.174800 -0.521240
O16   O     O_R   0.262640 0.540960 0.825200 -0.527102
O17   O     O_R   0.737360 0.540960 0.174800 -0.521240
O18   O     O_R   0.667400 0.923970 0.829950 -0.525297
O19   O     O_R   0.332600 0.923970 0.170050 -0.521430
O20   O     O_R   0.167400 0.423970 0.829950 -0.525297
O21   O     O_R   0.832600 0.423970 0.170050 -0.521430
O22   O     O_R   0.553960 0.081340 0.821780 -0.497541
O23   O     O_R   0.284320 0.790430 0.830510 -0.512108
O24   O     O_R   0.446040 0.081340 0.178220 -0.486558
O25   O     O_R   0.053960 0.581340 0.821780 -0.497541
O26   O     O_R   0.946040 0.581340 0.178220 -0.486558
O27   O     O_R   0.543180 0.283240 0.826740 -0.526927
O28   O     O_R   0.456820 0.283240 0.173260 -0.518783
O29   O     O_R   0.043180 0.783240 0.826740 -0.526927
O30   O     O_R   0.956820 0.783240 0.173260 -0.518783
O31   O     O_R   0.678360 0.375140 0.822710 -0.502254
O32   O     O_R   0.321640 0.375140 0.177290 -0.497686
O33   O     O_R   0.178360 0.875140 0.822710 -0.502254
O34   O     O_R   0.715680 0.790430 0.169490 -0.502643
O35   O     O_R   0.821640 0.875140 0.177290 -0.497686
O36   O     O_R   0.785050 0.289380 0.670560 -0.491198
O37   O     O_R   0.214950 0.289380 0.329440 -0.489785
O38   O     O_R   0.285050 0.789380 0.670560 -0.491198
O39   O     O_R   0.714950 0.789380 0.329440 -0.489785
O40   O     O_R   0.763320 0.039990 0.676930 -0.462566
O41   O     O_R   0.236680 0.039990 0.323070 -0.471872
O42   O     O_R   0.263320 0.539990 0.676930 -0.462566
O43   O     O_R   0.736680 0.539990 0.323070 -0.471872
O44   O     O_R   0.668130 0.922920 0.670000 -0.485068
O45   O     O_R   0.554640 0.080370 0.673500 -0.433843
O46   O     O_R   0.331870 0.922920 0.330000 -0.518656
O47   O     O_R   0.168130 0.422920 0.670000 -0.485068
O48   O     O_R   0.831870 0.422920 0.330000 -0.518656
O49   O     O_R   0.445360 0.080370 0.326500 -0.431053
O50   O     O_R   0.054640 0.580370 0.673500 -0.433843
O51   O     O_R   0.945360 0.580370 0.326500 -0.431053
O52   O     O_R   0.543920 0.282180 0.666790 -0.529665

loop_
_geom_bond_atom_site_label_1
_geom_bond_atom_site_label_2
_ccdc_geom_bond_type
C44   C49   A    
C52   N4    S    
Cr8   O22   S    
Cr12  O5    S    
C8    C13   A    
C43   C83   S    
Cr10  O11   S    
Cr12  O27   S    
C42   C82   S    
C4    C8    A    
C67   H16   S    
Cr9   O49   S    
Cr9   O46   S    
C40   O27   A    
C9    H22   S    
C50   N2    S    
C7    C11   A    
Cr11  O26   S    
C10   H24   S    
C29   C30   A    
H42   N4    S    
Cr11  O21   S    
C18   C24   A    
Cr6   O23   S    
Cr8   O44   S    
Cr1   O36   S    
C61   C79   S    
C6    H19   S    
C32   H32   S    
C3    C7    A    
C10   C15   A    
Cr6   O38   S    
Cr5   O37   S    
C86   H23   S    
C57   H4    S    
Cr11  O51   S    
C70   O48   A    
C82   C87   D    
C14   C62   S    
Cr7   O13   S    
C26   C73   S    
Cr1   O9    S    
C54   H2    S    
Cr5   O12   S    
C28   Cl2   S    
C25   C74   S    
C13   H26   S    
C18   C19   A    
C22   C72   S    
C46   C69   S    
C30   Cl4   S    
C3    C12   S    
Cr2   O2    S    
C64   O23   A    
Cr8   O18   S    
C43   O30   A    
C5    H18   S    
Cr2   O28   S    
C40   C80   S    
Cr12  O31   S    
C76   O6    A    
Cr7   O34   S    
C7    H20   S    
C45   C89   A    
C77   O38   A    
Cr3   O7    S    
C66   O44   A    
C75   O36   A    
C56   C90   A    
C69   O42   A    
C87   H34   S    
C55   C60   A    
Cr1   O40   S    
C49   N1    S    
C2    C6    A    
C17   C92   A    
C21   H30   S    
Cr9   O19   S    
Cr10  O20   S    
Cr12  O52   S    
C58   C75   S    
C40   O22   A    
C54   C59   A    
C25   C29   A    
C60   C77   S    
Cr4   O30   S    
C1    O14   A    
C69   O47   A    
C41   O24   A    
C79   O39   A    
Cr9   O10   S    
C56   H15   S    
C37   H45   S    
C73   O50   A    
Cr5   O10   S    
C19   C22   A    
C84   C85   S    
C75   O5    A    
Cr10  O47   S    
C29   Cl3   S    
C86   C87   S    
C36   H44   S    
C47   C51   A    
C23   O16   A    
Cr11  O13   S    
C43   O26   A    
C33   H33   S    
C19   H28   S    
C32   C37   A    
C41   O28   A    
C39   H47   S    
Cr7   O17   S    
H40   N3    S    
Cr2   O10   S    
C20   H29   S    
C85   H12   S    
C35   C39   A    
C9    C14   A    
Cr4   O4    S    
C5    C9    A    
C80   C85   D    
C83   H7    S    
H37   N1    S    
C1    O18   A    
C72   O49   A    
C48   C52   A    
C41   C81   S    
C64   O33   A    
C45   C88   A    
C67   C91   A    
C23   O20   A    
C18   H27   S    
C35   C61   A    
Cr7   O39   S    
Cr8   O45   S    
Cr6   O11   S    
C44   C70   S    
H41   N3    S    
C38   C47   A    
Cr2   O6    S    
C16   C91   A    
C12   O15   A    
Cr3   O3    S    
C42   O25   A    
Cr2   O32   S    
C80   H6    S    
C26   C30   A    
C33   C60   A    
Cr1   O1    S    
C22   C27   A    
C68   O46   A    
C79   O8    A    
C91   H11   S    
C36   C44   A    
C77   O7    A    
Cr3   O33   S    
C38   H46   S    
C31   H31   S    
C90   H10   S    
C47   C68   S    
C8    H21   S    
C81   C84   D    
C31   C58   A    
C2    C23   S    
Cr3   O29   S    
C65   O34   A    
Cr4   O35   S    
C70   O43   A    
C21   C25   A    
C72   O2    A    
Cr1   O14   S    
Cr4   O13   S    
C55   H3    S    
C68   O41   A    
C3    C67   A    
C24   C28   A    
Cr10  O25   S    
C34   O17   A    
C5    C89   A    
C6    C10   A    
C53   C58   A    
C57   C61   A    
C62   O31   A    
H38   N2    S    
C45   H14   S    
C4    C78   A    
C12   O19   A    
C46   C50   A    
C17   C65   S    
C84   H1    S    
C13   C17   A    
C74   O51   A    
Cr4   O8    S    
C1    C4    S    
C78   C92   A    
H43   N4    S    
C11   H25   S    
C88   H9    S    
C34   C89   S    
C14   C88   A    
C50   C54   A    
Cr5   O41   S    
C92   H13   S    
C15   C90   A    
C74   O4    A    
C34   O21   A    
C78   H17   S    
C42   O29   A    
C63   O12   A    
C20   C26   A    
C76   O37   A    
C49   C53   A    
C51   N3    S    
C51   C55   A    
H36   N1    S    
Cr9   O24   S    
Cr6   O42   S    
Cr7   O43   S    
C11   C16   A    
C27   Cl1   S    
C52   C57   A    
C82   H8    S    
C62   O1    A    
C71   O45   A    
C83   C86   D    
Cr3   O11   S    
C20   C21   A    
C53   H48   S    
C73   O3    A    
C71   O52   A    
Cr11  O48   S    
C81   H5    S    
C27   C28   A    
Cr5   O15   S    
C15   C63   S    
C31   C36   A    
Cr8   O9    S    
C33   C38   A    
C2    C56   A    
C16   C64   S    
C32   C59   A    
C48   C66   S    
C37   C46   A    
Cr12  O9    S    
H39   N2    S    
Cr6   O16   S    
C59   C76   S    
C66   O40   A    
C63   O32   A    
C24   C71   S    
C35   H35   S    
C39   C48   A    
C65   O35   A    
Cr10  O50   S    
