data_mof_unit_36999.cif
_audit_creation_date              2012-10-26T21:06:05-0400
_audit_creation_method            fapswitch 2.2
_symmetry_space_group_name_H-M    P1
_symmetry_Int_Tables_number       1
_space_group_crystal_system       triclinic
_cell_length_a                    13.428541
_cell_length_b                    18.187949
_cell_length_c                    19.38457
_cell_angle_alpha                 90.54005
_cell_angle_beta                  92.027208
_cell_angle_gamma                 72.124541
_cell_volume                      4503.06547646

loop_
_atom_site_label
_atom_site_type_symbol
_atom_type_description
_atom_site_fract_x
_atom_site_fract_y
_atom_site_fract_z
_atom_type_partial_charge
C1    C     C_R   0.497923 0.500735 0.632184 0.578789
C2    C     C_R   0.816974 0.432031 0.500270 0.000891
C3    C     C_R   0.501472 0.563320 0.254326 -0.126934
C4    C     C_R   0.700913 0.458307 0.499226 0.543193
C5    C     C_R   0.500779 0.561371 0.182567 -0.133060
C6    C     C_R   0.499632 0.494169 0.146948 0.031062
C7    C     C_R   0.501558 0.427016 0.184063 0.008772
C8    C     C_R   0.500763 0.430296 0.256247 -0.120516
C9    C     C_R   0.500606 0.497984 0.291680 0.002768
C10   C     C_R   0.406037 0.491862 0.034629 -0.101195
C11   C     C_R   0.401519 0.492395 0.961958 0.012346
C12   C     C_R   0.980346 0.465084 0.493736 0.019232
C13   C     C_R   0.488514 0.500885 0.927112 0.027610
C14   C     C_R   0.577136 0.506579 0.964479 -0.123411
C15   C     C_R   0.580713 0.504415 0.036129 -0.124839
C16   C     C_R   0.500115 0.499610 0.367447 0.549667
C17   C     C_R   0.495686 0.496437 0.071275 0.007940
C18   C     C_R   0.421799 0.563094 0.813882 -0.091216
C19   C     C_R   0.422057 0.563115 0.741944 0.211426
C20   C     C_R   0.493935 0.502116 0.707348 0.020363
C21   C     C_R   0.562657 0.441014 0.745237 -0.174766
C22   C     C_R   0.561233 0.441018 0.816988 -0.140149
C23   C     C_R   0.872677 0.481587 0.476430 -0.031022
C24   C     C_R   0.490435 0.501803 0.851473 -0.025995
C25   C     C_R   0.557801 0.262823 0.546113 0.068623
C26   C     C_R   0.557019 0.185715 0.542337 -0.137548
C27   C     C_R   0.496186 0.162666 0.490891 0.013374
C28   C     C_R   0.299474 0.541392 0.498861 0.581549
C29   C     C_R   0.437369 0.219122 0.442904 -0.024358
C30   C     C_R   0.440224 0.295795 0.449671 0.055362
C31   C     C_R   0.406652 0.060105 0.504554 -0.117576
C32   C     C_R   0.407393 0.982550 0.503024 -0.098421
C33   C     C_R   0.498163 0.922998 0.485926 0.066028
C34   C     C_R   0.029951 0.522215 0.481766 0.028748
C35   C     C_R   0.587235 0.943378 0.468431 -0.058354
C36   C     C_R   0.586524 0.020888 0.470063 -0.099015
C37   C     C_R   0.496326 0.080170 0.488269 0.020076
C38   C     C_R   0.569504 0.788216 0.537088 0.203328
C39   C     C_R   0.565561 0.710951 0.543621 0.118245
C40   C     C_R   0.024784 0.649172 0.438119 -0.126037
C41   C     C_R   0.433829 0.734947 0.453954 0.362949
C42   C     C_R   0.432690 0.812339 0.449722 -0.162104
C43   C     C_R   0.501368 0.839772 0.490338 -0.025148
C44   C     C_R   0.185201 0.565140 0.489624 0.008838
C45   C     C_R   0.973958 0.592598 0.447499 0.052019
C46   C     C_R   0.873790 0.360512 0.531421 0.232245
C47   C     C_R   0.981889 0.340207 0.539304 -0.095630
C48   C     C_R   0.034621 0.391550 0.521828 -0.164511
C49   C     C_3   0.507194 0.350745 0.149469 -0.263650
C50   C     C_3   0.615120 0.291226 0.162658 -0.296114
C51   C     C_3   0.622550 0.214875 0.126616 -0.450027
C52   C     C_3   0.307794 0.482185 0.920684 -0.252052
C53   C     C_3   0.226595 0.459658 0.962703 -0.313892
C54   C     C_3   0.141190 0.444981 0.915572 -0.441382
C55   C     C_3   0.810318 0.677671 0.382456 -0.263761
C56   C     C_R   0.870043 0.604013 0.422100 -0.001212
C57   C     C_3   0.697982 0.684134 0.357117 -0.300129
C58   C     C_3   0.645253 0.761241 0.321172 -0.448356
C59   C     C_3   0.373621 0.200366 0.383113 -0.274191
C60   C     C_3   0.424638 0.204340 0.314190 -0.298676
C61   C     C_3   0.360458 0.185913 0.253716 -0.450822
C62   C     C_3   0.633382 0.662425 0.601494 -0.195060
C63   C     C_3   0.586073 0.686561 0.672421 -0.280220
C64   C     C_3   0.652416 0.636127 0.730072 -0.446081
C65   C     C_R   0.823296 0.546506 0.434836 -0.103702
C66   C     C_R   0.133985 0.511565 0.504298 -0.124994
C67   C     C_R   0.129384 0.635256 0.458632 -0.105080
Cl1   Cl    Cl    0.326375 0.637327 0.697123 -0.609717
Cl2   Cl    Cl    0.658227 0.821823 0.588996 -0.651169
Cl3   Cl    Cl    0.346016 0.708265 0.397434 -0.634505
Cl4   Cl    Cl    0.815289 0.294430 0.564809 -0.637098
Cu1   Cu    Cu3+1 0.500030 0.426630 0.500000 0.977212
Cu2   Cu    Cu3+1 0.499970 0.573370 0.500000 1.015322
H1    H     H_    0.167324 0.678160 0.447773 0.193671
H2    H     H_    0.604575 0.279744 0.586058 0.171831
H3    H     H_    0.603400 0.144170 0.579705 0.130559
H4    H     H_    0.394826 0.339431 0.413706 0.125272
H5    H     H_    0.336157 0.104620 0.518910 0.114063
H6    H     H_    0.337758 0.968775 0.516932 0.124591
H7    H     H_    0.658171 0.898981 0.454653 0.135726
H8    H     H_    0.656557 0.034671 0.457122 0.119894
H9    H     H_    0.985769 0.703790 0.413102 0.114100
H10   H     H_    0.378865 0.851038 0.413411 0.140537
H11   H     H_    0.178483 0.461327 0.533205 0.125046
H12   H     H_    0.500090 0.612794 0.154518 0.119633
H13   H     H_    0.118315 0.370813 0.529980 0.107386
H14   H     H_    0.025652 0.284847 0.561658 0.155169
H15   H     H_    0.748306 0.551115 0.410677 0.139115
H16   H     H_    0.502089 0.616097 0.280445 0.160107
H17   H     H_    0.562983 0.190117 0.146207 0.149509
H18   H     H_    0.610262 0.223698 0.069943 0.156940
H19   H     H_    0.701413 0.173144 0.137055 0.148888
H20   H     H_    0.676697 0.314061 0.143047 0.170712
H21   H     H_    0.630171 0.280156 0.218947 0.162079
H22   H     H_    0.445404 0.328794 0.170072 0.132081
H23   H     H_    0.500842 0.379328 0.284772 0.117782
H24   H     H_    0.492203 0.357065 0.092969 0.154201
H25   H     H_    0.100043 0.497676 0.885149 0.165370
H26   H     H_    0.175567 0.396514 0.879735 0.159780
H27   H     H_    0.083258 0.429526 0.947269 0.143756
H28   H     H_    0.265564 0.406194 0.992805 0.158515
H29   H     H_    0.188903 0.507163 0.998731 0.162356
H30   H     H_    0.267366 0.536906 0.892919 0.156184
H31   H     H_    0.337690 0.436269 0.881569 0.160399
H32   H     H_    0.640641 0.809830 0.357263 0.151072
H33   H     H_    0.689670 0.767399 0.275465 0.152682
H34   H     H_    0.341393 0.486733 0.063845 0.106155
H35   H     H_    0.564502 0.763983 0.303759 0.160421
H36   H     H_    0.699374 0.636974 0.319891 0.155593
H37   H     H_    0.650438 0.679660 0.401657 0.185483
H38   H     H_    0.805851 0.727835 0.416806 0.163446
H39   H     H_    0.855756 0.682147 0.336682 0.142060
H40   H     H_    0.355112 0.126475 0.258868 0.157784
H41   H     H_    0.280370 0.227852 0.251734 0.154478
H42   H     H_    0.398620 0.189831 0.204617 0.136356
H43   H     H_    0.431315 0.263068 0.306333 0.149258
H44   H     H_    0.504658 0.162158 0.314687 0.170909
H45   H     H_    0.643806 0.512644 0.937853 0.113362
H46   H     H_    0.364760 0.142106 0.388223 0.158911
H47   H     H_    0.293451 0.242335 0.382820 0.134795
H48   H     H_    0.660247 0.574332 0.720660 0.154978
H49   H     H_    0.731573 0.643456 0.733184 0.172481
H50   H     H_    0.614458 0.653291 0.780201 0.159788
H51   H     H_    0.579597 0.747663 0.683842 0.220701
H52   H     H_    0.505945 0.681567 0.672494 0.229879
H53   H     H_    0.646813 0.600654 0.595792 0.194331
H54   H     H_    0.713508 0.667888 0.600859 0.173390
H55   H     H_    0.649961 0.508506 0.064275 0.110351
H56   H     H_    0.367275 0.610353 0.840523 0.145436
H57   H     H_    0.618030 0.393659 0.719215 0.144397
H58   H     H_    0.614717 0.393443 0.845701 0.128652
N1    N     N_R   0.500010 0.316380 0.499980 -0.232931
N2    N     N_R   0.499860 0.683650 0.499960 -0.230630
O1    O     O_R   0.500040 0.438010 0.599820 -0.503021
O2    O     O_R   0.499990 0.561930 0.599810 -0.485748
O3    O     O_R   0.651020 0.407800 0.499990 -0.433842
O4    O     O_R   0.650970 0.531720 0.499980 -0.557329
O5    O     O_R   0.500010 0.438070 0.400190 -0.526453
O6    O     O_R   0.499960 0.561990 0.400180 -0.462962
O7    O     O_R   0.349030 0.468280 0.500020 -0.525212
O8    O     O_R   0.348980 0.592200 0.500010 -0.418554

loop_
_geom_bond_atom_site_label_1
_geom_bond_atom_site_label_2
_ccdc_geom_bond_type
C55   C56   S    
C52   H30   S    
C59   H47   S    
C22   H58   S    
C27   C29   A    
C41   C42   A    
C44   C66   A    
C19   C20   A    
C8    H23   S    
C12   C48   A    
C34   C66   A    
C41   N2    A    
C63   H51   S    
C18   H56   S    
C7    C8    A    
Cu2   O8    S    
C53   C54   S    
C2    C46   A    
C12   C23   A    
C26   C27   A    
C62   C63   S    
C65   H15   S    
C18   C24   A    
C21   C22   A    
C36   C37   A    
C9    C16   S    
C51   H17   S    
C5    C6    A    
C55   H39   S    
C30   N1    A    
Cu1   O3    S    
C10   C17   A    
C64   H48   S    
C35   H7    S    
C18   C19   A    
C39   C62   S    
C11   C52   S    
C51   H18   S    
C4    O4    A    
C30   H4    S    
C57   H36   S    
C35   C36   A    
C45   C56   A    
C53   H28   S    
C8    C9    A    
C14   H45   S    
C40   C67   A    
C28   O7    A    
C61   H42   S    
C26   H3    S    
C53   H29   S    
C58   H35   S    
C4    O3    A    
C5    H12   S    
Cu1   O5    S    
C38   Cl2   S    
C59   C60   S    
C13   C14   A    
C54   H27   S    
C10   H34   S    
Cu1   N1    S    
C40   C45   A    
C33   C43   S    
C40   H9    S    
C60   H44   S    
C7    C49   S    
C34   C45   A    
C50   H21   S    
Cu2   O6    S    
C25   C26   A    
C66   H11   S    
C28   C44   S    
Cu2   O2    S    
C31   C37   A    
C13   C24   S    
C60   C61   S    
C25   H2    S    
C47   H14   S    
C2    C4    S    
C29   C30   A    
C3    C9    A    
C51   H19   S    
Cu1   O1    S    
C47   C48   A    
C36   H8    S    
C50   C51   S    
C19   Cl1   S    
C50   H20   S    
C67   H1    S    
C49   H22   S    
C46   Cl4   S    
C63   H52   S    
Cu2   N2    S    
C15   H55   S    
C55   C57   S    
C61   H40   S    
C22   C24   A    
C54   H26   S    
C60   H43   S    
C16   O6    A    
C42   C43   A    
C12   C34   A    
C1    O1    A    
C61   H41   S    
C52   C53   S    
C31   H5    S    
C62   H53   S    
C39   N2    A    
C15   C17   A    
C6    C17   S    
C46   C47   A    
C52   H31   S    
C1    C20   S    
C59   H46   S    
C55   H38   S    
C31   C32   A    
C16   O5    A    
C42   H10   S    
Cu1   Cu2   S    
C3    C5    A    
C57   H37   S    
C6    C7    A    
C64   H50   S    
C3    H16   S    
C58   H32   S    
C32   C33   A    
C23   C65   A    
C38   C43   A    
C32   H6    S    
C11   C13   A    
C57   C58   S    
C38   C39   A    
Cu2   O4    S    
C27   C37   S    
C64   H49   S    
C33   C35   A    
C48   H13   S    
C21   H57   S    
C10   C11   A    
C49   H24   S    
C63   C64   S    
C62   H54   S    
Cu1   O7    S    
C20   C21   A    
C49   C50   S    
C2    C23   A    
C29   C59   S    
C14   C15   A    
C54   H25   S    
C44   C67   A    
C28   O8    A    
C58   H33   S    
C1    O2    A    
C25   N1    A    
C56   C65   A    
C41   Cl3   S    
