data_mof_unit_20985.cif
_audit_creation_date              2012-12-10T18:55:56-0500
_audit_creation_method            fapswitch 2.2
_symmetry_space_group_name_H-M    P1
_symmetry_Int_Tables_number       1
_space_group_crystal_system       triclinic
_cell_length_a                    10.879373
_cell_length_b                    9.941448
_cell_length_c                    15.015197
_cell_angle_alpha                 90.115355
_cell_angle_beta                  91.783584
_cell_angle_gamma                 90.104832
_cell_volume                      1623.20147849

loop_
_atom_site_label
_atom_site_type_symbol
_atom_type_description
_atom_site_fract_x
_atom_site_fract_y
_atom_site_fract_z
_atom_type_partial_charge
C1    C     C_R   0.260011 0.500059 0.498491 0.978147
C2    C     C_R   0.739933 0.500289 0.501710 0.972860
C3    C     C_R   0.498827 0.500035 0.328186 1.031996
C4    C     C_R   0.500460 0.500254 0.671922 1.024663
C5    C     C_R   0.556625 0.071353 0.567844 0.384292
C6    C     C_R   0.441753 0.928505 0.432667 0.368937
C7    C     C_R   0.443622 0.070804 0.432035 0.377689
C8    C     C_R   0.558498 0.929096 0.567210 0.371952
C9    C     C_R   0.061695 0.379019 0.492566 0.321284
C10   C     C_R   0.936595 0.624039 0.495131 0.309948
C11   C     C_R   0.937672 0.379901 0.510861 0.317330
C12   C     C_R   0.063613 0.624035 0.503170 0.312454
C13   C     C_R   0.570618 0.586422 0.093994 0.374560
C14   C     C_R   0.568237 0.410143 0.909575 0.367237
C15   C     C_R   0.407888 0.586123 0.902423 0.336961
C16   C     C_R   0.401785 0.419327 0.093740 0.335445
C17   C     C_R   0.574958 0.584579 0.187111 0.358751
C18   C     C_R   0.575257 0.414486 0.816801 0.359196
C19   C     C_R   0.414735 0.587536 0.809635 0.364253
C20   C     C_R   0.406040 0.420675 0.186890 0.367747
C21   C     C_R   0.493981 0.500763 0.232117 -0.284112
C22   C     C_R   0.497141 0.501024 0.768035 -0.285580
C23   C     C_R   0.485105 0.501802 0.048003 -0.230950
C24   C     C_R   0.485185 0.497281 0.951706 -0.232993
C25   C     C_R   0.872638 0.501460 0.503203 -0.381454
C26   C     C_R   0.127218 0.500945 0.497264 -0.382253
N1    N     N_R   0.500000 0.857200 0.500000 -0.271904
N2    N     N_R   0.500000 0.142800 0.500000 -0.259396
O1    O     O_R   0.316770 0.614620 0.499990 -0.606096
O2    O     O_R   0.683230 0.385380 0.500010 -0.607323
O3    O     O_R   0.683230 0.614620 0.500010 -0.607177
O4    O     O_R   0.316770 0.385380 0.499990 -0.606040
O5    O     O_R   0.499990 0.614660 0.369060 -0.596781
O6    O     O_R   0.500010 0.385340 0.630940 -0.600508
O7    O     O_R   0.500010 0.614660 0.630940 -0.593321
O8    O     O_R   0.499990 0.385340 0.369060 -0.600986
Zn1   Zn    Zn3+2 0.500000 0.653120 0.500000 0.985344
Zn2   Zn    Zn3+2 0.500000 0.346880 0.500000 0.995963
O9    O     O_3   0.616912 0.135332 0.637273 -0.665941
H1    H     H_    0.647709 0.220714 0.613615 0.395258
O10   O     O_3   0.376949 0.864945 0.364725 -0.682589
H2    H     H_    0.347082 0.778870 0.388074 0.382210
O11   O     O_3   0.383311 0.134264 0.362619 -0.665559
H3    H     H_    0.352129 0.219431 0.386436 0.395960
O12   O     O_3   0.623488 0.866166 0.635044 -0.683473
H4    H     H_    0.652605 0.779677 0.611819 0.381740
O13   O     O_3   0.652039 0.669742 0.050965 -0.738623
H5    H     H_    0.633477 0.672512 0.986203 0.364199
O14   O     O_3   0.645025 0.322247 0.956305 -0.735745
H6    H     H_    0.622467 0.316398 0.019395 0.361679
O15   O     O_3   0.326195 0.673142 0.941933 -0.741658
H7    H     H_    0.323745 0.658185 0.006842 0.364184
O16   O     O_3   0.316123 0.336617 0.050505 -0.739358
H8    H     H_    0.319428 0.345883 0.985162 0.360288
O17   O     O_3   0.658038 0.662035 0.236649 -0.761119
H9    H     H_    0.708761 0.717232 0.197126 0.385877
O18   O     O_3   0.659547 0.338413 0.771475 -0.745136
H10   H     H_    0.709900 0.283343 0.813473 0.398661
O19   O     O_3   0.341038 0.670715 0.757098 -0.757423
H11   H     H_    0.287994 0.726771 0.794451 0.384643
O20   O     O_3   0.323515 0.348143 0.236197 -0.752803
H12   H     H_    0.265709 0.297519 0.196496 0.395356
O21   O     O_3   0.118787 0.256813 0.478361 -0.581219
C27   C     C_3   0.083802 0.208922 0.392261 0.119516
H13   H     H_    0.144840 0.253563 0.342359 0.180981
H14   H     H_    0.986961 0.233115 0.371498 0.151612
C28   C     C_3   0.095513 0.056808 0.390081 -0.707811
H15   H     H_    0.027788 0.011813 0.434607 0.254977
H16   H     H_    0.078051 0.019099 0.321189 0.217585
H17   H     H_    0.188037 0.024987 0.413758 0.291518
O22   O     O_3   0.876165 0.745562 0.484443 -0.579190
C29   C     C_3   0.871880 0.777073 0.392681 0.142181
H18   H     H_    0.836748 0.690885 0.351670 0.174529
H19   H     H_    0.965067 0.803866 0.370029 0.156799
C30   C     C_3   0.786063 0.895747 0.376278 -0.749204
H20   H     H_    0.810095 0.980099 0.422176 0.250792
H21   H     H_    0.793006 0.930829 0.306460 0.220126
H22   H     H_    0.689948 0.864301 0.387119 0.274989
O23   O     O_3   0.880200 0.259257 0.529243 -0.583643
C31   C     C_3   0.913451 0.219616 0.617336 0.124535
H23   H     H_    0.848529 0.264604 0.664476 0.181694
H24   H     H_    0.008352 0.250336 0.639501 0.146359
C32   C     C_3   0.907732 0.067393 0.623617 -0.709163
H25   H     H_    0.980238 0.024028 0.582622 0.248101
H26   H     H_    0.922654 0.035040 0.693846 0.217892
H27   H     H_    0.818164 0.028786 0.597736 0.296386
O24   O     O_3   0.124390 0.745673 0.513785 -0.578960
C33   C     C_3   0.126897 0.778758 0.605418 0.141950
H28   H     H_    0.158393 0.692422 0.647409 0.170459
H29   H     H_    0.033706 0.808270 0.626470 0.158683
C34   C     C_3   0.215403 0.895263 0.622779 -0.753099
H30   H     H_    0.194533 0.979945 0.576811 0.249155
H31   H     H_    0.207834 0.931102 0.692464 0.220388
H32   H     H_    0.310948 0.861262 0.612980 0.280320

loop_
_geom_bond_atom_site_label_1
_geom_bond_atom_site_label_2
_ccdc_geom_bond_type
O24   C33   S    
O10   H2    S    
C14   C18   A    
O11   H3    S    
C9    O21   S    
O16   H8    S    
C15   C19   A    
O2    Zn2   S    
C32   H25   S    
O7    Zn1   S    
C29   C30   S    
C14   O14   S    
C3    O5    A    
C13   C23   A    
C14   C24   A    
C20   O20   S    
C16   O16   S    
C8    O12   S    
C6    N1    A    
C6    O10   S    
C23   C24   S    
C15   O15   S    
C17   O17   S    
C10   O22   S    
C4    O7    A    
O19   H11   S    
O6    Zn2   S    
C31   C32   S    
C10   C12   A    
C9    C26   A    
C4    O6    A    
C28   H15   S    
C27   C28   S    
C19   C22   A    
O23   C31   S    
C31   H24   S    
O9    H1    S    
C13   O13   S    
C29   H18   S    
C19   O19   S    
O12   H4    S    
C1    O4    A    
C17   C21   A    
C7    N2    A    
O15   H7    S    
C12   C26   A    
C2    O3    A    
C28   H16   S    
C27   H14   S    
C30   H20   S    
C34   H31   S    
C5    N2    A    
C4    C22   S    
C18   O18   S    
O13   H5    S    
C33   C34   S    
N2    Zn2   S    
C16   C20   A    
O17   H9    S    
C1    O1    A    
C20   C21   A    
C30   H21   S    
C11   O23   S    
C10   C25   A    
C29   H19   S    
C15   C24   A    
C32   H26   S    
C33   H29   S    
C16   C23   A    
O4    Zn2   S    
C9    C11   A    
C1    C26   S    
C3    C21   S    
C34   H30   S    
C7    O11   S    
C12   O24   S    
C18   C22   A    
C31   H23   S    
C5    C8    A    
C6    C7    A    
C13   C17   A    
C2    O2    A    
C28   H17   S    
C27   H13   S    
C5    O9    S    
O22   C29   S    
C34   H32   S    
O18   H10   S    
C3    O8    A    
N1    Zn1   S    
O8    Zn2   S    
C2    C25   S    
O20   H12   S    
C30   H22   S    
O5    Zn1   S    
O21   C27   S    
O3    Zn1   S    
C32   H27   S    
C33   H28   S    
O14   H6    S    
O1    Zn1   S    
C8    N1    A    
C11   C25   A    
