data_mof_unit_6164.cif
_audit_creation_date              2012-10-26T19:21:29-0400
_audit_creation_method            fapswitch 2.2
_symmetry_space_group_name_H-M    P1
_symmetry_Int_Tables_number       1
_space_group_crystal_system       triclinic
_cell_length_a                    9.996538
_cell_length_b                    10.981472
_cell_length_c                    15.553565
_cell_angle_alpha                 98.247802
_cell_angle_beta                  78.943871
_cell_angle_gamma                 111.612913
_cell_volume                      1552.94513032

loop_
_atom_site_label
_atom_site_type_symbol
_atom_type_description
_atom_site_fract_x
_atom_site_fract_y
_atom_site_fract_z
_atom_type_partial_charge
C1    C     C_R   0.557830 0.746301 0.505079 0.561461
C2    C     C_2   0.519633 0.067286 0.470808 -0.157076
C3    C     C_2   0.925783 0.489225 0.489947 0.140143
C4    C     C_2   0.074714 0.510801 0.510435 0.138926
C5    C     C_R   0.411538 0.482635 0.662921 0.536589
C6    C     C_R   0.587344 0.514193 0.336661 0.541787
C7    C     C_R   0.355558 0.446916 0.754264 -0.010471
C8    C     C_R   0.635276 0.513995 0.240738 -0.010800
C9    C     C_R   0.161881 0.325415 0.863192 -0.143602
C10   C     C_R   0.825964 0.542170 0.115226 -0.139431
C11   C     C_R   0.208339 0.373933 0.780231 -0.153601
C12   C     C_R   0.441663 0.253669 0.495513 0.569392
C13   C     C_R   0.782819 0.557018 0.205470 -0.147392
C14   C     C_R   0.454519 0.469620 0.812504 -0.126485
C15   C     C_R   0.531144 0.466581 0.183472 -0.131867
C16   C     C_R   0.413258 0.406107 0.890572 0.022939
C17   C     C_R   0.571108 0.443070 0.092701 0.021041
C18   C     C_R   0.263611 0.341463 0.918761 0.029553
C19   C     C_R   0.721494 0.485645 0.058716 0.031129
C20   C     C_R   0.516371 0.411316 0.943469 0.029405
C21   C     C_R   0.466786 0.388782 0.033828 0.029071
C22   C     C_3   0.262617 0.222207 0.135601 -0.272102
C23   C     C_R   0.317217 0.309093 0.058584 0.006481
C24   C     C_3   0.352978 0.135687 0.134265 -0.426925
C25   C     C_3   0.718367 0.386615 0.815995 -0.274398
C26   C     C_3   0.631813 0.243742 0.789541 -0.427204
C27   C     C_3   0.254100 0.016299 0.526277 -0.284207
C28   C     C_3   0.144869 0.079821 0.574757 -0.420525
C29   C     C_3   0.727695 0.982402 0.542845 -0.272348
C30   C     C_3   0.711479 0.969529 0.641166 -0.444394
C31   C     C_3   0.123875 0.606309 0.589669 -0.212700
C32   C     C_3   0.040251 0.550245 0.677048 -0.447664
C33   C     C_3   0.878595 0.394841 0.409945 -0.216250
C34   C     C_R   0.665527 0.430217 0.909803 0.005598
C35   C     C_3   0.968518 0.450091 0.323395 -0.442273
C36   C     C_R   0.218041 0.289207 0.000417 -0.129276
C37   C     C_R   0.766352 0.470961 0.968642 -0.130596
C38   C     C_2   0.593574 0.888880 0.504758 0.000558
C39   C     C_2   0.407193 0.111024 0.495195 0.003126
C40   C     C_2   0.502349 0.929340 0.472237 -0.158535
Cu1   Cu    Cu3+1 0.362980 0.479380 0.485080 0.881735
Cu2   Cu    Cu3+1 0.637020 0.520620 0.514920 0.888106
H1    H     H_    0.420296 0.455225 0.209933 0.129091
H2    H     H_    0.941157 0.576047 0.089501 0.106297
H3    H     H_    0.359601 0.079071 0.069370 0.152731
H4    H     H_    0.464522 0.195242 0.147753 0.160584
H5    H     H_    0.300593 0.065283 0.185816 0.131948
H6    H     H_    0.253392 0.277314 0.200219 0.130401
H7    H     H_    0.149174 0.153945 0.132034 0.132356
H8    H     H_    0.637092 0.177905 0.835754 0.145849
H9    H     H_    0.516420 0.229169 0.788257 0.168452
H10   H     H_    0.679587 0.216739 0.722412 0.139977
H11   H     H_    0.719507 0.450353 0.767056 0.148478
H12   H     H_    0.563153 0.539079 0.797050 0.115830
H13   H     H_    0.833428 0.393330 0.809808 0.127920
H14   H     H_    0.627914 0.134903 0.449115 0.122545
H15   H     H_    0.406242 0.857745 0.447994 0.144950
H16   H     H_    0.192996 0.155261 0.626697 0.163732
H17   H     H_    0.107704 0.123854 0.528219 0.170893
H18   H     H_    0.047477 0.003173 0.606652 0.120698
H19   H     H_    0.208900 0.952019 0.469004 0.135531
H20   H     H_    0.262502 0.952512 0.572933 0.143077
H21   H     H_    0.608766 0.982107 0.675721 0.148318
H22   H     H_    0.710484 0.871981 0.653250 0.165944
H23   H     H_    0.115207 0.370105 0.419288 0.200724
H24   H     H_    0.804587 0.046273 0.668823 0.124369
H25   H     H_    0.824855 0.959593 0.508347 0.146497
H26   H     H_    0.750046 0.086735 0.534071 0.139238
H27   H     H_    0.950195 0.587707 0.702312 0.116289
H28   H     H_    0.995714 0.441180 0.669717 0.152299
H29   H     H_    0.113425 0.581659 0.727805 0.136037
H30   H     H_    0.237721 0.634381 0.594764 0.219754
H31   H     H_    0.113680 0.702065 0.584044 0.076089
H32   H     H_    0.997816 0.558284 0.327782 0.156871
H33   H     H_    0.070511 0.428443 0.305683 0.127752
H34   H     H_    0.880710 0.622537 0.586003 0.202576
H35   H     H_    0.904858 0.404040 0.268681 0.134787
H36   H     H_    0.885150 0.297900 0.416345 0.069412
H37   H     H_    0.765474 0.369358 0.403342 0.215637
H38   H     H_    0.104033 0.231414 0.018534 0.098282
H39   H     H_    0.881119 0.492087 0.944077 0.100585
H40   H     H_    0.864613 0.604865 0.247420 0.122708
H41   H     H_    0.129746 0.351679 0.735995 0.120001
H42   H     H_    0.047147 0.271801 0.882740 0.102775
N1    N     N_2   0.842890 0.551600 0.537350 -0.354523
N2    N     N_2   0.157110 0.448400 0.462650 -0.356590
O1    O     O_R   0.426810 0.668300 0.492040 -0.522434
O2    O     O_R   0.573190 0.331700 0.507960 -0.516819
O3    O     O_R   0.658240 0.703130 0.517240 -0.486971
O4    O     O_R   0.341760 0.296870 0.482760 -0.489423
O5    O     O_R   0.319390 0.472820 0.610170 -0.507445
O6    O     O_R   0.680610 0.527180 0.389830 -0.504302
O7    O     O_R   0.550820 0.507640 0.635370 -0.493787
O8    O     O_R   0.449180 0.492360 0.364630 -0.492904

loop_
_geom_bond_atom_site_label_1
_geom_bond_atom_site_label_2
_ccdc_geom_bond_type
C1    O1    A    
C22   H6    S    
C35   H32   S    
C8    C13   A    
C30   H22   S    
C3    N1    D    
C34   C37   A    
Cu1   Cu2   S    
H23   N2    S    
C7    C11   A    
Cu1   N2    S    
C35   H33   S    
C24   H3    S    
C12   O4    A    
C25   H11   S    
C26   H8    S    
C33   H36   S    
C31   H31   S    
C4    N2    D    
C3    C33   S    
Cu2   O7    S    
C19   C37   A    
C17   C19   A    
C29   H25   S    
C2    C39   D    
C7    C14   A    
Cu1   O8    S    
C27   C39   S    
C6    O8    A    
C29   C38   S    
C27   H19   S    
Cu2   O6    S    
C25   C34   S    
C20   C34   A    
Cu1   O4    S    
C30   H21   S    
C37   H39   S    
C32   H29   S    
C28   H18   S    
Cu1   O1    S    
C12   O2    A    
C10   H2    S    
C36   H38   S    
C5    C7    S    
C32   H28   S    
C33   H37   S    
C6    C8    S    
C11   H41   S    
C25   C26   S    
C13   H40   S    
C35   H35   S    
C17   C21   A    
C29   C30   S    
C27   H20   S    
C26   H10   S    
C29   H26   S    
C31   C32   S    
C10   C19   A    
C16   C20   A    
Cu2   N1    S    
C30   H24   S    
C9    C11   A    
C5    O5    A    
C1    C38   S    
C22   H7    S    
C31   H30   S    
Cu1   O5    S    
C8    C15   A    
C21   C23   A    
C14   C16   A    
Cu2   O2    S    
C3    C4    S    
C28   H17   S    
C15   C17   A    
C1    O3    A    
C40   H15   S    
C14   H12   S    
C24   H5    S    
C25   H13   S    
C10   C13   A    
C5    O7    A    
C32   H27   S    
C28   H16   S    
Cu2   O3    S    
C24   H4    S    
C12   C39   S    
C15   H1    S    
C2    H14   S    
C26   H9    S    
C38   C40   D    
C6    O6    A    
C33   C35   S    
C22   C24   S    
C4    C31   S    
C9    H42   S    
C2    C40   S    
C9    C18   A    
C20   C21   A    
C16   C18   A    
C23   C36   A    
C27   C28   S    
C22   C23   S    
C18   C36   A    
H34   N1    S    
