data_mof_unit_37789.cif
_audit_creation_date              2012-12-11T17:37:48-0500
_audit_creation_method            fapswitch 2.2
_symmetry_space_group_name_H-M    P1
_symmetry_Int_Tables_number       1
_space_group_crystal_system       triclinic
_cell_length_a                    13.180554
_cell_length_b                    13.197958
_cell_length_c                    15.551265
_cell_angle_alpha                 117.000209
_cell_angle_beta                  63.42377
_cell_angle_gamma                 97.279307
_cell_volume                      2145.77042963

loop_
_atom_site_label
_atom_site_type_symbol
_atom_type_description
_atom_site_fract_x
_atom_site_fract_y
_atom_site_fract_z
_atom_type_partial_charge
C1    C     C_R   0.030021 0.832017 0.019737 -0.177994
C2    C     C_R   0.319530 0.526883 0.779958 -0.132454
C3    C     C_R   0.241996 0.484085 0.109461 0.687939
C4    C     C_R   0.693667 0.422468 0.215317 -0.095351
C5    C     C_R   0.979619 0.302514 0.702176 0.656662
C6    C     C_R   0.335932 0.541484 0.074344 -0.448304
C7    C     C_R   0.929138 0.204164 0.698695 -0.044912
C8    C     C_R   0.326051 0.452463 0.679261 0.020027
C9    C     C_R   0.096068 0.148187 0.950829 -0.065186
C10   C     C_R   0.233604 0.051108 0.170406 0.603272
C11   C     C_R   0.177262 0.035430 0.263781 -0.341420
C12   C     C_R   0.691238 0.467665 0.316000 0.058754
C13   C     C_R   0.058285 0.059584 0.323444 0.059751
C14   C     C_R   0.997935 0.111636 0.297360 -0.241358
C15   C     C_R   0.054601 0.133909 0.209071 0.690338
C16   C     C_R   0.741735 0.568649 0.938991 -0.123179
C17   C     C_R   0.170794 0.101709 0.144533 -0.446531
C18   C     C_R   0.990949 0.117491 0.509653 -0.127432
C19   C     C_R   0.912872 0.120526 0.607204 -0.001983
C20   C     C_R   0.831394 0.040591 0.611734 -0.179795
C21   C     C_R   0.841786 0.948440 0.515166 0.668272
C22   C     C_R   0.927929 0.941687 0.416581 -0.155832
C23   C     C_R   0.640258 0.545858 0.006339 0.169050
C24   C     C_R   0.994394 0.034622 0.415680 -0.007392
C25   C     C_R   0.738133 0.970004 0.751065 -0.098004
C26   C     C_R   0.669416 0.993275 0.858431 -0.104844
C27   C     C_R   0.600590 0.096677 0.930415 -0.118101
C28   C     C_R   0.950823 0.724074 0.315166 -0.059661
C29   C     C_R   0.596385 0.174789 0.894281 -0.140759
C30   C     C_R   0.665790 0.152479 0.787357 -0.129750
C31   C     C_R   0.739712 0.051383 0.715853 0.207611
C32   C     C_R   0.937932 0.425601 0.386452 0.099830
C33   C     C_R   0.830313 0.385456 0.405098 -0.147702
C34   C     C_R   0.960638 0.832730 0.319933 0.146083
C35   C     C_R   0.732756 0.459157 0.489103 0.060199
C36   C     C_R   0.744400 0.566312 0.563405 -0.096837
C37   C     C_R   0.852203 0.605072 0.545295 -0.152123
C38   C     C_R   0.948337 0.536523 0.454242 -0.159250
C39   C     C_R   0.530484 0.429985 0.567938 -0.247296
C40   C     C_R   0.662347 0.473598 0.038927 -0.059732
C41   C     C_R   0.420606 0.441282 0.579933 0.070496
C42   C     C_R   0.402715 0.461140 0.505353 0.072741
C43   C     C_R   0.494203 0.459574 0.416248 -0.233376
C44   C     C_R   0.603449 0.453028 0.405903 0.065448
C45   C     C_R   0.320308 0.579033 0.011522 0.467227
C46   C     C_R   0.622808 0.440677 0.483627 0.036431
C47   C     C_R   0.233692 0.418463 0.469292 -0.445209
C48   C     C_R   0.117731 0.441425 0.506313 0.888324
C49   C     C_R   0.060320 0.545437 0.594907 -0.185815
C50   C     C_R   0.120508 0.629458 0.641506 -0.251276
C51   C     C_R   0.236259 0.605712 0.606146 -0.082054
C52   C     C_R   0.025244 0.818818 0.216624 -0.175304
C53   C     C_R   0.291187 0.497644 0.523785 0.058650
C54   C     C_2   0.435616 0.562595 0.094006 0.767822
C55   C     C_2   0.532526 0.564635 0.013876 -0.386182
C56   C     C_R   0.909638 0.198077 0.790663 -0.265006
C57   C     C_2   0.904887 0.956195 0.006731 0.641473
C58   C     C_2   0.855618 0.038870 0.106950 -0.081860
C59   C     C_R   0.789033 0.519836 0.312182 -0.084763
C60   C     C_R   0.929862 0.744534 0.926650 -0.066528
C61   C     C_R   0.957206 0.849389 0.983203 -0.073231
C62   C     C_3   0.274226 0.408362 0.204694 0.015325
C63   C     C_3   0.376652 0.959817 0.997067 -0.290748
C64   C     C_3   0.331578 0.771264 0.089222 -0.174238
C65   C     C_R   0.217139 0.430213 0.689646 -0.107114
C66   C     C_R   0.107243 0.251516 0.027022 0.808977
C67   C     C_R   0.003834 0.169873 0.939666 -0.179851
F1    F     F_    0.196511 0.269213 0.050001 -0.771319
F2    F     F_    0.970527 0.361372 0.653804 -0.712234
F3    F     F_    0.995989 0.185546 0.185346 -0.766079
F4    F     F_    0.767983 0.866751 0.517311 -0.721771
F5    F     F_    0.059724 0.358313 0.462213 -0.711605
F6    F     F_    0.432480 0.571895 0.185876 -0.727620
F7    F     F_    0.882922 0.959853 0.930781 -0.737306
H1    H     H_    0.079691 0.895567 0.052125 0.095543
H2    H     H_    0.053038 0.179440 0.504742 0.203494
H3    H     H_    0.795717 0.892654 0.697637 0.125370
H4    H     H_    0.671912 0.932544 0.886510 0.152334
H5    H     H_    0.549959 0.116089 0.014192 0.162583
H6    H     H_    0.541896 0.254068 0.949792 0.115513
H7    H     H_    0.666478 0.216465 0.761682 0.128532
H8    H     H_    0.031193 0.568936 0.436744 0.142871
H9    H     H_    0.752107 0.610623 0.890480 0.110199
H10   H     H_    0.013141 0.373383 0.317049 0.190598
H11   H     H_    0.821719 0.303314 0.347427 0.167229
H12   H     H_    0.862171 0.138573 0.819723 0.176265
H13   H     H_    0.669822 0.624183 0.628740 0.126078
H14   H     H_    0.860903 0.689974 0.598957 0.127270
H15   H     H_    0.543524 0.421681 0.628670 0.137104
H16   H     H_    0.479042 0.475391 0.360020 0.153644
H17   H     H_    0.275821 0.335087 0.405471 0.166097
H18   H     H_    0.968914 0.560387 0.629158 0.169358
H19   H     H_    0.076515 0.710608 0.708251 0.170862
H20   H     H_    0.914836 0.704184 0.382232 0.142536
H21   H     H_    0.280940 0.667807 0.647702 0.131631
H22   H     H_    0.535650 0.560824 0.941510 0.159559
H23   H     H_    0.192100 0.372851 0.628046 0.128233
H24   H     H_    0.859588 0.033148 0.172841 0.088568
H25   H     H_    0.603022 0.429776 0.082210 0.124241
H26   H     H_    0.050094 0.881592 0.189000 0.113699
H27   H     H_    0.813935 0.563696 0.375138 0.130404
H28   H     H_    0.883797 0.726737 0.879708 0.118763
H29   H     H_    0.299757 0.462054 0.269648 0.164366
H30   H     H_    0.351642 0.366393 0.126729 0.111406
H31   H     H_    0.228452 0.339809 0.224752 0.157056
H32   H     H_    0.388302 0.021152 0.963530 0.175637
H33   H     H_    0.311687 0.901633 0.980302 0.142855
H34   H     H_    0.975618 0.109716 0.881793 0.204483
H35   H     H_    0.458239 0.905826 0.953701 0.186103
H36   H     H_    0.303849 0.760513 0.163383 0.126160
H37   H     H_    0.259506 0.815511 0.097702 0.156370
H38   H     H_    0.403036 0.825767 0.085765 0.203116
H39   H     H_    0.388774 0.564052 0.799590 0.154385
H40   H     H_    0.211975 0.114187 0.073443 0.221713
H41   H     H_    0.224447 0.997938 0.285862 0.156415
H42   H     H_    0.635824 0.366308 0.188115 0.095940
H43   H     H_    0.906826 0.134062 0.345167 0.151751
N1    N     N_R   0.037320 0.720000 0.995830 -0.029843
N2    N     N_R   0.824900 0.517970 0.936430 -0.045571
N3    N     N_R   0.003190 0.648180 0.211390 -0.061341
N4    N     N_R   0.774330 0.457010 0.995830 -0.059532
N5    N     N_R   0.053760 0.709130 0.151980 -0.055028
N6    N     N_R   0.853840 0.498830 0.211390 -0.050098
N7    N     N_R   0.974250 0.667320 0.936430 -0.041777
N8    N     N_R   0.225670 0.542990 0.004170 -0.121145
N9    N     N_R   0.946240 0.290870 0.848020 -0.077021
N10   N     N_R   0.146160 0.501170 0.788610 -0.042640
N11   N     N_R   0.025750 0.332680 0.063570 -0.104886
N12   N     N_R   0.962680 0.280000 0.004170 -0.081518
N13   N     N_R   0.209230 0.553860 0.848010 -0.039537
N14   N     N_R   0.175100 0.482030 0.063570 -0.129918
N15   N     N_R   0.996810 0.351820 0.788610 -0.108745
N16   N     N_R   0.790770 0.446140 0.151990 -0.042472
Ni1   Ni    Ni4+2 0.130310 0.630310 0.000000 0.220131
Ni2   Ni    Ni4+2 0.869690 0.369690 0.000000 0.216509
Ni3   Ni    Ni4+2 0.985660 0.509480 0.863750 0.257026
Ni4   Ni    Ni4+2 0.014340 0.490520 0.136250 0.257814
O1    O     O_3   0.198009 0.474861 0.204770 -0.634401
O2    O     O_3   0.349711 0.018431 0.107963 -0.629804
O3    O     O_3   0.368994 0.669782 0.991693 -0.649568

loop_
_geom_bond_atom_site_label_1
_geom_bond_atom_site_label_2
_ccdc_geom_bond_type
N8    Ni1   S    
C25   C31   A    
C66   F1    S    
C6    C45   A    
C27   C29   A    
C41   C42   A    
C37   H14   S    
C35   C36   A    
C58   H24   S    
C43   C44   A    
C3    C6    A    
N11   N12   A    
C25   H3    S    
C40   H25   S    
C39   C41   A    
C62   H31   S    
C67   N12   A    
C40   N4    A    
C26   C27   A    
C29   C30   A    
C21   F4    S    
C18   C24   A    
C65   N10   A    
C36   C37   A    
C48   F5    S    
C27   H5    S    
C42   C53   S    
C30   C31   A    
C2    H39   S    
C67   H34   S    
C64   H38   S    
C10   C17   A    
C23   C40   A    
C28   H20   S    
C18   C19   A    
C60   N7    A    
C33   H11   S    
C9    C66   A    
N5    Ni1   S    
C5    F2    S    
C33   C35   A    
N12   Ni2   S    
C12   C59   A    
C56   H12   S    
C5    N15   A    
C19   C20   A    
C45   N8    A    
C32   C38   A    
C4    C12   A    
C11   H41   S    
N1    Ni1   S    
C47   C53   A    
C28   C34   A    
C8    C65   A    
C13   C14   A    
C38   H8    S    
N13   Ni1   S    
C47   H17   S    
C7    C56   A    
C6    C54   S    
C60   H28   S    
C44   C46   A    
C17   H40   S    
C62   H30   S    
N2    N4    A    
C36   H13   S    
C59   N6    A    
C22   C34   S    
C43   H16   S    
N7    Ni3   S    
C59   H27   S    
C8    C41   S    
C28   N3    A    
C16   N2    A    
C5    C7    A    
C64   H37   S    
C25   C26   A    
C52   H26   S    
C16   H9    S    
C62   O1    S    
C13   C24   S    
C60   C61   A    
C51   C53   A    
C1    H1    S    
C57   F7    S    
C63   H35   S    
N11   Ni4   S    
C9    C67   A    
C37   C38   A    
N14   Ni4   S    
C54   F6    S    
N8    N14   A    
C64   H36   S    
C47   C48   A    
N9    N15   A    
N15   Ni3   S    
C14   H43   S    
C50   C51   A    
C3    O1    S    
N1    N7    A    
N10   Ni3   S    
C63   H32   S    
C23   C55   S    
C39   C46   A    
C48   C49   A    
N6    N16   A    
N9    Ni2   S    
C16   C23   A    
C7    C19   S    
C26   H4    S    
C3    N14   A    
C10   O2    S    
C49   H18   S    
C63   H33   S    
C56   N9    A    
N3    N5    A    
C62   H29   S    
C64   O3    S    
C15   C17   A    
C15   F3    S    
C54   C55   D    
C18   H2    S    
C63   O2    S    
C4    H42   S    
C2    C8    A    
C32   H10   S    
C55   H22   S    
C1    C61   A    
C52   N5    A    
C50   H19   S    
C57   C61   S    
N6    Ni4   S    
C34   C52   A    
N2    Ni3   S    
C32   C33   A    
C30   H7    S    
N10   N13   A    
C65   H23   S    
C12   C44   S    
C11   C13   A    
C57   C58   D    
C29   H6    S    
C2    N13   A    
C66   N11   A    
C22   C24   A    
C1    N1    A    
C45   O3    S    
C10   C11   A    
C20   C21   A    
N4    Ni2   S    
C49   C50   A    
C42   C43   A    
N16   Ni2   S    
C14   C15   A    
N3    Ni4   S    
C21   C22   A    
C35   C46   S    
C39   H15   S    
C51   H21   S    
C4    N16   A    
C20   C31   S    
