data_mof_unit_23402.cif
_audit_creation_date              2013-03-05T15:45:48-0500
_audit_creation_method            fapswitch 2.2
_symmetry_space_group_name_H-M    P1
_symmetry_Int_Tables_number       1
_space_group_crystal_system       triclinic
_cell_length_a                    9.833022
_cell_length_b                    11.04513
_cell_length_c                    15.790141
_cell_angle_alpha                 94.401162
_cell_angle_beta                  78.448155
_cell_angle_gamma                 110.797849
_cell_volume                      1570.67028426

loop_
_atom_site_label
_atom_site_type_symbol
_atom_site_description
_atom_site_fract_x
_atom_site_fract_y
_atom_site_fract_z
_atom_type_partial_charge
O1    O     O_R   0.426810 0.668300 0.492040 -0.551161
O2    O     O_R   0.573190 0.331700 0.507960 -0.570032
O3    O     O_R   0.658240 0.703130 0.517240 -0.535091
O4    O     O_R   0.341760 0.296870 0.482760 -0.521387
C1    C     C_R   0.555777 0.745072 0.506256 0.836259
C2    C     C_R   0.443960 0.254891 0.495005 0.856086
O5    O     O_R   0.319390 0.472820 0.610170 -0.580838
O6    O     O_R   0.680610 0.527180 0.389830 -0.595344
O7    O     O_R   0.550820 0.507640 0.635370 -0.525702
O8    O     O_R   0.449180 0.492360 0.364630 -0.540124
C3    C     C_R   0.411135 0.491632 0.663217 0.793105
C4    C     C_R   0.589994 0.512991 0.336552 0.789619
Cu1   Cu    Cu3+1 0.362980 0.479380 0.485080 1.070694
Cu2   Cu    Cu3+1 0.637020 0.520620 0.514920 1.063859
C5    C     C_R   0.356978 0.495298 0.757791 -0.085720
C6    C     C_R   0.643454 0.515290 0.241367 -0.091152
C7    C     C_R   0.193045 0.534930 0.885227 -0.181186
C8    C     C_R   0.814301 0.494828 0.111140 -0.181413
C9    C     C_R   0.229427 0.526815 0.795075 0.136057
C10   C     C_R   0.788275 0.520726 0.200275 0.129940
C11   C     C_R   0.444237 0.476399 0.812278 -0.180438
C12   C     C_R   0.539563 0.504621 0.189127 -0.174075
C13   C     C_R   0.406412 0.481209 0.902746 0.093398
C14   C     C_R   0.575472 0.503194 0.098882 0.094547
C15   C     C_R   0.283544 0.518744 0.938231 0.080145
C16   C     C_R   0.706879 0.481067 0.061351 0.071812
C17   C     C_R   0.497991 0.466304 0.957952 -0.026128
C18   C     C_R   0.478047 0.510670 0.045606 -0.022527
C19   C     C_R   0.365483 0.565339 0.075304 0.244248
C20   C     C_R   0.612483 0.413369 0.929021 0.251136
C21   C     C_R   0.263265 0.557861 0.024220 -0.225956
C22   C     C_R   0.723465 0.434574 0.976899 -0.222176
H1    H     H_    0.177809 0.598846 0.048705 0.160017
H2    H     H_    0.815565 0.401950 0.951332 0.173422
H3    H     H_    0.426223 0.489374 0.219114 0.209744
H4    H     H_    0.549924 0.470187 0.782702 0.222948
H5    H     H_    0.100458 0.565408 0.914071 0.130786
H6    H     H_    0.918356 0.484069 0.080592 0.131975
H7    H     H_    0.631283 0.134313 0.498590 0.220407
H8    H     H_    0.367517 0.870818 0.530356 0.214461
C23   C     C_2   0.590203 0.884343 0.506282 -0.286076
C24   C     C_2   0.410232 0.115986 0.499038 -0.294146
C25   C     C_2   0.482260 0.932840 0.515307 -0.116809
C26   C     C_2   0.516884 0.070281 0.504091 -0.104915
H9    H     H_    0.296810 0.050973 0.500681 0.196075
H10   H     H_    0.705593 0.947656 0.495998 0.192669
N1    N     N_2   0.842890 0.551600 0.537350 -0.059375
N2    N     N_2   0.157110 0.448400 0.462650 -0.066343
C27   C     C_2   0.912184 0.470022 0.522521 0.358706
C28   C     C_2   0.077987 0.521621 0.488721 0.320939
C29   C     C_3   0.917010 0.550415 0.246613 -0.376488
C30   C     C_3   0.927853 0.427211 0.277187 -0.707177
H11   H     H_    0.829030 0.376581 0.326025 0.257206
H12   H     H_    0.938225 0.360853 0.221696 0.250671
H13   H     H_    0.028086 0.453303 0.306457 0.276111
H14   H     H_    0.021672 0.600872 0.201636 0.229326
H15   H     H_    0.912708 0.619912 0.300650 0.248103
C31   C     C_3   0.143778 0.573077 0.742803 -0.350506
C32   C     C_3   0.235197 0.709445 0.708246 -0.726498
H16   H     H_    0.344363 0.713627 0.670121 0.228216
H17   H     H_    0.176330 0.740000 0.665879 0.276815
H18   H     H_    0.253510 0.779324 0.762898 0.257823
H19   H     H_    0.107430 0.504367 0.690131 0.254819
H20   H     H_    0.039312 0.577336 0.783618 0.223527
Br1   Br    Br    0.362459 0.681972 0.172846 -0.499460
Br2   Br    Br    0.608719 0.284807 0.838702 -0.450796
Br3   Br    Br    0.160601 0.697364 0.449627 -0.476464
Br4   Br    Br    0.832667 0.321435 0.597177 -0.413042
Br5   Br    Br    0.061750 0.277476 0.425291 -0.411732
Br6   Br    Br    0.879550 0.655330 0.636686 -0.395395

loop_
_geom_bond_atom_site_label_1
_geom_bond_atom_site_label_2
_geom_bond_distance
_ccdc_geom_bond_type
C15   C21   1.390217 A    
Cu1   N2    2.029053 S    
O5    C3    1.304384 A    
C23   H10   1.087633 S    
C21   H1    1.083351 S    
N1    Br6   1.886863 S    
C16   C22   1.391341 A    
H7    C26   1.085556 S    
C29   H15   1.107748 S    
C27   Br4   1.926368 S    
C13   C17   1.428135 A    
O7    C3    1.307200 A    
C28   Br3   1.916276 S    
C8    C16   1.398988 A    
C30   H13   1.108312 S    
O6    C4    1.306536 A    
N2    Br5   1.893355 S    
O7    Cu2   1.914734 S    
C7    C15   1.399473 A    
N2    C28   1.302417 D    
C8    H6    1.083307 S    
C32   H16   1.107719 S    
N1    C27   1.292551 D    
C11   H4    1.074301 S    
C20   Br2   1.929921 S    
Cu1   Cu2   2.700836 S    
C17   C20   1.427745 A    
C20   C22   1.392493 A    
C12   H3    1.078064 S    
C23   C25   1.328633 D    
C14   C16   1.405652 A    
O2    C2    1.299312 A    
O3    Cu2   1.949754 S    
C24   C26   1.332918 D    
C25   C26   1.449779 S    
C19   C21   1.386811 A    
C19   Br1   1.933129 S    
O8    C4    1.308156 A    
C12   C14   1.398021 A    
C18   C19   1.425791 A    
C7    C9    1.400584 A    
C30   H12   1.110884 S    
C27   C28   1.518560 S    
C10   C29   1.511499 S    
C8    C10   1.405056 A    
C13   C15   1.412229 A    
C9    C31   1.516689 S    
C31   H20   1.112319 S    
O2    Cu2   1.955118 S    
O1    C1    1.303364 A    
C32   H17   1.106778 S    
O1    Cu1   1.955116 S    
C6    C10   1.423956 A    
C29   C30   1.523379 S    
C14   C18   1.421915 A    
C5    C11   1.403697 A    
C30   H11   1.109876 S    
O4    C2    1.297973 A    
C29   H14   1.111227 S    
C2    C24   1.453649 S    
C31   H19   1.106786 S    
C1    C23   1.452929 S    
C32   H18   1.110921 S    
C7    H5    1.085195 S    
O5    Cu1   1.936796 S    
O6    Cu2   1.936794 S    
O3    C1    1.293662 A    
C31   C32   1.530571 S    
C5    C9    1.422567 A    
Cu2   N1    2.029054 S    
C3    C5    1.484190 S    
C11   C13   1.404056 A    
O8    Cu1   1.914731 S    
H8    C25   1.080498 S    
C4    C6    1.488584 S    
O4    Cu1   1.949755 S    
C6    C12   1.405342 A    
C17   C18   1.431674 A    
C24   H9    1.087517 S    
C22   H2    1.084415 S    
