data_mof_unit_55089.cif
_audit_creation_date              2012-12-11T19:42:15-0500
_audit_creation_method            fapswitch 2.2
_symmetry_space_group_name_H-M    P1
_symmetry_Int_Tables_number       1
_space_group_crystal_system       triclinic
_cell_length_a                    8.191154
_cell_length_b                    15.086238
_cell_length_c                    26.972035
_cell_angle_alpha                 98.570222
_cell_angle_beta                  92.802649
_cell_angle_gamma                 81.009333
_cell_volume                      3254.20519285

loop_
_atom_site_label
_atom_site_type_symbol
_atom_type_description
_atom_site_fract_x
_atom_site_fract_y
_atom_site_fract_z
_atom_type_partial_charge
Ba1   Ba    Ba6+2 0.860050 0.456430 0.522530 1.641767
Ba2   Ba    Ba6+2 0.329780 0.543490 0.477460 1.638891
C1    C     C_3   0.673380 0.134940 0.647760 -0.124261
C2    C     C_R   0.906610 0.590154 0.180141 0.577641
C3    C     C_2   0.752443 0.559233 0.273198 -0.083647
C4    C     C_3   0.195939 0.260575 0.654416 0.292078
C5    C     C_3   0.731539 0.589325 0.328626 -0.046907
C6    C     C_1   0.983847 0.484484 0.342502 0.034834
C7    C     C_2   0.025070 0.479373 0.294572 -0.105746
C8    C     C_2   0.901652 0.516544 0.256315 0.193021
C9    C     C_R   0.025913 0.508662 0.102042 -0.083194
C10   C     C_R   0.064379 0.430419 0.125733 -0.028613
C11   C     C_R   0.144904 0.350803 0.098146 -0.060488
C12   C     C_3   0.685522 0.226206 0.630806 0.333954
C13   C     C_R   0.947985 0.588935 0.129741 -0.061418
C14   C     C_2   0.844393 0.531747 0.360751 -0.290697
C15   C     C_2   0.358265 0.482360 0.640717 -0.313869
C16   C     C_3   0.172454 0.243562 0.707463 -0.359786
C17   C     C_R   0.202688 0.426403 0.973770 0.019860
C18   C     C_R   0.042409 0.578523 0.974006 0.019659
C19   C     C_R   0.142053 0.501426 0.948460 0.053523
C20   C     C_R   0.309628 0.353551 0.947584 -0.102647
C21   C     C_R   0.350597 0.353408 0.897930 -0.062455
C22   C     C_R   0.285536 0.425364 0.871815 -0.035367
C23   C     C_3   0.498660 0.696244 0.634992 0.313872
C24   C     C_R   0.179548 0.499026 0.896893 -0.078713
C25   C     C_R   0.109833 0.570064 0.870381 -0.026652
C26   C     C_R   0.152021 0.568530 0.819929 0.563386
C27   C     C_R   0.324557 0.425000 0.821167 0.606601
C28   C     C_3   0.217492 0.264568 0.412024 0.314313
C29   C     C_2   0.466115 0.485570 0.729864 0.161650
C30   C     C_3   0.507558 0.488852 0.675429 0.014191
C31   C     C_1   0.211133 0.518762 0.657236 0.058931
C32   C     C_2   0.171913 0.515455 0.704105 -0.139204
C33   C     C_2   0.304805 0.497324 0.743634 0.221529
C34   C     C_3   0.453886 0.744431 0.687635 0.216311
C35   C     C_R   0.153864 0.426544 0.024009 0.026809
C36   C     C_R   0.066298 0.506891 0.050768 0.030866
C37   C     C_R   0.021097 0.585827 0.026957 -0.001778
C38   C     C_R   0.189265 0.348873 0.048624 -0.099037
C39   C     C_R   0.919886 0.668311 0.107505 -0.032491
C40   C     C_3   0.236834 0.162210 0.396883 -0.387547
C41   C     C_R   0.960390 0.643240 0.944853 -0.114016
C42   C     C_R   0.996260 0.640379 0.894602 -0.068096
C43   C     C_R   0.960798 0.668920 0.057945 0.118737
C44   C     C_R   0.840923 0.830618 0.462560 -0.001951
C45   C     C_3   0.035383 0.734525 0.343183 0.340316
C46   C     C_R   0.775236 0.923956 0.466980 -0.031497
C47   C     C_R   0.642322 0.111588 0.478765 -0.033876
C48   C     C_R   0.784807 0.077226 0.450598 -0.044285
C49   C     C_R   0.851925 0.985645 0.445766 -0.100468
C50   C     C_R   0.577247 0.205286 0.486565 0.048332
C51   C     C_R   0.433161 0.235039 0.513624 -0.296749
C52   C     C_3   0.976555 0.733638 0.585079 0.299119
C53   C     C_R   0.611520 0.802867 0.508637 0.037403
C54   C     C_R   0.546528 0.895638 0.515075 -0.028111
C55   C     C_R   0.627112 0.956388 0.493494 0.008736
C56   C     C_3   0.051835 0.757163 0.290713 -0.304393
C57   C     C_R   0.404145 0.929438 0.543055 -0.040962
C58   C     C_R   0.337912 0.020201 0.548038 -0.108070
C59   C     C_R   0.414465 0.081701 0.526803 -0.038588
C60   C     C_R   0.561822 0.050056 0.499867 0.007721
C61   C     C_R   0.347970 0.174133 0.532007 -0.005700
C62   C     C_R   0.753474 0.771111 0.481212 -0.304358
C63   C     C_3   0.947548 0.836226 0.599540 -0.380177
C64   C     C_3   0.694120 0.344222 0.372125 0.298726
C65   C     C_3   0.700972 0.321852 0.315321 -0.362260
C66   C     C_3   0.441453 0.725778 0.771304 0.260719
C67   C     C_3   0.488179 0.786605 0.368387 0.368109
C68   C     C_3   0.600696 0.751265 0.798071 -0.209542
C69   C     C_3   0.571479 0.787657 0.853324 -0.493543
C70   C     C_3   0.436169 0.878680 0.351168 -0.367768
C71   C     C_R   0.021369 0.433283 0.176467 0.598856
H1    H     H_    0.804005 0.221009 0.611540 0.105358
H2    H     H_    0.813192 0.363870 0.387031 0.011506
H3    H     H_    0.593245 0.401663 0.381585 0.080884
H4    H     H_    0.669930 0.082675 0.614151 0.072119
H5    H     H_    0.807191 0.268008 0.304652 0.135170
H6    H     H_    0.715578 0.382946 0.298716 0.070079
H7    H     H_    0.584572 0.298016 0.299980 0.134018
H8    H     H_    0.581459 0.240247 0.603949 -0.050847
H9    H     H_    0.556610 0.139821 0.667960 0.120136
H10   H     H_    0.391522 0.664618 0.617862 -0.011208
H11   H     H_    0.607896 0.643064 0.637243 0.050903
H12   H     H_    0.323385 0.141080 0.365385 0.128303
H13   H     H_    0.323440 0.778859 0.686281 0.038697
H14   H     H_    0.536310 0.796578 0.698763 0.054699
H15   H     H_    0.223505 0.295519 0.734435 0.131037
H16   H     H_    0.117963 0.669856 0.346880 0.091791
H17   H     H_    0.905183 0.726320 0.347923 -0.052773
H18   H     H_    0.161866 0.790775 0.288571 0.148494
H19   H     H_    0.067276 0.693760 0.263684 0.117715
H20   H     H_    0.940229 0.803155 0.280162 0.121232
H21   H     H_    0.625570 0.772990 0.368857 -0.069099
H22   H     H_    0.444050 0.790392 0.407057 0.077712
H23   H     H_    0.286258 0.126910 0.428835 0.060898
H24   H     H_    0.494269 0.930952 0.376308 0.068706
H25   H     H_    0.299960 0.898014 0.352404 0.147788
H26   H     H_    0.134531 0.330408 0.651090 0.083973
H27   H     H_    0.476712 0.876595 0.312267 0.123096
H28   H     H_    0.149390 0.450074 0.283122 0.130605
H29   H     H_    0.174927 0.289111 0.114902 0.121987
H30   H     H_    0.433844 0.295977 0.879919 0.120302
H31   H     H_    0.367435 0.296272 0.964949 0.069455
H32   H     H_    0.248004 0.284363 0.030065 0.068887
H33   H     H_    0.656480 0.584505 0.247441 0.119209
H34   H     H_    0.114895 0.141587 0.384963 0.120542
H35   H     H_    0.872053 0.732456 0.129528 0.135941
H36   H     H_    0.862978 0.695314 0.959721 0.075158
H37   H     H_    0.330035 0.255256 0.647999 -0.022983
H38   H     H_    0.933298 0.693461 0.874577 0.114006
H39   H     H_    0.043286 0.527526 0.714391 0.137160
H40   H     H_    0.825502 0.545284 0.400875 0.083025
H41   H     H_    0.372202 0.448831 0.602294 0.076440
H42   H     H_    0.847833 0.120193 0.432085 0.102742
H43   H     H_    0.963381 0.963835 0.424638 0.105427
H44   H     H_    0.226718 0.041065 0.569311 0.108948
H45   H     H_    0.859154 0.710147 0.571893 0.004240
H46   H     H_    0.339487 0.886648 0.561185 0.106326
H47   H     H_    0.382401 0.306335 0.518382 0.070764
H48   H     H_    0.038740 0.248493 0.714503 0.131803
H49   H     H_    0.803408 0.699762 0.477859 0.065870
H50   H     H_    0.236855 0.175236 0.713136 0.120908
H51   H     H_    0.340118 0.284499 0.421922 0.002587
H52   H     H_    0.136127 0.283378 0.444833 0.066245
H53   H     H_    0.394304 0.677370 0.792122 0.124436
H54   H     H_    0.343488 0.786411 0.772771 0.046785
H55   H     H_    0.698114 0.690712 0.795274 0.153243
H56   H     H_    0.066022 0.716131 0.554398 0.080228
H57   H     H_    0.645875 0.804055 0.780050 0.120075
H58   H     H_    0.471880 0.847153 0.857115 0.141251
H59   H     H_    0.686358 0.809271 0.871329 0.143678
H60   H     H_    0.536214 0.734153 0.873055 0.138819
H61   H     H_    0.922888 0.101705 0.661235 0.206333
H62   H     H_    0.815689 0.154373 0.712209 0.220109
H63   H     H_    0.672225 0.420447 0.760604 0.217571
H64   H     H_    0.667814 0.532977 0.763185 0.175294
H65   H     H_    0.849158 0.783233 0.030652 0.173064
H66   H     H_    0.058591 0.754921 0.018686 0.186988
H67   H     H_    0.851423 0.856007 0.628435 0.139903
H68   H     H_    0.905959 0.869902 0.566369 0.062798
H69   H     H_    0.064217 0.859954 0.614731 0.112716
N1    N     N_R   0.943448 0.512861 0.203522 -0.420275
N2    N     N_R   0.260488 0.497002 0.795735 -0.418532
N3    N     N_3   0.813233 0.105819 0.680293 -0.492313
N4    N     N_3   0.596350 0.483152 0.767473 -0.471547
N5    N     N_3   0.965557 0.756767 0.044134 -0.507767
O1    O     O_2   0.906480 0.548660 0.619050 -0.470722
O2    O     O_2   0.182025 0.824779 0.471804 -0.488440
O3    O     O_3   0.081292 0.804827 0.378539 -0.608948
O4    O     O_3   0.138490 0.548590 0.558870 -0.491341
O5    O     O_3   0.572560 0.389960 0.472890 -0.488288
O6    O     O_2   0.345660 0.723580 0.528500 -0.466926
O7    O     O_3   0.539125 0.761396 0.607722 -0.689974
O8    O     O_2   0.404833 0.544449 0.323546 -0.499468
O9    O     O_3   0.418663 0.719477 0.335813 -0.592749
O10   O     O_2   0.051492 0.364477 0.196175 -0.596457
O11   O     O_2   0.415071 0.360021 0.799676 -0.601289
O12   O     O_3   0.665455 0.267316 0.391630 -0.639370
O13   O     O_2   0.838569 0.660988 0.203321 -0.622693
O14   O     O_2   0.093755 0.631827 0.797850 -0.618868
O15   O     O_3   0.686300 0.382310 0.585700 -0.481892
O16   O     O_2   0.850970 0.423805 0.670489 -0.507145
O17   O     O_3   0.036774 0.694104 0.627335 -0.626444
O18   O     O_3   0.674029 0.295419 0.672162 -0.615055
O19   O     O_2   0.844040 0.276390 0.471470 -0.469186
O20   O     O_3   0.101510 0.335500 0.560330 -0.485398
O21   O     O_2   0.005351 0.176445 0.529104 -0.488206
O22   O     O_3   0.473379 0.681332 0.721932 -0.693095
O23   O     O_3   0.125160 0.196272 0.620621 -0.618837
O24   O     O_2   0.283210 0.451310 0.380920 -0.463046
O25   O     O_3   0.051220 0.451340 0.441120 -0.498217
O26   O     O_3   0.503410 0.617620 0.414290 -0.476821
O27   O     O_3   0.149883 0.306119 0.371211 -0.624223
O28   O     O_3   0.617150 0.609960 0.527100 -0.473414
O29   O     O_3   0.088210 0.664420 0.439670 -0.490134
P1    P     P_3+3 0.071950 0.575820 0.612140 1.008809
P2    P     P_3+3 0.664370 0.290050 0.457240 0.975640
P3    P     P_3+3 0.145115 0.219179 0.559749 0.927258
P4    P     P_3+3 0.117760 0.424110 0.387850 0.989973
P5    P     P_3+3 0.048052 0.781721 0.438516 0.936435
P6    P     P_3+3 0.680445 0.399560 0.651124 0.947586
P7    P     P_3+3 0.532537 0.723850 0.543263 0.934724
P8    P     P_3+3 0.513932 0.613646 0.349645 0.945854

loop_
_geom_bond_atom_site_label_1
_geom_bond_atom_site_label_2
_ccdc_geom_bond_type
O20   P3    S    
C53   C54   A    
O1    P1    D    
C39   H35   S    
O27   P4    S    
C67   C70   S    
C32   H39   S    
C19   C24   A    
C14   H40   S    
C2    N1    Am   
C70   H27   S    
O9    P8    S    
C51   H47   S    
C20   H31   S    
C46   C55   A    
C52   C63   S    
C70   H25   S    
H66   N5    S    
C34   O22   S    
C15   C31   D    
C5    P8    S    
C40   H23   S    
O18   P6    S    
C12   H1    S    
C44   P5    S    
C30   P6    S    
C17   C19   A    
C56   H20   S    
C22   C24   A    
O15   P6    S    
C35   C38   A    
Ba2   O26   S    
C71   N1    Am   
C36   C37   A    
C32   C33   S    
O4    P1    S    
Ba1   O20   S    
C63   H67   S    
C71   O10   D    
C68   H57   S    
C61   P3    S    
C54   C55   A    
Ba2   O24   S    
Ba1   O5    S    
Ba1   Ba2   S    
Ba1   P2    S    
C59   C61   A    
C22   C27   A    
C11   C38   A    
C17   C35   A    
Ba2   O29   S    
C69   H59   S    
C29   N4    S    
Ba1   P1    S    
C25   C42   A    
C46   C49   A    
C21   H30   S    
O6    P7    D    
O26   P8    S    
C6    C7    D    
H62   N3    S    
C26   O14   D    
C23   H11   S    
C21   C22   A    
C68   C69   S    
O19   P2    D    
C56   H18   S    
C16   H50   S    
C37   C43   A    
O25   P4    S    
C64   C65   S    
C28   H52   S    
C57   C58   A    
C6    C14   D    
C10   C71   A    
O7    P7    S    
O16   P6    D    
O2    P5    D    
C4    H37   S    
C65   H5    S    
Ba2   P4    S    
C7    C8    S    
C64   O12   S    
C15   H41   S    
C48   C49   A    
O3    P5    S    
C3    H33   S    
C34   H14   S    
Ba2   O5    S    
O29   P5    S    
C4    C16   S    
C44   C46   A    
C67   O9    S    
C31   P1    S    
H64   N4    S    
C55   C60   A    
C17   C20   A    
C65   H6    S    
C13   C39   A    
C67   H21   S    
C3    C5    S    
C18   C37   A    
O8    P8    D    
C16   H48   S    
C34   H13   S    
C27   N2    Am   
C16   H15   S    
C44   C62   A    
C58   C59   A    
C4    O23   S    
C9    C36   A    
C41   C42   A    
C35   C36   A    
Ba2   O28   S    
C63   H68   S    
C66   O22   S    
C6    P4    S    
C29   C30   S    
C45   O3    S    
H65   N5    S    
C47   C50   A    
C64   H3    S    
C53   C62   A    
C1    H9    S    
C31   C32   D    
C24   C25   A    
C58   H44   S    
C40   H12   S    
C18   C19   A    
C12   O18   S    
C66   H54   S    
C1    C12   S    
C26   N2    Am   
C66   C68   S    
C5    C14   S    
C28   H51   S    
Ba1   O15   S    
C45   H16   S    
Ba2   O6    S    
C9    C13   A    
C52   H45   S    
C45   H17   S    
C29   C33   D    
O24   P4    D    
O12   P2    S    
C70   H24   S    
C1    H4    S    
C66   H53   S    
C18   C41   A    
C50   C51   A    
O28   P7    S    
C40   H34   S    
C68   H55   S    
Ba2   O4    S    
H61   N3    S    
Ba1   O28   S    
C57   H46   S    
C47   C60   A    
C23   O7    S    
C43   N5    S    
C52   H56   S    
C65   H7    S    
C67   H22   S    
C69   H60   S    
C9    C10   A    
C1    N3    S    
C27   O11   D    
O21   P3    D    
C33   N2    S    
Ba1   O25   S    
C49   H43   S    
C54   C57   A    
O23   P3    S    
C4    H26   S    
C2    C13   A    
C3    C8    D    
C39   C43   A    
C48   H42   S    
C45   C56   S    
C63   H69   S    
C51   C61   A    
C2    O13   D    
Ba1   O19   S    
C62   H49   S    
C64   H2    S    
Ba1   O4    S    
C8    N1    S    
O5    P2    S    
C59   C60   A    
C50   P2    S    
C23   C34   S    
C69   H58   S    
C42   H38   S    
C10   C11   A    
C7    H28   S    
C47   C48   A    
C25   C26   A    
C23   H10   S    
C15   C30   S    
C53   P7    S    
C20   C21   A    
C28   C40   S    
Ba1   O1    S    
C41   H36   S    
C12   H8    S    
C52   O17   S    
C11   H29   S    
C56   H19   S    
C28   O27   S    
H63   N4    S    
O17   P1    S    
Ba2   O25   S    
C38   H32   S    
