data_mof_unit_10313.cif
_audit_creation_date              2012-12-11T15:07:09-0500
_audit_creation_method            fapswitch 2.2
_symmetry_space_group_name_H-M    P1
_symmetry_Int_Tables_number       1
_space_group_crystal_system       triclinic
_cell_length_a                    19.703554
_cell_length_b                    11.373843
_cell_length_c                    18.700288
_cell_angle_alpha                 90.043527
_cell_angle_beta                  90.149258
_cell_angle_gamma                 89.971254
_cell_volume                      4190.81451576

loop_
_atom_site_label
_atom_site_type_symbol
_atom_type_description
_atom_site_fract_x
_atom_site_fract_y
_atom_site_fract_z
_atom_type_partial_charge
C1    C     C_R   0.761321 0.523691 0.639471 0.539264
C2    C     C_R   0.237818 0.519933 0.361868 0.546808
C3    C     C_R   0.261322 0.023691 0.639471 0.539267
C4    C     C_R   0.737818 0.019931 0.361869 0.546798
C5    C     C_3   0.811209 0.122962 0.449805 0.093297
C6    C     C_3   0.182811 0.111441 0.551031 0.095925
C7    C     C_3   0.311208 0.622959 0.449806 0.093271
C8    C     C_3   0.682813 0.611449 0.551031 0.095925
C9    C     C_3   0.746591 0.052534 0.437870 0.094097
C10   C     C_3   0.252558 0.058229 0.563845 0.087227
C11   C     C_3   0.246589 0.552535 0.437869 0.094111
C12   C     C_3   0.752559 0.558231 0.563845 0.087223
C13   C     C_3   0.758674 0.088496 0.575408 0.021577
C14   C     C_3   0.238648 0.093107 0.426510 0.020449
C15   C     C_3   0.258670 0.588494 0.575408 0.021575
C16   C     C_3   0.738647 0.593106 0.426510 0.020455
C17   C     C_3   0.762742 0.957611 0.562652 -0.266526
C18   C     C_3   0.246267 0.962402 0.437708 -0.251495
C19   C     C_3   0.262730 0.457606 0.562650 -0.266526
C20   C     C_3   0.746258 0.462400 0.437709 -0.251508
C21   C     C_3   0.814371 0.149290 0.530496 -0.158548
C22   C     C_3   0.174762 0.129942 0.470242 -0.141321
C23   C     C_3   0.314369 0.649286 0.530496 -0.158555
C24   C     C_3   0.674765 0.629949 0.470241 -0.141304
C25   C     C_3   0.006166 0.207285 0.460377 -0.235771
C26   C     C_3   0.006170 0.207217 0.542905 -0.246766
C27   C     C_3   0.506162 0.707282 0.460375 -0.235772
C28   C     C_3   0.506168 0.707215 0.542903 -0.246768
C29   C     C_3   0.064412 0.410676 0.474688 -0.203449
C30   C     C_3   0.931552 0.385265 0.525829 -0.219968
C31   C     C_3   0.564407 0.910673 0.474684 -0.203440
C32   C     C_3   0.431550 0.885262 0.525829 -0.219966
C33   C     C_3   0.944430 0.394237 0.445220 -0.263677
C34   C     C_3   0.052903 0.409160 0.555392 -0.253051
C35   C     C_3   0.444425 0.894235 0.445218 -0.263679
C36   C     C_3   0.552901 0.909159 0.555389 -0.253054
C37   C     C_3   0.012158 0.335282 0.431640 0.060310
C38   C     C_3   0.991111 0.333649 0.569958 0.059178
C39   C     C_3   0.512153 0.835279 0.431637 0.060313
C40   C     C_3   0.491109 0.833648 0.569957 0.059174
C41   C     C_3   0.819058 0.026054 0.046618 -0.234437
C42   C     C_3   0.180930 0.026075 0.953368 -0.234328
C43   C     C_3   0.319054 0.526043 0.046616 -0.234431
C44   C     C_3   0.680932 0.526070 0.953368 -0.234319
C45   C     C_R   0.773364 0.119636 0.650451 0.533306
C46   C     C_R   0.225160 0.122860 0.351119 0.534080
C47   C     C_R   0.273363 0.619634 0.650452 0.533303
C48   C     C_R   0.725160 0.622859 0.351119 0.534079
C49   C     C_3   0.818382 0.022438 0.965866 -0.235098
C50   C     C_3   0.181628 0.022362 0.034105 -0.235179
C51   C     C_3   0.318375 0.522421 0.965864 -0.235101
C52   C     C_3   0.681631 0.522356 0.034105 -0.235178
C53   C     C_3   0.691116 0.015756 0.031272 -0.224574
C54   C     C_3   0.308881 0.015624 0.968602 -0.224244
C55   C     C_3   0.191111 0.515763 0.031277 -0.224564
C56   C     C_3   0.808883 0.515634 0.968591 -0.224218
C57   C     C_3   0.744550 0.201941 0.061209 -0.254024
C58   C     C_3   0.255377 0.201922 0.938993 -0.254300
C59   C     C_3   0.244555 0.701939 0.061207 -0.254031
C60   C     C_3   0.755373 0.701926 0.938993 -0.254306
C61   C     C_3   0.748966 0.071067 0.075390 0.062290
C62   C     C_3   0.251000 0.071075 0.924623 0.062709
C63   C     C_3   0.248966 0.571066 0.075390 0.062293
C64   C     C_3   0.750999 0.571080 0.924619 0.062714
C65   C     C_3   0.760808 0.103899 0.936112 0.061584
C66   C     C_3   0.239218 0.103671 0.063939 0.061179
C67   C     C_3   0.260804 0.603888 0.936110 0.061580
C68   C     C_3   0.739221 0.603665 0.063938 0.061171
C69   C     C_3   0.693778 0.042659 0.950104 -0.252591
C70   C     C_3   0.306221 0.042284 0.049830 -0.252785
C71   C     C_3   0.193773 0.542656 0.950107 -0.252595
C72   C     C_3   0.806223 0.542278 0.049822 -0.252787
C73   C     C_3   0.758442 0.219096 0.980415 -0.231171
C74   C     C_3   0.241602 0.218932 0.019833 -0.230922
C75   C     C_3   0.258446 0.719085 0.980411 -0.231172
C76   C     C_3   0.741602 0.718927 0.019834 -0.230922
C77   C     C_3   0.998654 0.480037 0.040700 -0.235763
C78   C     C_3   0.001311 0.480056 0.959388 -0.235839
C79   C     C_3   0.498657 0.980045 0.040697 -0.235748
C80   C     C_3   0.501315 0.980061 0.959385 -0.235821
C81   C     C_3   0.067368 0.292522 0.026193 -0.227146
C82   C     C_3   0.932719 0.292475 0.973733 -0.227072
C83   C     C_3   0.567360 0.792512 0.026205 -0.227071
C84   C     C_3   0.432732 0.792462 0.973713 -0.226956
C85   C     C_3   0.946929 0.281475 0.054584 -0.256244
C86   C     C_3   0.053160 0.281540 0.945323 -0.256132
C87   C     C_3   0.446911 0.781517 0.054579 -0.256234
C88   C     C_3   0.553179 0.781563 0.945324 -0.256138
C89   C     C_R   0.969996 0.342138 0.645764 0.531703
C90   C     C_R   0.031963 0.342666 0.355473 0.532247
C91   C     C_R   0.469996 0.842138 0.645764 0.531698
C92   C     C_R   0.531960 0.842665 0.355471 0.532240
C93   C     C_3   0.010353 0.352351 0.069515 0.063683
C94   C     C_3   0.989682 0.352385 0.930463 0.063996
C95   C     C_3   0.510345 0.852360 0.069516 0.063664
C96   C     C_3   0.489697 0.852389 0.930457 0.063983
C97   C     C_R   0.760035 0.534808 0.848231 0.534432
C98   C     C_R   0.239936 0.534735 0.151745 0.535751
C99   C     C_R   0.260036 0.034804 0.848234 0.534437
C100  C     C_R   0.739936 0.034733 0.151744 0.535751
C101  C     C_R   0.774408 0.132842 0.858914 0.535316
C102  C     C_R   0.225635 0.132673 0.141143 0.536408
C103  C     C_R   0.274406 0.632836 0.858912 0.535311
C104  C     C_R   0.725637 0.632668 0.141144 0.536400
C105  C     C_R   0.968345 0.353502 0.853904 0.535443
C106  C     C_R   0.031668 0.353486 0.146084 0.536303
C107  C     C_R   0.468358 0.853501 0.853896 0.535409
C108  C     C_R   0.531659 0.853486 0.146088 0.536274
C109  C     C_3   0.686552 0.127811 0.467037 -0.221561
C110  C     C_3   0.307209 0.146139 0.537061 -0.227231
C111  C     C_3   0.186550 0.627817 0.467036 -0.221552
C112  C     C_3   0.807211 0.646137 0.537059 -0.227230
C113  C     C_3   0.687706 0.130139 0.548956 -0.257095
C114  C     C_3   0.305503 0.149610 0.455234 -0.247867
C115  C     C_3   0.187703 0.630146 0.548955 -0.257094
C116  C     C_3   0.805507 0.649597 0.455231 -0.247859
C117  C     C_3   0.758022 0.937044 0.481784 -0.253369
C118  C     C_3   0.256125 0.944054 0.518489 -0.254404
C119  C     C_3   0.258018 0.437044 0.481783 -0.253362
C120  C     C_3   0.756122 0.444053 0.518490 -0.254410
Cr1   Cr    Cr6+3 0.885690 0.492860 0.745310 0.992905
Cr2   Cr    Cr6+3 0.114310 0.492860 0.254690 0.994786
Cr3   Cr    Cr6+3 0.385690 0.992860 0.745310 0.992907
Cr4   Cr    Cr6+3 0.614310 0.992860 0.254690 0.994787
Cr5   Cr    Cr6+3 0.729880 0.332270 0.748190 0.988597
Cr6   Cr    Cr6+3 0.270120 0.332270 0.251810 0.989652
Cr7   Cr    Cr6+3 0.229880 0.832270 0.748190 0.988600
Cr8   Cr    Cr6+3 0.770120 0.832270 0.251810 0.989653
Cr9   Cr    Cr6+3 0.888120 0.178590 0.753010 0.991348
Cr10  Cr    Cr6+3 0.111880 0.178590 0.246990 0.992230
Cr11  Cr    Cr6+3 0.388120 0.678590 0.753010 0.991347
Cr12  Cr    Cr6+3 0.611880 0.678590 0.246990 0.992229
H1    H     H_    0.637714 0.100170 0.446699 0.116281
H2    H     H_    0.358988 0.125385 0.555446 0.112987
H3    H     H_    0.137711 0.600187 0.446695 0.116277
H4    H     H_    0.858990 0.625383 0.555446 0.112987
H5    H     H_    0.865107 0.125717 0.550355 0.103865
H6    H     H_    0.134269 0.068298 0.453757 0.085171
H7    H     H_    0.365105 0.625712 0.550355 0.103867
H8    H     H_    0.634267 0.568312 0.453757 0.085167
H9    H     H_    0.808718 0.904506 0.466942 0.106421
H10   H     H_    0.219150 0.878867 0.537462 0.123398
H11   H     H_    0.308721 0.404526 0.466950 0.106408
H12   H     H_    0.719149 0.378866 0.537465 0.123407
H13   H     H_    0.811665 0.922936 0.583827 0.129405
H14   H     H_    0.200883 0.913852 0.418198 0.139434
H15   H     H_    0.311649 0.422925 0.583831 0.129402
H16   H     H_    0.700870 0.413857 0.418205 0.139426
H17   H     H_    0.044604 0.149255 0.438639 0.129148
H18   H     H_    0.970094 0.141217 0.563024 0.120174
H19   H     H_    0.544597 0.649248 0.438636 0.129149
H20   H     H_    0.470093 0.641215 0.563025 0.120178
H21   H     H_    0.957981 0.168171 0.441001 0.120792
H22   H     H_    0.055585 0.178314 0.563478 0.155436
H23   H     H_    0.457975 0.668168 0.441002 0.120790
H24   H     H_    0.555584 0.678313 0.563475 0.155427
H25   H     H_    0.616702 0.889868 0.460863 0.117514
H26   H     H_    0.392679 0.821763 0.533719 0.124433
H27   H     H_    0.116709 0.389883 0.460870 0.117522
H28   H     H_    0.892680 0.321770 0.533720 0.124429
H29   H     H_    0.597870 0.876241 0.584378 0.167847
H30   H     H_    0.404038 0.852039 0.413589 0.166300
H31   H     H_    0.097872 0.376242 0.584382 0.167843
H32   H     H_    0.904043 0.352041 0.413589 0.166304
H33   H     H_    0.945291 0.488026 0.428545 0.117403
H34   H     H_    0.043508 0.500455 0.574516 0.123248
H35   H     H_    0.445286 0.988025 0.428544 0.117403
H36   H     H_    0.543506 0.000454 0.574513 0.123249
H37   H     H_    0.916418 0.472155 0.545798 0.137243
H38   H     H_    0.054797 0.502552 0.458861 0.130591
H39   H     H_    0.416415 0.972151 0.545799 0.137245
H40   H     H_    0.554794 0.002552 0.458856 0.130595
H41   H     H_    0.834359 0.937452 0.064826 0.139406
H42   H     H_    0.165625 0.937509 0.935059 0.139564
H43   H     H_    0.334356 0.437443 0.064826 0.139406
H44   H     H_    0.665629 0.437504 0.935058 0.139563
H45   H     H_    0.690597 0.219119 0.446980 0.163031
H46   H     H_    0.297089 0.233931 0.559059 0.167453
H47   H     H_    0.190599 0.719125 0.446980 0.163029
H48   H     H_    0.797091 0.733932 0.559052 0.167454
H49   H     H_    0.859593 0.085539 0.065894 0.115326
H50   H     H_    0.140381 0.085608 0.934185 0.115110
H51   H     H_    0.359592 0.585527 0.065887 0.115318
H52   H     H_    0.640381 0.585598 0.934186 0.115104
H53   H     H_    0.870201 0.043597 0.947855 0.134678
H54   H     H_    0.129810 0.043547 0.052164 0.134727
H55   H     H_    0.370194 0.543574 0.947851 0.134679
H56   H     H_    0.629814 0.543543 0.052164 0.134727
H57   H     H_    0.809491 0.931326 0.947120 0.117527
H58   H     H_    0.190519 0.931219 0.052729 0.117629
H59   H     H_    0.309480 0.431310 0.947119 0.117525
H60   H     H_    0.690522 0.431214 0.052729 0.117629
H61   H     H_    0.700061 0.924319 0.039278 0.108408
H62   H     H_    0.358409 0.042177 0.947037 0.129778
H63   H     H_    0.200048 0.424326 0.039294 0.108404
H64   H     H_    0.858412 0.542198 0.947026 0.129773
H65   H     H_    0.689438 0.960481 0.918277 0.101494
H66   H     H_    0.310535 0.960009 0.081489 0.101864
H67   H     H_    0.189430 0.460475 0.918284 0.101498
H68   H     H_    0.810540 0.459998 0.081476 0.101870
H69   H     H_    0.693120 0.234870 0.075227 0.121255
H70   H     H_    0.306773 0.234850 0.924949 0.120878
H71   H     H_    0.193128 0.734877 0.075227 0.121255
H72   H     H_    0.806767 0.734859 0.924947 0.120878
H73   H     H_    0.782208 0.250626 0.094233 0.100786
H74   H     H_    0.217650 0.250688 0.906116 0.100299
H75   H     H_    0.282217 0.750621 0.094227 0.100784
H76   H     H_    0.717643 0.750690 0.906119 0.100296
H77   H     H_    0.809030 0.250992 0.977036 0.110118
H78   H     H_    0.191047 0.250941 0.023442 0.110050
H79   H     H_    0.309039 0.750958 0.977031 0.110138
H80   H     H_    0.691044 0.750926 0.023446 0.110065
H81   H     H_    0.721333 0.280803 0.957380 0.126158
H82   H     H_    0.278767 0.280500 0.042912 0.126291
H83   H     H_    0.221342 0.780805 0.957375 0.126159
H84   H     H_    0.778766 0.780498 0.042914 0.126290
H85   H     H_    0.641557 0.042168 0.052894 0.129588
H86   H     H_    0.300020 0.924207 0.960291 0.108484
H87   H     H_    0.141555 0.542190 0.052899 0.129589
H88   H     H_    0.800031 0.424216 0.960259 0.108475
H89   H     H_    0.673453 0.218695 0.567861 0.135194
H90   H     H_    0.313984 0.237634 0.434959 0.143730
H91   H     H_    0.173453 0.718704 0.567861 0.135193
H92   H     H_    0.813997 0.737622 0.434952 0.143726
H93   H     H_    0.651417 0.101998 0.934619 0.119358
H94   H     H_    0.348577 0.101495 0.065440 0.119389
H95   H     H_    0.151414 0.601997 0.934620 0.119359
H96   H     H_    0.848579 0.601489 0.065435 0.119385
H97   H     H_    0.035137 0.546214 0.060336 0.134095
H98   H     H_    0.964806 0.546240 0.939802 0.133996
H99   H     H_    0.535143 0.046214 0.060335 0.134094
H100  H     H_    0.464805 0.046237 0.939798 0.134006
H101  H     H_    0.948529 0.511671 0.058979 0.116612
H102  H     H_    0.051432 0.511690 0.941151 0.116493
H103  H     H_    0.448534 0.011694 0.058973 0.116601
H104  H     H_    0.551435 0.011706 0.941150 0.116482
H105  H     H_    0.608353 0.851985 0.032886 0.108564
H106  H     H_    0.391689 0.851873 0.967078 0.108627
H107  H     H_    0.108349 0.352013 0.032836 0.108578
H108  H     H_    0.891694 0.351915 0.967162 0.108655
H109  H     H_    0.596746 0.814742 0.913560 0.099880
H110  H     H_    0.403317 0.814688 0.086367 0.100164
H111  H     H_    0.096721 0.314684 0.913540 0.099883
H112  H     H_    0.903343 0.314586 0.086401 0.100164
H113  H     H_    0.955885 0.188003 0.069137 0.120433
H114  H     H_    0.044251 0.188084 0.930666 0.120335
H115  H     H_    0.455846 0.688050 0.069168 0.120398
H116  H     H_    0.544281 0.688107 0.930646 0.120302
H117  H     H_    0.920545 0.205583 0.951466 0.134310
H118  H     H_    0.079588 0.205639 0.048380 0.134088
H119  H     H_    0.420594 0.705529 0.951459 0.134302
H120  H     H_    0.579555 0.705606 0.048387 0.134091
H121  H     H_    0.648314 0.071645 0.570657 0.112993
H122  H     H_    0.349822 0.100336 0.434332 0.107059
H123  H     H_    0.148309 0.571658 0.570656 0.112990
H124  H     H_    0.849823 0.600308 0.434332 0.107056
H125  H     H_    0.721603 0.868107 0.468894 0.137428
H126  H     H_    0.306883 0.914983 0.525734 0.125204
H127  H     H_    0.221614 0.368094 0.468878 0.137413
H128  H     H_    0.806882 0.414985 0.525729 0.125212
H129  H     H_    0.721001 0.913068 0.591270 0.181668
H130  H     H_    0.290648 0.930999 0.406859 0.178967
H131  H     H_    0.220984 0.413068 0.591261 0.181672
H132  H     H_    0.790635 0.430988 0.406857 0.178985
H133  H     H_    0.856941 0.070634 0.434676 0.113142
H134  H     H_    0.142690 0.048713 0.569110 0.116431
H135  H     H_    0.356938 0.570631 0.434679 0.113141
H136  H     H_    0.642690 0.548725 0.569110 0.116429
H137  H     H_    0.803568 0.240192 0.539666 0.141110
H138  H     H_    0.157776 0.218713 0.456864 0.138632
H139  H     H_    0.303567 0.740188 0.539664 0.141119
H140  H     H_    0.657779 0.718718 0.456859 0.138620
O1    O     O_R   0.957210 0.449410 0.665480 -0.534902
O2    O     O_R   0.042790 0.449410 0.334520 -0.534974
O3    O     O_R   0.457210 0.949410 0.665480 -0.534903
O4    O     O_R   0.542790 0.949410 0.334520 -0.534976
O5    O     O_R   0.736260 0.212010 0.826560 -0.510473
O6    O     O_R   0.263740 0.212010 0.173440 -0.509832
O7    O     O_R   0.236260 0.712010 0.826560 -0.510472
O8    O     O_R   0.763740 0.712010 0.173440 -0.509830
O9    O     O_R   0.832520 0.095300 0.836000 -0.533894
O10   O     O_R   0.167480 0.095300 0.164000 -0.532800
O11   O     O_R   0.332520 0.595300 0.836000 -0.533892
O12   O     O_R   0.667480 0.595300 0.164000 -0.532797
O13   O     O_R   0.946380 0.253940 0.826940 -0.514459
O14   O     O_R   0.053620 0.253940 0.173060 -0.513690
O15   O     O_R   0.446380 0.753940 0.826940 -0.514461
O16   O     O_R   0.553620 0.753940 0.173060 -0.513691
O17   O     O_3   0.834560 0.334570 0.748840 -0.273403
O18   O     O_3   0.165440 0.334570 0.251160 -0.277205
O19   O     O_3   0.334560 0.834570 0.748840 -0.273396
O20   O     O_3   0.665440 0.834570 0.251160 -0.277197
O21   O     O_R   0.820730 0.541240 0.668250 -0.514042
O22   O     O_R   0.179270 0.541240 0.331750 -0.512059
O23   O     O_R   0.320730 0.041240 0.668250 -0.514042
O24   O     O_R   0.679270 0.041240 0.331750 -0.512057
O25   O     O_R   0.714240 0.455060 0.663710 -0.546806
O26   O     O_R   0.285760 0.455060 0.336290 -0.545999
O27   O     O_R   0.214240 0.955060 0.663710 -0.546807
O28   O     O_R   0.785760 0.955060 0.336290 -0.545999
O29   O     O_R   0.736780 0.204870 0.675910 -0.513574
O30   O     O_R   0.263220 0.204870 0.324090 -0.514517
O31   O     O_R   0.236780 0.704870 0.675910 -0.513574
O32   O     O_R   0.763220 0.704870 0.324090 -0.514517
O33   O     O_R   0.833070 0.087590 0.673490 -0.530042
O34   O     O_R   0.166930 0.087590 0.326510 -0.530073
O35   O     O_R   0.333070 0.587590 0.673490 -0.530039
O36   O     O_R   0.666930 0.587590 0.326510 -0.530073
O37   O     O_R   0.946890 0.246800 0.676300 -0.512983
O38   O     O_R   0.053110 0.246800 0.323700 -0.514592
O39   O     O_R   0.446890 0.746800 0.676300 -0.512984
O40   O     O_R   0.553110 0.746800 0.323700 -0.514592
O41   O     O_R   0.956650 0.457120 0.827980 -0.532219
O42   O     O_R   0.043350 0.457120 0.172020 -0.531771
O43   O     O_R   0.456650 0.957120 0.827980 -0.532218
O44   O     O_R   0.543350 0.957120 0.172020 -0.531767
O45   O     O_R   0.820220 0.548390 0.818890 -0.509881
O46   O     O_R   0.179780 0.548390 0.181110 -0.509102
O47   O     O_R   0.320220 0.048390 0.818890 -0.509873
O48   O     O_R   0.679780 0.048390 0.181110 -0.509099
O49   O     O_R   0.713680 0.462770 0.826210 -0.534073
O50   O     O_R   0.286320 0.462770 0.173790 -0.533573
O51   O     O_R   0.213680 0.962770 0.826210 -0.534071
O52   O     O_R   0.786320 0.962770 0.173790 -0.533572
O53   O     O_3   0.810030 0.226354 0.409491 -0.784391
H141  H     H_    0.825356 0.205952 0.360475 0.323688
O54   O     O_3   0.176089 0.217737 0.588037 -0.789213
H142  H     H_    0.164346 0.198207 0.638245 0.321768
O55   O     O_3   0.310031 0.726348 0.409492 -0.784417
H143  H     H_    0.325365 0.705948 0.360485 0.323709
O56   O     O_3   0.676094 0.717747 0.588035 -0.789216
H144  H     H_    0.664352 0.698221 0.638243 0.321765

loop_
_geom_bond_atom_site_label_1
_geom_bond_atom_site_label_2
_ccdc_geom_bond_type
C83   H105  S    
C5    H133  S    
C82   C94   S    
C119  H11   S    
C82   H117  S    
C119  H127  S    
C120  H12   S    
C45   O33   A    
C53   C69   S    
C104  O8    A    
C43   C63   S    
C44   C64   S    
Cr6   O6    S    
C16   C20   S    
C80   H100  S    
C18   H130  S    
C63   C98   S    
Cr2   O2    S    
C31   H40   S    
C28   C40   S    
C36   H36   S    
C30   C38   S    
Cr9   O33   S    
C56   C72   S    
C21   H5    S    
C92   O4    A    
C18   C118  S    
C81   C86   S    
C83   C88   S    
C48   O32   A    
C74   H82   S    
C111  H47   S    
C41   C49   S    
C111  H3    S    
C54   H86   S    
Cr1   O45   S    
C114  H122  S    
Cr2   O42   S    
C109  H1    S    
Cr4   O48   S    
C88   H109  S    
C26   C38   S    
Cr10  O34   S    
C120  H128  S    
Cr11  O39   S    
C60   C76   S    
C24   H8    S    
Cr8   O52   S    
C30   H37   S    
C54   C70   S    
C48   O36   A    
C68   C72   S    
C23   H139  S    
C97   O45   A    
C13   C21   S    
C87   H115  S    
C79   H99   S    
C31   H25   S    
C64   C97   S    
C36   H29   S    
C15   C115  S    
C20   C120  S    
C116  H124  S    
C101  O5    A    
C5    O53   S    
C59   C63   S    
C70   H94   S    
Cr4   O20   S    
C57   C61   S    
C118  H126  S    
C82   C85   S    
Cr6   O50   S    
C77   H97   S    
Cr11  O19   S    
C60   C64   S    
Cr9   O13   S    
C20   H132  S    
C13   C45   S    
C102  O6    A    
C78   C94   S    
C43   H51   S    
C95   C108  S    
C113  H89   S    
C62   C99   S    
C107  O43   A    
C5    C21   S    
C58   H70   S    
C110  H46   S    
C31   C36   S    
C47   O35   A    
C4    O28   A    
C8    O56   S    
C55   C71   S    
C90   O38   A    
C54   H62   S    
Cr1   O21   S    
C80   H104  S    
Cr2   O18   S    
C65   C101  S    
Cr10  O14   S    
Cr3   O23   S    
Cr11  O11   S    
C67   C103  S    
C66   C70   S    
C37   C90   S    
C24   H140  S    
C73   H77   S    
Cr5   O17   S    
C66   C74   S    
C81   C93   S    
C25   H17   S    
C57   C73   S    
C53   C61   S    
C60   H72   S    
C56   H88   S    
C55   C63   S    
C6    H134  S    
C56   C64   S    
Cr7   O51   S    
C42   C62   S    
C8    C12   S    
C112  H48   S    
Cr5   O29   S    
C76   H80   S    
C70   H66   S    
Cr6   O18   S    
C84   H119  S    
C85   H113  S    
C6    O54   S    
C1    C12   S    
C43   H43   S    
C112  H4    S    
C2    C11   S    
C77   H101  S    
Cr3   O3    S    
C7    C11   S    
C53   H85   S    
C42   H42   S    
Cr9   O37   S    
C55   H87   S    
C25   C26   S    
C85   H112  S    
C105  O13   A    
C107  O15   A    
C5    C9    S    
C108  O16   A    
C59   H71   S    
C93   C106  S    
C88   H116  S    
C78   H102  S    
C90   O2    A    
C51   C67   S    
C7    H135  S    
C42   C50   S    
Cr2   O46   S    
Cr3   O43   S    
C110  H2    S    
C61   C100  S    
C67   C75   S    
C91   O3    A    
C50   H54   S    
C112  C116  S    
C51   H59   S    
C58   C74   S    
Cr10  O38   S    
C59   H75   S    
Cr11  O35   S    
C33   H33   S    
C44   H44   S    
C68   C76   S    
C13   C17   S    
C98   O46   A    
C14   C22   S    
C79   H103  S    
C7    C23   S    
C8    C24   S    
C40   C91   S    
C101  O9    A    
Cr7   O27   S    
C99   O51   A    
Cr8   O20   S    
C49   H53   S    
C57   H69   S    
C52   H56   S    
Cr7   O7    S    
C4    C9    S    
Cr4   O24   S    
Cr8   O8    S    
C58   C62   S    
C89   O1    A    
C88   C96   S    
C94   C105  S    
C59   C75   S    
C83   H120  S    
C53   H61   S    
C12   C112  S    
C81   H118  S    
C41   H49   S    
C21   H137  S    
C14   C46   S    
C77   C78   S    
C42   H50   S    
C15   C19   S    
C115  H91   S    
C75   H79   S    
C1    O25   A    
C58   H74   S    
C6    C22   S    
C2    O22   A    
C41   H41   S    
C56   H64   S    
C86   H111  S    
Cr8   O28   S    
Cr2   O22   S    
C15   C47   S    
Cr3   O19   S    
C46   O34   A    
C17   C117  S    
C19   C119  S    
C27   H23   S    
C73   H81   S    
Cr12  O36   S    
C16   C116  S    
C9    C109  S    
C113  H121  S    
C25   H21   S    
C26   H18   S    
C105  O41   A    
C60   H76   S    
C87   H110  S    
C54   C62   S    
C18   H14   S    
Cr3   O47   S    
C29   C34   S    
C108  O44   A    
C33   C37   S    
C41   C61   S    
C81   H107  S    
C116  H92   S    
C117  H9    S    
O56   H144  S    
C79   C95   S    
Cr5   O25   S    
C76   H84   S    
Cr6   O30   S    
C7    O55   S    
C114  H90   S    
Cr12  O12   S    
C32   H39   S    
C100  O52   A    
C39   C92   S    
C27   H19   S    
C106  O14   A    
C14   C18   S    
C84   H106  S    
C68   C104  S    
C69   H93   S    
C17   H13   S    
C6    C10   S    
C71   H67   S    
C1    O21   A    
C78   H98   S    
C22   H6    S    
Cr5   O49   S    
C19   H15   S    
O54   H142  S    
C14   C114  S    
C104  O12   A    
C43   C51   S    
Cr5   O5    S    
C65   C69   S    
C77   C93   S    
C10   C110  S    
C67   C71   S    
C17   H129  S    
O53   H141  S    
C50   H58   S    
Cr1   O1    S    
C51   H55   S    
C3    O27   A    
C19   H131  S    
C109  H45   S    
C72   H96   S    
C29   C37   S    
C11   C111  S    
C34   H34   S    
C55   H63   S    
C9    C117  S    
O55   H143  S    
C102  O10   A    
C35   C39   S    
C84   C87   S    
C103  O7    A    
C8    H136  S    
C11   C119  S    
C16   C48   S    
C29   H27   S    
C30   H28   S    
C38   C89   S    
C49   C65   S    
C74   H78   S    
C23   H7    S    
Cr7   O31   S    
Cr8   O32   S    
C49   H57   S    
Cr1   O41   S    
C57   H73   S    
C65   C73   S    
C52   H60   S    
Cr4   O44   S    
C86   C94   S    
C25   C37   S    
C12   C120  S    
C27   C39   S    
C82   H108  S    
C35   H35   S    
Cr12  O20   S    
C29   H38   S    
C80   C96   S    
C44   H52   S    
C52   C68   S    
C109  C113  S    
C22   H138  S    
C15   C23   S    
Cr9   O17   S    
C86   H114  S    
C69   H65   S    
C85   C93   S    
C2    O26   A    
C103  O11   A    
C32   H26   S    
C35   H30   S    
C32   C35   S    
C36   C40   S    
C33   H32   S    
C34   H31   S    
C97   O49   A    
C66   C102  S    
Cr7   O19   S    
C87   C95   S    
C99   O47   A    
C46   O30   A    
C10   C118  S    
C72   H68   S    
C117  H125  S    
C83   C95   S    
Cr10  O18   S    
C20   H16   S    
Cr12  O40   S    
Cr9   O9    S    
C50   C66   S    
C100  O48   A    
C28   H20   S    
C45   O29   A    
C26   H22   S    
C84   C96   S    
C106  O42   A    
C92   O40   A    
C110  C114  S    
C30   C33   S    
C34   C38   S    
C71   H95   S    
C96   C107  S    
C47   O31   A    
C4    O24   A    
C118  H10   S    
C89   O37   A    
Cr6   O26   S    
C91   O39   A    
Cr1   O17   S    
Cr10  O10   S    
C3    C10   S    
Cr11  O15   S    
Cr4   O4    S    
C44   C52   S    
Cr12  O16   S    
C75   H83   S    
C31   C39   S    
C32   C40   S    
C79   C80   S    
C115  H123  S    
C98   O50   A    
C16   C24   S    
C27   C28   S    
C28   H24   S    
C111  C115  S    
C13   C113  S    
C3    O23   A    
