data_mof_unit_42688.cif
_audit_creation_date              2012-12-10T19:48:36-0500
_audit_creation_method            fapswitch 2.2
_symmetry_space_group_name_H-M    P1
_symmetry_Int_Tables_number       1
_space_group_crystal_system       triclinic
_cell_length_a                    13.122273
_cell_length_b                    14.090608
_cell_length_c                    14.912585
_cell_angle_alpha                 89.998301
_cell_angle_beta                  89.952132
_cell_angle_gamma                 71.584858
_cell_volume                      2616.15119372

loop_
_atom_site_label
_atom_site_type_symbol
_atom_type_description
_atom_site_fract_x
_atom_site_fract_y
_atom_site_fract_z
_atom_type_partial_charge
C1    C     C_R   0.503773 0.498746 0.672598 0.957392
C2    C     C_R   0.982704 0.450054 0.444248 -0.104357
C3    C     C_R   0.870228 0.478990 0.438821 0.015009
C4    C     C_R   0.030134 0.527471 0.448124 0.123755
C5    C     C_R   0.969477 0.627127 0.425484 0.104917
C6    C     C_R   0.863846 0.647896 0.397039 -0.249345
C7    C     C_R   0.814228 0.574688 0.404128 -0.108608
C8    C     C_R   0.132470 0.510069 0.482792 -0.283813
C9    C     C_R   0.117598 0.685595 0.468969 0.481554
C10   C     C_R   0.818059 0.412224 0.471000 -0.180652
C11   C     C_R   0.602655 0.397082 0.899458 0.460916
C12   C     C_R   0.703430 0.445964 0.492186 0.900561
C13   C     C_R   0.584458 0.401346 0.807425 0.415154
C14   C     C_R   0.523759 0.492630 0.767870 -0.304825
C15   C     C_R   0.487974 0.579978 0.818622 -0.447451
C16   C     C_R   0.504715 0.576658 0.910277 0.485241
C17   C     C_R   0.559855 0.484617 0.950892 -0.073073
C18   C     C_R   0.604720 0.534720 0.099225 0.385214
C19   C     C_R   0.577298 0.550453 0.189816 0.239183
C20   C     C_R   0.517131 0.494803 0.230494 -0.390987
C21   C     C_R   0.478530 0.429175 0.179532 0.329034
C22   C     C_R   0.491985 0.426453 0.086607 0.339343
C23   C     C_R   0.501929 0.499497 0.327003 1.011828
C24   C     C_R   0.555921 0.478530 0.047540 -0.170890
C25   C     C_R   0.575336 0.874957 0.548595 0.246298
C26   C     C_R   0.569837 0.775880 0.553674 0.501180
C27   C     C_R   0.433291 0.814179 0.442851 -0.245334
C28   C     C_R   0.432340 0.914758 0.438972 0.386130
C29   C     C_R   0.502977 0.946030 0.493580 -0.093697
C30   C     C_R   0.566997 0.086561 0.438366 -0.352206
C31   C     C_R   0.566168 0.186295 0.442224 -0.042939
C32   C     C_R   0.433851 0.222571 0.556094 -0.064291
C33   C     C_R   0.431011 0.122295 0.554577 0.488607
C34   C     C_R   0.295501 0.554453 0.500469 0.884702
C35   C     C_R   0.499943 0.053378 0.495090 0.197070
C36   C     C_R   0.013546 0.705167 0.435585 -0.315285
C37   C     C_R   0.179464 0.585832 0.487108 -0.218946
C38   C     C_R   0.877156 0.312078 0.486625 -0.437846
C39   C     C_R   0.987522 0.276136 0.467677 0.530231
C40   C     C_R   0.041192 0.345587 0.448158 0.392777
H1    H     H_    0.444276 0.650646 0.787623 0.198986
H2    H     H_    0.381894 0.788620 0.398854 0.198527
H3    H     H_    0.817648 0.722307 0.375054 0.132960
H4    H     H_    0.620225 0.035364 0.391755 0.154820
H5    H     H_    0.618808 0.211027 0.398801 0.133620
H6    H     H_    0.384621 0.276811 0.602470 0.134233
H7    H     H_    0.966311 0.781599 0.420215 0.149344
H8    H     H_    0.176243 0.437630 0.509619 0.226466
H9    H     H_    0.836553 0.261732 0.512092 0.188134
H10   H     H_    0.731793 0.594465 0.382718 0.215586
N1    N     N_R   0.500000 0.747530 0.500020 -0.165390
N2    N     N_R   0.499940 0.252470 0.500020 -0.100271
O1    O     O_R   0.499990 0.420530 0.630930 -0.576252
O2    O     O_R   0.499990 0.579480 0.630940 -0.600126
O3    O     O_R   0.653620 0.381060 0.499970 -0.634915
O4    O     O_R   0.653620 0.540010 0.499980 -0.573584
O5    O     O_R   0.500010 0.420520 0.369060 -0.590951
O6    O     O_R   0.500010 0.579470 0.369070 -0.603901
O7    O     O_R   0.346380 0.459990 0.500020 -0.615764
O8    O     O_R   0.346380 0.618940 0.500030 -0.582382
Zn1   Zn    Zn3+2 0.500000 0.393860 0.499990 0.972155
Zn2   Zn    Zn3+2 0.500000 0.606140 0.500010 0.983765
O9    O     O_3   0.157314 0.764321 0.483228 -0.611072
C41   C     C_3   0.146468 0.788617 0.575567 0.096395
H11   H     H_    0.194849 0.724740 0.617351 0.135175
H12   H     H_    0.060888 0.809478 0.596998 0.131221
C42   C     C_3   0.186279 0.877073 0.593763 -0.813437
H13   H     H_    0.138093 0.943154 0.555082 0.251344
H14   H     H_    0.178100 0.895911 0.666269 0.207966
H15   H     H_    0.272076 0.858321 0.574690 0.262241
O10   O     O_3   0.622282 0.314727 0.757109 -0.546663
C43   C     C_3   0.726121 0.306681 0.725672 -0.220670
H16   H     H_    0.726809 0.373636 0.686332 0.129802
H17   H     H_    0.753433 0.241005 0.680393 0.183378
H18   H     H_    0.784344 0.294212 0.781955 0.147067
O11   O     O_3   0.470737 0.664304 0.959684 -0.565377
C44   C     C_3   0.360565 0.686662 0.980005 0.073075
H19   H     H_    0.348619 0.632159 0.029524 0.113716
H20   H     H_    0.311779 0.686483 0.918872 0.130030
C45   C     C_3   0.319732 0.790235 0.021844 -0.809158
H21   H     H_    0.331073 0.846858 0.974428 0.262097
H22   H     H_    0.232909 0.808890 0.037657 0.202667
H23   H     H_    0.364094 0.792317 0.084778 0.239281
O12   O     O_3   0.669786 0.582468 0.057881 -0.565721
C46   C     C_3   0.776886 0.540380 0.087673 0.141870
H24   H     H_    0.800648 0.457559 0.095532 0.095972
H25   H     H_    0.788365 0.574116 0.152695 0.191005
C47   C     C_3   0.851894 0.563104 0.019214 -0.863966
H26   H     H_    0.832613 0.645291 0.011244 0.266805
H27   H     H_    0.936422 0.531113 0.041999 0.203225
H28   H     H_    0.842909 0.529647 0.953414 0.249174
O13   O     O_3   0.617014 0.613569 0.239970 -0.619669
C48   C     C_3   0.556776 0.713914 0.220864 0.184797
H29   H     H_    0.474237 0.731548 0.248811 0.143230
H30   H     H_    0.550954 0.729806 0.147585 0.190060
C49   C     C_3   0.611486 0.783067 0.263539 -0.866853
H31   H     H_    0.692235 0.769626 0.233378 0.247228
H32   H     H_    0.562682 0.862250 0.252062 0.236288
H33   H     H_    0.620498 0.769286 0.336761 0.241678
O14   O     O_3   0.417827 0.376325 0.219703 -0.591256
C50   C     C_3   0.477442 0.273492 0.220656 -0.181883
H34   H     H_    0.474270 0.238660 0.154416 0.203531
H35   H     H_    0.440612 0.235509 0.270218 0.170000
H36   H     H_    0.562565 0.259571 0.241226 0.125560
O15   O     O_3   0.447887 0.368059 0.034480 -0.558089
C51   C     C_3   0.340803 0.423217 0.013048 0.118679
H37   H     H_    0.339225 0.482172 0.963086 0.106230
H38   H     H_    0.293735 0.458157 0.073498 0.149819
C52   C     C_3   0.286511 0.353281 0.971297 -0.803567
H39   H     H_    0.286209 0.293419 0.019662 0.255184
H40   H     H_    0.202312 0.395852 0.953423 0.190949
H41   H     H_    0.330141 0.318672 0.909626 0.266919
O16   O     O_3   0.650625 0.903002 0.597414 -0.584453
C53   C     C_3   0.748717 0.874679 0.549585 0.128383
H42   H     H_    0.737295 0.886556 0.475764 0.106303
H43   H     H_    0.793162 0.794451 0.562201 0.177093
C54   C     C_3   0.816696 0.937637 0.581709 -0.846722
H44   H     H_    0.837493 0.922204 0.653572 0.258901
H45   H     H_    0.891721 0.919672 0.541678 0.197249
H46   H     H_    0.771702 0.018367 0.573210 0.265060
O17   O     O_3   0.640321 0.704446 0.606968 -0.589713
C55   C     C_3   0.618725 0.729056 0.698307 -0.188395
H47   H     H_    0.651512 0.659902 0.738556 0.179183
H48   H     H_    0.531118 0.759652 0.713169 0.144327
H49   H     H_    0.660278 0.782248 0.720829 0.198453
O18   O     O_3   0.372153 0.979644 0.375128 -0.615245
C56   C     C_3   0.262650 0.003623 0.396932 -0.245191
H50   H     H_    0.246433 0.033246 0.466492 0.220313
H51   H     H_    0.233740 0.938140 0.387652 0.166146
H52   H     H_    0.216113 0.063300 0.350766 0.207688
O19   O     O_3   0.369673 0.086468 0.613901 -0.615145
C57   C     C_3   0.268183 0.157269 0.630547 -0.327325
H53   H     H_    0.230769 0.197181 0.568621 0.221349
H54   H     H_    0.274287 0.210932 0.683206 0.163948
H55   H     H_    0.213843 0.117133 0.656352 0.206241
O20   O     O_3   0.149806 0.308915 0.429093 -0.628006
C58   C     C_3   0.163615 0.308377 0.335333 -0.249223
H56   H     H_    0.250199 0.273940 0.320172 0.207648
H57   H     H_    0.119687 0.262580 0.301379 0.145107
H58   H     H_    0.138233 0.385671 0.307721 0.168100
O21   O     O_3   0.047803 0.175270 0.473421 -0.608879
C59   C     C_3   0.988645 0.111956 0.446064 -0.401539
H59   H     H_    0.938408 0.140879 0.385721 0.168036
H60   H     H_    0.939071 0.099205 0.502383 0.182563
H61   H     H_    0.045206 0.038025 0.427507 0.189674
O22   O     O_3   0.652924 0.304604 0.938158 -0.531173
C60   C     C_3   0.751353 0.303153 0.977379 -0.303837
H62   H     H_    0.739731 0.320435 0.049942 0.158127
H63   H     H_    0.789635 0.354457 0.944421 0.125382
H64   H     H_    0.808529 0.226292 0.971477 0.186679

loop_
_geom_bond_atom_site_label_1
_geom_bond_atom_site_label_2
_ccdc_geom_bond_type
O6    Zn2   S    
C23   O6    A    
C5    C36   A    
O18   C56   S    
C34   C37   S    
C60   H62   S    
C31   N2    A    
C4    C8    A    
C8    H8    S    
C53   H42   S    
C38   H9    S    
C44   H19   S    
C40   O20   S    
C50   H34   S    
C30   C35   A    
C18   C24   A    
O13   C48   S    
C28   C29   A    
C60   H63   S    
O16   C53   S    
C3    C7    A    
N2    Zn1   S    
C54   H45   S    
C5    C6    A    
C44   C45   S    
C51   H37   S    
C15   C16   A    
C49   H33   S    
C36   H7    S    
O8    Zn2   S    
C18   C19   A    
C1    O1    A    
C32   N2    A    
C19   O13   S    
O1    Zn1   S    
C39   O21   S    
C27   N1    A    
C16   C17   A    
C49   H32   S    
C9    C36   A    
C18   O12   S    
C20   C23   S    
C26   O17   S    
C33   O19   S    
C44   H20   S    
C48   H30   S    
C16   O11   S    
C21   C22   A    
C34   O8    A    
C59   H61   S    
C30   H4    S    
N1    Zn2   S    
C43   H18   S    
C28   O18   S    
C46   H25   S    
C25   C29   A    
C38   C39   A    
C58   H58   S    
O7    Zn1   S    
C17   C24   S    
C42   H13   S    
C53   C54   S    
C41   C42   S    
C60   H64   S    
O12   C46   S    
C15   H1    S    
C43   H17   S    
C52   H41   S    
C39   C40   A    
C21   O14   S    
C45   H21   S    
O2    Zn2   S    
C25   C26   A    
C46   H24   S    
C42   H14   S    
C41   H12   S    
C2    C4    A    
C1    O2    A    
C56   H51   S    
C25   O16   S    
C58   H57   S    
C14   C15   A    
C47   H28   S    
C49   H31   S    
C20   C21   A    
C9    C37   A    
C48   H29   S    
O11   C44   S    
O17   C55   S    
C12   O4    A    
C10   C12   S    
C57   H54   S    
C45   H22   S    
C47   H27   S    
C48   C49   S    
C6    H3    S    
O21   C59   S    
C34   O7    A    
O4    Zn2   S    
C54   H46   S    
C8    C37   A    
C55   H48   S    
O19   C57   S    
C59   H60   S    
C45   H23   S    
O22   C60   S    
O15   C51   S    
C46   C47   S    
C23   O5    A    
C11   C17   A    
C9    O9    S    
C32   H6    S    
C7    H10   S    
C43   H16   S    
C53   H43   S    
C11   O22   S    
O5    Zn1   S    
C6    C7    A    
C50   H36   S    
C22   O15   S    
C13   O10   S    
C58   H56   S    
C29   C35   S    
C26   N1    A    
C10   C38   A    
C42   H15   S    
C41   H11   S    
C19   C20   A    
C52   H40   S    
C2    C3    A    
C56   H52   S    
O10   C43   S    
C3    C10   A    
C54   H44   S    
C32   C33   A    
C11   C13   A    
C27   H2    S    
C30   C31   A    
C51   H38   S    
C55   H49   S    
C57   H55   S    
O3    Zn1   S    
O14   C50   S    
C33   C35   A    
C57   H53   S    
C22   C24   A    
C12   O3    A    
O9    C41   S    
C2    C40   A    
C4    C5    A    
C47   H26   S    
C50   H35   S    
C31   H5    S    
C52   H39   S    
C27   C28   A    
C59   H59   S    
O20   C58   S    
C1    C14   S    
C55   H47   S    
C13   C14   A    
C56   H50   S    
C51   C52   S    
