data_mof_unit_16139.cif
_audit_creation_date              2012-10-26T21:02:35-0400
_audit_creation_method            fapswitch 2.2
_symmetry_space_group_name_H-M    P1
_symmetry_Int_Tables_number       1
_space_group_crystal_system       triclinic
_cell_length_a                    12.321817
_cell_length_b                    13.241313
_cell_length_c                    15.052174
_cell_angle_alpha                 77.323554
_cell_angle_beta                  101.441538
_cell_angle_gamma                 116.628201
_cell_volume                      2127.74081902

loop_
_atom_site_label
_atom_site_type_symbol
_atom_type_description
_atom_site_fract_x
_atom_site_fract_y
_atom_site_fract_z
_atom_type_partial_charge
C1    C     C_R   0.854572 0.286613 0.509467 0.538950
C2    C     C_R   0.892812 0.460855 0.802819 -0.157924
C3    C     C_R   0.004439 0.507340 0.766896 -0.001205
C4    C     C_R   0.001889 0.503083 0.670638 0.526845
C5    C     C_R   0.116139 0.551464 0.824093 0.231518
C6    C     C_R   0.270748 0.026751 0.397319 -0.122085
C7    C     C_R   0.227019 0.834638 0.474045 -0.006520
C8    C     C_R   0.811758 0.090189 0.586010 -0.178055
C9    C     C_R   0.728249 0.985494 0.626798 0.304011
C10   C     C_R   0.602985 0.955262 0.604795 0.288388
C11   C     C_R   0.559836 0.019408 0.528710 -0.030641
C12   C     C_R   0.107319 0.528747 0.106036 0.005724
C13   C     C_R   0.645673 0.125859 0.488603 -0.020921
C14   C     C_R   0.434852 0.982467 0.491332 0.023858
C15   C     C_R   0.395219 0.059227 0.428077 0.056910
C16   C     C_R   0.145004 0.713203 0.487095 0.539795
C17   C     C_R   0.480891 0.163587 0.390576 -0.122354
C18   C     C_R   0.604338 0.192322 0.415425 -0.094382
C19   C     C_R   0.350189 0.868501 0.507940 -0.141131
C20   C     C_R   0.186372 0.915219 0.421965 -0.117595
C21   C     C_R   0.770827 0.164497 0.523469 -0.045820
C22   C     C_R   0.349187 0.333709 0.652721 0.222546
C23   C     C_R   0.772890 0.393678 0.024876 0.236228
C24   C     C_R   0.759209 0.645883 0.375568 0.399457
C25   C     C_R   0.662614 0.680690 0.351939 0.211420
C26   C     C_R   0.559514 0.622790 0.398571 -0.103116
C27   C     C_R   0.551768 0.534147 0.471928 -0.054189
C28   C     C_R   0.998440 0.497527 0.329118 0.583920
C29   C     C_R   0.653485 0.505250 0.495990 0.128620
C30   C     C_R   0.447995 0.475135 0.523432 -0.024005
C31   C     C_R   0.449240 0.390184 0.599644 0.040133
C32   C     C_R   0.548562 0.361535 0.619857 -0.163751
C33   C     C_R   0.647944 0.418281 0.570087 -0.091545
C34   C     C_R   0.777762 0.403577 0.931530 -0.046935
C35   C     C_R   0.342087 0.496630 0.502334 0.031212
C36   C     C_R   0.247719 0.357999 0.626004 0.124177
C37   C     C_R   0.105298 0.525434 0.198494 -0.169940
C38   C     C_R   0.994950 0.491447 0.232846 0.031885
C39   C     C_R   0.883367 0.455235 0.175328 0.210480
C40   C     C_R   0.882590 0.444941 0.083345 0.004197
C41   C     C_R   0.996391 0.489013 0.047946 -0.000454
C42   C     C_R   0.889725 0.454252 0.895788 -0.042245
C43   C     C_R   0.999804 0.494434 0.954103 0.008160
C44   C     C_R   0.113416 0.541658 0.918438 0.070757
C45   C     C_R   0.222450 0.579894 0.977805 -0.078248
C46   C     C_R   0.219272 0.572520 0.070867 -0.131264
Cu1   Cu    Cu3+1 0.098270 0.475420 0.521130 0.956159
Cu2   Cu    Cu3+1 0.901730 0.524580 0.478870 1.017882
H1    H     H_    0.452699 0.219955 0.337569 0.124491
H2    H     H_    0.462895 0.891801 0.671477 0.318553
H3    H     H_    0.856886 0.949154 0.703382 0.317923
H4    H     H_    0.666655 0.267371 0.375977 0.185300
H5    H     H_    0.170247 0.314654 0.665146 0.155147
H6    H     H_    0.550877 0.293466 0.674041 0.119308
H7    H     H_    0.429619 0.280000 0.764040 0.331336
H8    H     H_    0.729273 0.465288 0.161264 0.358329
H9    H     H_    0.332780 0.558753 0.445552 0.125556
H10   H     H_    0.833991 0.720007 0.263080 0.313699
H11   H     H_    0.488533 0.652338 0.377496 0.138018
H12   H     H_    0.239517 0.086109 0.351097 0.118440
H13   H     H_    0.752876 0.826444 0.279937 0.330802
H14   H     H_    0.673451 0.284881 0.116998 0.356249
H15   H     H_    0.217343 0.642020 0.725986 0.342872
H16   H     H_    0.310724 0.615713 0.952687 0.190879
H17   H     H_    0.091151 0.890299 0.394992 0.162765
H18   H     H_    0.380399 0.803508 0.542552 0.183405
H19   H     H_    0.719048 0.390804 0.592992 0.178787
H20   H     H_    0.693230 0.367157 0.887269 0.143127
H21   H     H_    0.807829 0.426709 0.758509 0.116532
H22   H     H_    0.304709 0.602833 0.115228 0.134016
H23   H     H_    0.190676 0.555001 0.243179 0.126362
H24   H     H_    0.908186 0.118181 0.610159 0.127777
N1    N     N_R   0.246280 0.438190 0.553160 -0.272954
N2    N     N_R   0.754320 0.561190 0.447410 -0.226272
O1    O     O_R   0.972510 0.318130 0.526570 -0.506940
O2    O     O_3   0.766301 0.916057 0.695331 -0.619423
O3    O     O_3   0.346455 0.255196 0.730491 -0.699215
O4    O     O_3   0.778515 0.434736 0.209939 -0.699890
O5    O     O_3   0.859558 0.695630 0.327675 -0.664590
O6    O     O_3   0.666474 0.772311 0.285672 -0.704436
O7    O     O_3   0.660414 0.327887 0.056233 -0.689769
O8    O     O_3   0.228143 0.605797 0.790028 -0.680312
O9    O     O_R   0.806530 0.359650 0.490890 -0.534181
O10   O     O_R   0.082980 0.479210 0.647590 -0.487600
O11   O     O_R   0.917000 0.520730 0.611900 -0.528906
O12   O     O_R   0.193470 0.640350 0.509110 -0.517544
O13   O     O_R   0.027490 0.681870 0.473430 -0.452295
O14   O     O_R   0.083000 0.479270 0.388100 -0.530280
O15   O     O_R   0.917020 0.520790 0.352410 -0.395819
O16   O     O_3   0.527652 0.869856 0.664840 -0.638154

loop_
_geom_bond_atom_site_label_1
_geom_bond_atom_site_label_2
_ccdc_geom_bond_type
C1    C21   S    
C27   C29   A    
C25   O6    S    
C34   C42   A    
C18   H4    S    
C45   C46   A    
C26   C27   A    
C37   C38   A    
C13   C18   A    
C38   C39   A    
H7    O3    S    
C11   C14   A    
H13   O6    S    
C23   C40   A    
C29   C33   A    
H8    O4    S    
C19   H18   S    
C12   C37   A    
C36   H5    S    
C6    C15   A    
H2    O16   S    
Cu1   Cu2   S    
C8    C9    A    
C28   O14   A    
C16   O13   A    
C28   O15   A    
C9    O2    S    
C2    H21   S    
C9    C10   A    
C27   C30   A    
C16   O12   A    
C41   C43   A    
C32   H6    S    
C8    C21   A    
C8    H24   S    
C22   C31   A    
H15   O8    S    
C1    O1    A    
Cu1   O12   S    
Cu2   N2    S    
C20   H17   S    
H3    O2    S    
Cu1   N1    S    
C12   C46   A    
C36   N1    A    
C34   H20   S    
C39   C40   A    
C4    O11   A    
C25   C26   A    
C43   C44   A    
C39   O4    S    
C12   C41   A    
C6    H12   S    
C24   O5    S    
C31   C32   A    
C4    O10   A    
C28   C38   S    
C23   C34   A    
C17   C18   A    
Cu2   O13   S    
C13   C21   A    
Cu1   O10   S    
C24   C25   A    
H10   O5    S    
C30   C35   A    
C40   C41   A    
H14   O7    S    
C7    C19   A    
Cu2   O15   S    
C37   H23   S    
C42   C43   A    
C17   H1    S    
C3    C4    S    
C6    C20   A    
C44   C45   A    
C33   H19   S    
C26   H11   S    
C15   C17   A    
C35   N1    A    
C23   O7    S    
C14   C15   A    
C14   C19   A    
C5    C44   A    
C7    C16   S    
C22   O3    S    
C3    C5    A    
C29   N2    A    
C1    O9    A    
C22   C36   A    
C45   H16   S    
Cu2   O9    S    
C35   H9    S    
Cu1   O14   S    
C2    C3    A    
Cu1   O1    S    
C32   C33   A    
C5    O8    S    
C11   C13   A    
C24   N2    A    
C30   C31   A    
C2    C42   A    
C46   H22   S    
C10   C11   A    
C10   O16   S    
C7    C20   A    
Cu2   O11   S    
