data_mof_unit_49625.cif
_audit_creation_date              2012-12-11T17:07:27-0500
_audit_creation_method            fapswitch 2.2
_symmetry_space_group_name_H-M    P1
_symmetry_Int_Tables_number       1
_space_group_crystal_system       triclinic
_cell_length_a                    6.958319
_cell_length_b                    14.56153
_cell_length_c                    16.050711
_cell_angle_alpha                 90.050731
_cell_angle_beta                  89.555086
_cell_angle_gamma                 90.100187
_cell_volume                      1626.26642722

loop_
_atom_site_label
_atom_site_type_symbol
_atom_type_description
_atom_site_fract_x
_atom_site_fract_y
_atom_site_fract_z
_atom_type_partial_charge
O1    O     O_R   0.505720 0.583900 0.413310 -0.545549
O2    O     O_R   0.175940 0.594920 0.586080 -0.541182
O3    O     O_R   0.005640 0.416100 0.586690 -0.547687
C1    C     C_R   0.344246 0.617486 0.614262 0.715704
O4    O     O_R   0.176000 0.594930 0.413930 -0.507087
O5    O     O_R   0.005700 0.416110 0.413310 -0.539299
C2    C     C_R   0.345235 0.617438 0.385604 0.780301
O6    O     O_R   0.505660 0.583890 0.586690 -0.542984
O7    O     O_3   0.339200 0.441330 0.500000 -0.366374
V1    V     V_3+5 0.064350 0.510880 0.500000 1.549818
O8    O     O_R   0.675980 0.405080 0.413920 -0.532289
C3    C     C_R   0.845293 0.383149 0.385112 0.745290
O9    O     O_R   0.675920 0.405070 0.586070 -0.531808
C4    C     C_R   0.843294 0.385571 0.616519 0.756793
V2    V     V_3+5 0.564340 0.489120 0.500000 1.531806
O10   O     O_3   0.839360 0.558670 0.500000 -0.366966
H1    H     H_    0.013937 0.093000 0.496886 0.182320
C5    C     C_R   0.748467 0.434033 0.792916 0.048057
C6    C     C_R   0.715133 0.456916 0.876500 0.565614
C7    C     C_R   0.741026 0.392843 0.938524 -0.217437
C8    C     C_R   0.798421 0.304292 0.919111 0.522228
C9    C     C_R   0.830440 0.276329 0.834967 -0.121500
C10   C     C_R   0.809187 0.343189 0.770106 -0.071925
C11   C     C_R   0.887851 0.184592 0.815380 -0.105429
C12   C     C_R   0.936354 0.160619 0.731206 -0.017988
C13   C     C_R   0.905559 0.226158 0.666619 0.012439
C14   C     C_R   0.849687 0.317425 0.685722 -0.061656
C15   C     C_R   0.016662 0.073463 0.708014 0.028098
C16   C     C_R   0.040684 0.049994 0.623766 0.633956
C17   C     C_R   0.994932 0.111827 0.561713 -0.158810
C18   C     C_R   0.931712 0.199117 0.582432 -0.234030
H2    H     H_    0.717498 0.412192 0.002978 0.213974
H3    H     H_    0.902565 0.244971 0.531089 0.135866
C19   C     C_R   0.724681 0.183847 0.241097 -0.071472
C20   C     C_R   0.881058 0.182268 0.185694 -0.042197
C21   C     C_R   0.031913 0.244468 0.200339 -0.133265
H4    H     H_    0.152578 0.247120 0.157973 0.199315
C22   C     C_R   0.021554 0.308570 0.265897 -0.046051
H5    H     H_    0.136210 0.358179 0.272588 0.140727
C23   C     C_R   0.858930 0.312855 0.318536 -0.125443
C24   C     C_R   0.713982 0.247449 0.306250 -0.000725
C25   C     C_3   0.505131 0.263135 0.292592 0.400625
C26   C     C_3   0.517276 0.194876 0.221326 0.396121
H6    H     H_    0.471134 0.334719 0.273871 0.091048
H7    H     H_    0.431735 0.131061 0.230361 0.078607
C27   C     C_R   0.484766 0.758678 0.681384 0.143539
C28   C     C_R   0.349988 0.687422 0.681095 -0.172866
C29   C     C_R   0.210416 0.688388 0.745386 -0.229958
H8    H     H_    0.097666 0.637300 0.746291 0.143104
C30   C     C_R   0.222741 0.751466 0.812271 0.626656
C31   C     C_R   0.375447 0.815778 0.816167 -0.198667
C32   C     C_R   0.495981 0.820935 0.746199 0.025970
C33   C     C_3   0.706398 0.834067 0.734217 -0.387980
C34   C     C_3   0.694553 0.764787 0.662823 -0.333429
H9    H     H_    0.791152 0.809397 0.788099 0.228390
H10   H     H_    0.738804 0.904764 0.712382 0.178797
H11   H     H_    0.772088 0.699842 0.675453 0.171995
H12   H     H_    0.724191 0.795837 0.600799 0.205274
C35   C     C_R   0.491938 0.676501 0.252422 -0.084262
C36   C     C_R   0.353197 0.684091 0.315836 -0.252482
C37   C     C_R   0.214362 0.754248 0.307772 0.653282
C38   C     C_R   0.225899 0.818055 0.241830 -0.182855
H13   H     H_    0.124263 0.874150 0.240151 0.201569
C39   C     C_R   0.375344 0.813874 0.182234 -0.134599
C40   C     C_R   0.503338 0.740000 0.187597 -0.041599
C41   C     C_3   0.717665 0.739206 0.188040 0.425213
C42   C     C_3   0.705182 0.669385 0.258245 0.432502
H14   H     H_    0.782590 0.712967 0.129198 0.124586
H15   H     H_    0.762685 0.693014 0.318956 0.153357
O11   O     O_R   0.229140 0.916090 0.913340 -0.515701
O12   O     O_R   0.558860 0.905090 0.086080 -0.523582
O13   O     O_R   0.729100 0.083920 0.086690 -0.507647
C43   C     C_R   0.389455 0.883253 0.114951 0.741763
O14   O     O_R   0.558860 0.905090 0.913930 -0.551071
O15   O     O_R   0.729100 0.083920 0.913310 -0.538007
C44   C     C_R   0.389831 0.882460 0.885699 0.740336
O16   O     O_R   0.229140 0.916080 0.086720 -0.545506
O17   O     O_3   0.395570 0.058660 0.000020 -0.361567
V3    V     V_3+5 0.670450 0.989140 0.000000 1.604348
O18   O     O_R   0.058810 0.094980 0.913910 -0.521927
C45   C     C_R   0.891876 0.114026 0.882850 0.874664
O19   O     O_R   0.058810 0.094980 0.086060 -0.551912
C46   C     C_R   0.889812 0.116224 0.115434 0.843309
V4    V     V_3+5 0.170450 0.010950 0.999970 1.585944
O20   O     O_3   0.895460 0.941370 0.999990 -0.363588
F1    F     F_    0.396059 0.230569 0.358761 -0.690905
F2    F     F_    0.493758 0.236317 0.144412 -0.674004
F3    F     F_    0.092061 0.745700 0.875280 -0.668805
N1    N     N_3   0.716671 0.504242 0.732418 -0.639640
H16   H     H_    0.806000 0.559660 0.746461 0.242907
H17   H     H_    0.574358 0.526154 0.738700 0.254732
F4    F     F_    0.076337 0.765805 0.367013 -0.665826
F5    F     F_    0.790973 0.822538 0.214406 -0.699556
F6    F     F_    0.769313 0.583421 0.234000 -0.685247
F7    F     F_    0.658026 0.543009 0.897745 -0.648571
F8    F     F_    0.828372 0.248270 0.984888 -0.681697
N2    N     N_3   0.092121 0.011529 0.768501 -0.656273
H18   H     H_    0.032498 0.946537 0.759640 0.244878
H19   H     H_    0.240286 0.006297 0.758134 0.240314
F9    F     F_    0.113856 0.966869 0.602090 -0.677251

loop_
_geom_bond_atom_site_label_1
_geom_bond_atom_site_label_2
_ccdc_geom_bond_type
C15   N2    S    
C41   H14   S    
C24   C25   S    
C6    C7    A    
C1    O6    A    
O12   V3    S    
N2    H18   S    
C33   C34   S    
C12   C15   A    
C13   C14   A    
C16   C17   A    
O14   C44   A    
C15   C16   A    
C5    C6    A    
O13   V3    S    
C34   H12   S    
C17   C18   A    
V2    O10   S    
C27   C32   A    
C19   C20   A    
C38   C39   A    
C35   C42   S    
O8    V2    S    
C20   C21   A    
C42   F6    S    
C39   C43   S    
C18   H3    S    
C25   F1    S    
C10   C14   A    
C4    C14   S    
N1    H17   S    
O11   V4    S    
O7    V1    S    
C37   F4    S    
C30   F3    S    
C29   C30   A    
C41   C42   S    
C35   C36   A    
C8    C9    A    
H1    C17   S    
C19   C24   A    
C25   H6    S    
O5    C3    A    
N2    H19   S    
C33   H9    S    
C5    C10   A    
V4    O20   S    
O18   V4    S    
O4    C2    A    
C20   C46   S    
O17   V3    S    
O15   C45   A    
O16   V4    S    
C12   C13   A    
C31   C32   A    
C36   C37   A    
C42   H15   S    
C3    C23   S    
O2    C1    A    
C11   C45   S    
C38   H13   S    
C28   C29   A    
C27   C34   S    
C30   C31   A    
C11   C12   A    
C26   H7    S    
O3    C4    A    
C41   F5    S    
O1    V2    S    
C29   H8    S    
O19   C46   A    
O6    V2    S    
O19   V4    S    
O14   V3    S    
O9    V2    S    
O11   C44   A    
C9    C11   A    
C25   C26   S    
O2    V1    S    
C2    C36   S    
V3    O20   S    
C6    F7    S    
C32   C33   S    
O12   C43   A    
C7    H2    S    
C33   H10   S    
C27   C28   A    
C23   C24   A    
C16   F9    S    
O1    C2    A    
C5    N1    S    
C19   C26   S    
O18   C45   A    
O5    V1    S    
O8    C3    A    
C8    F8    S    
C26   F2    S    
C39   C40   A    
C21   C22   A    
O7    V2    S    
O4    V1    S    
O3    V1    S    
V1    O10   S    
C35   C40   A    
C22   C23   A    
C22   H5    S    
C37   C38   A    
O13   C46   A    
O17   V4    S    
C13   C18   A    
C7    C8    A    
C21   H4    S    
C40   C41   S    
C31   C44   S    
C43   O16   A    
C9    C10   A    
N1    H16   S    
O9    C4    A    
O15   V3    S    
C34   H11   S    
C1    C28   S    
