data_mof_unit_63868.cif
_audit_creation_date              2012-12-10T18:08:08-0500
_audit_creation_method            fapswitch 2.2
_symmetry_space_group_name_H-M    P1
_symmetry_Int_Tables_number       1
_space_group_crystal_system       triclinic
_cell_length_a                    18.680136
_cell_length_b                    18.743923
_cell_length_c                    18.745362
_cell_angle_alpha                 109.613353
_cell_angle_beta                  109.466401
_cell_angle_gamma                 109.360104
_cell_volume                      5050.91868553

loop_
_atom_site_label
_atom_site_type_symbol
_atom_type_description
_atom_site_fract_x
_atom_site_fract_y
_atom_site_fract_z
_atom_type_partial_charge
C1    C     C_R   0.379837 0.500181 0.379773 0.875223
C2    C     C_R   0.314019 0.500909 0.313897 -0.041154
C3    C     C_R   0.321713 0.241899 0.499326 -0.183694
C4    C     C_R   0.620354 0.619968 0.500225 0.900046
C5    C     C_R   0.258559 0.178738 0.500815 -0.184169
C6    C     C_R   0.186656 0.186606 0.500480 -0.009202
C7    C     C_R   0.178079 0.257792 0.500179 -0.185857
C8    C     C_R   0.242623 0.322333 0.501469 -0.184717
C9    C     C_R   0.313769 0.313722 0.500284 -0.011081
C10   C     C_R   0.752813 0.489681 0.672562 -0.258402
C11   C     C_R   0.816896 0.488372 0.735543 0.216882
C12   C     C_R   0.811765 0.823988 0.571911 0.039327
C13   C     C_R   0.813564 0.497915 0.811887 -0.040459
C14   C     C_R   0.747498 0.508227 0.824986 -0.244056
C15   C     C_R   0.684701 0.510582 0.762473 -0.188269
C16   C     C_R   0.620587 0.500296 0.620254 0.880811
C17   C     C_R   0.687226 0.500604 0.686285 -0.044890
C18   C     C_R   0.999915 0.879738 0.379756 0.849757
C19   C     C_R   0.879981 0.879155 0.498767 0.879837
C20   C     C_R   0.999504 0.119660 0.620135 0.893362
C21   C     C_R   0.120337 0.120342 0.500153 0.856994
C22   C     C_R   0.000015 0.620280 0.120323 0.849726
C23   C     C_3   0.858694 0.886003 0.667598 -0.507154
C24   C     C_R   0.120240 0.500775 0.120778 0.865683
C25   C     C_R   0.000887 0.379881 0.880776 0.894772
C26   C     C_R   0.879780 0.499559 0.879513 0.885572
C27   C     C_R   0.998989 0.821220 0.241791 -0.182588
C28   C     C_R   0.379789 0.379766 0.500072 0.863027
C29   C     C_R   0.000374 0.757966 0.178541 -0.184538
C30   C     C_R   0.999958 0.686350 0.186445 -0.005537
C31   C     C_R   0.999493 0.677995 0.257618 -0.187835
C32   C     C_R   0.000765 0.742593 0.322208 -0.190708
C33   C     C_R   0.999888 0.813565 0.313648 -0.008078
C34   C     C_3   0.787464 0.816762 0.669652 0.040697
C35   C     C_R   0.919318 0.174803 0.681809 0.118216
C36   C     C_R   0.921717 0.239608 0.747741 -0.285105
C37   C     C_R   0.001979 0.313319 0.815865 -0.076303
C38   C     C_R   0.081612 0.322665 0.820756 0.223368
C39   C     C_R   0.079201 0.257743 0.755113 -0.301455
C40   C     C_R   0.749185 0.763728 0.572901 0.048379
C41   C     C_R   0.998869 0.185009 0.686299 -0.059340
C42   C     C_R   0.684489 0.684760 0.497934 -0.159561
C43   C     C_R   0.684424 0.668737 0.418890 -0.183889
C44   C     C_R   0.748524 0.732355 0.417094 0.070005
C45   C     C_R   0.247670 0.422403 0.237432 -0.180424
C46   C     C_R   0.813818 0.811826 0.495990 -0.114397
C47   C     C_3   0.867031 0.387643 0.689601 -0.768448
C48   C     C_3   0.194423 0.390239 0.970241 -0.751977
C49   C     C_3   0.785140 0.757281 0.767674 -0.777527
C50   C     C_R   0.183078 0.422880 0.174877 -0.234759
C51   C     C_R   0.186584 0.502097 0.187929 -0.022419
C52   C     C_R   0.253275 0.581599 0.264522 0.110188
C53   C     C_R   0.316963 0.580191 0.328047 -0.219357
H1    H     H_    0.634738 0.607542 0.358857 0.173663
H2    H     H_    0.998660 0.876574 0.235602 0.144693
H3    H     H_    0.000353 0.763975 0.123014 0.143470
H4    H     H_    0.999572 0.622506 0.263658 0.142125
H5    H     H_    0.001025 0.736723 0.377862 0.142129
H6    H     H_    0.861064 0.233318 0.745480 0.154978
H7    H     H_    0.139939 0.263892 0.757650 0.152589
H8    H     H_    0.925476 0.895700 0.701495 0.221221
H9    H     H_    0.855338 0.947009 0.682365 0.171498
H10   H     H_    0.744628 0.838721 0.688353 0.155489
H11   H     H_    0.245155 0.360936 0.226980 0.153499
H12   H     H_    0.369048 0.640526 0.387888 0.143339
H13   H     H_    0.131151 0.361833 0.115751 0.148217
H14   H     H_    0.900477 0.502171 0.685143 0.221631
H15   H     H_    0.808910 0.343988 0.622712 0.235293
H16   H     H_    0.855440 0.363651 0.733568 0.230244
H17   H     H_    0.924861 0.385302 0.687229 0.244879
H18   H     H_    0.808628 0.721787 0.345069 0.177373
H19   H     H_    0.737356 0.758343 0.318632 0.211663
H20   H     H_    0.835997 0.044933 0.617915 0.165760
H21   H     H_    0.784819 0.103347 0.616377 0.178440
H22   H     H_    0.211753 0.413335 0.875215 0.221923
H23   H     H_    0.377195 0.235639 0.498817 0.144728
H24   H     H_    0.209101 0.335918 0.958672 0.230587
H25   H     H_    0.144464 0.378984 0.990905 0.225540
H26   H     H_    0.255055 0.452443 0.024014 0.244794
H27   H     H_    0.835181 0.731164 0.683238 0.234458
H28   H     H_    0.816712 0.727798 0.800471 0.241558
H29   H     H_    0.713898 0.710350 0.724788 0.266511
H30   H     H_    0.795812 0.817770 0.818626 0.240939
H31   H     H_    0.200616 0.659510 0.284282 0.168730
H32   H     H_    0.310417 0.715041 0.336240 0.178810
H33   H     H_    0.264799 0.123243 0.500685 0.144166
H34   H     H_    0.122396 0.263854 0.500294 0.143599
H35   H     H_    0.236503 0.377959 0.501878 0.144061
H36   H     H_    0.754070 0.482131 0.613126 0.147258
H37   H     H_    0.745592 0.515919 0.884167 0.154957
H38   H     H_    0.633539 0.518752 0.772777 0.156816
N1    N     N_2   0.883493 0.476436 0.721598 -0.300420
N2    N     N_3   0.747483 0.713613 0.335961 -0.455003
N3    N     N_3   0.837269 0.098466 0.611272 -0.431870
N4    N     N_2   0.163765 0.396088 0.891760 -0.292231
N5    N     N_2   0.823196 0.777909 0.716714 -0.283581
N6    N     N_3   0.254737 0.662327 0.277622 -0.437104
O1    O     O_R   0.408340 0.551690 0.460080 -0.625873
O2    O     O_R   0.051700 0.643420 0.091650 -0.621644
O3    O     O_R   0.039910 0.448390 0.091720 -0.631014
O4    O     O_R   0.408400 0.448280 0.356690 -0.623591
O5    O     O_R   0.143340 0.551810 0.091690 -0.593239
O6    O     O_R   0.948300 0.356760 0.908530 -0.636397
O7    O     O_R   0.051730 0.460180 0.908500 -0.587824
O8    O     O_R   0.856660 0.448370 0.908490 -0.630356
O9    O     O_R   0.960090 0.551790 0.908450 -0.604309
O10   O     O_R   0.591580 0.643330 0.551700 -0.630436
O11   O     O_R   0.591640 0.539920 0.448310 -0.626306
O12   O     O_R   0.948260 0.908480 0.356680 -0.626167
O13   O     O_R   0.591600 0.551720 0.643310 -0.639418
O14   O     O_R   0.591660 0.448310 0.539920 -0.621938
O15   O     O_R   0.408360 0.460080 0.551690 -0.621854
O16   O     O_R   0.408420 0.356670 0.448300 -0.622097
O17   O     O_R   0.051710 0.908420 0.460050 -0.623703
O18   O     O_R   0.960120 0.908380 0.551680 -0.620384
O19   O     O_R   0.856660 0.908440 0.448310 -0.629197
O20   O     O_R   0.051740 0.091590 0.643330 -0.627630
O21   O     O_R   0.948290 0.091650 0.539960 -0.600401
O22   O     O_R   0.143330 0.091630 0.551690 -0.622897
O23   O     O_R   0.039880 0.091690 0.448320 -0.623312
O24   O     O_R   0.948270 0.540000 0.091680 -0.623572
Zn1   Zn    Zn3+2 0.499960 0.569050 0.569040 0.933458
Zn2   Zn    Zn3+2 0.500040 0.430950 0.430960 0.951596
Zn3   Zn    Zn3+2 0.069080 0.999990 0.569020 0.949774
Zn4   Zn    Zn3+2 0.930920 0.000070 0.430980 0.957728
Zn5   Zn    Zn3+2 0.930940 0.431040 0.000110 0.947520
Zn6   Zn    Zn3+2 0.069060 0.569140 0.000070 0.987537

loop_
_geom_bond_atom_site_label_1
_geom_bond_atom_site_label_2
_ccdc_geom_bond_type
C49   H29   S    
C48   N4    S    
C27   C29   A    
C47   N1    S    
H21   N3    S    
C35   C36   A    
C18   O12   A    
C32   H5    S    
C36   H6    S    
C18   O17   A    
C20   O21   A    
C20   C41   S    
C19   C46   S    
H22   N4    S    
C7    C8    A    
C39   C41   A    
O22   Zn3   S    
C28   O15   A    
C4    O11   A    
C12   C23   S    
C29   C30   A    
O8    Zn5   S    
C34   C40   S    
H31   N6    S    
C45   C50   A    
C48   H26   S    
C36   C37   A    
O20   Zn3   S    
C34   N5    S    
C21   O23   A    
C30   C31   A    
C27   H2    S    
C10   C17   A    
C49   H28   S    
C16   O13   A    
C52   N6    S    
C15   C17   A    
C1    C2    S    
C48   H25   S    
O6    Zn5   S    
C47   H16   S    
C44   N2    S    
C25   C37   S    
C11   N1    S    
C23   H9    S    
C7    H34   S    
C10   H36   S    
C8    C9    A    
C38   N4    S    
C22   O2    A    
O21   Zn4   S    
H27   N5    S    
C53   H12   S    
O17   Zn3   S    
C24   C51   S    
C40   C42   A    
C13   C14   A    
C26   O9    A    
H20   N3    S    
C26   O8    A    
C20   O20   A    
C44   C46   A    
C2    C45   A    
C38   C39   A    
C4    O10   A    
O14   Zn2   S    
C51   C52   A    
C12   C46   A    
O5    Zn6   S    
C28   O16   A    
O23   Zn4   S    
C16   C17   S    
O2    Zn6   S    
C6    C21   S    
O9    Zn6   S    
C27   C33   A    
C8    H35   S    
C48   H24   S    
C12   C40   A    
C43   C44   A    
C47   H17   S    
O15   Zn1   S    
C37   C38   A    
C3    C9    A    
C43   H1    S    
C31   C32   A    
O16   Zn2   S    
C19   O18   A    
C23   C34   S    
C50   C51   A    
O4    Zn2   S    
C3    H23   S    
C50   H13   S    
H19   N2    S    
O12   Zn4   S    
O19   Zn4   S    
O3    Zn5   S    
C13   C26   S    
C42   C43   A    
C5    H33   S    
O11   Zn2   S    
C1    O4    A    
C47   H15   S    
H14   N1    S    
C52   C53   A    
C22   O24   A    
C35   N3    S    
O1    Zn1   S    
O18   Zn3   S    
C22   C30   S    
C24   O3    A    
C25   O6    A    
C3    C5    A    
C2    C53   A    
C1    O1    A    
C25   O7    A    
C6    C7    A    
H18   N2    S    
C29   H3    S    
C45   H11   S    
C32   C33   A    
C49   H30   S    
O24   Zn5   S    
C21   O22   A    
O13   Zn1   S    
C11   C13   A    
C31   H4    S    
C5    C6    A    
O7    Zn6   S    
C4    C42   S    
C19   O19   A    
C39   H7    S    
C34   H10   S    
C24   O5    A    
C49   N5    S    
C35   C41   A    
C18   C33   S    
H32   N6    S    
C10   C11   A    
C15   H38   S    
C14   H37   S    
C23   H8    S    
C16   O14   A    
C14   C15   A    
O10   Zn1   S    
C9    C28   S    
