data_mof_unit_43924.cif
_audit_creation_date              2012-12-11T14:19:20-0500
_audit_creation_method            fapswitch 2.2
_symmetry_space_group_name_H-M    P1
_symmetry_Int_Tables_number       1
_space_group_crystal_system       triclinic
_cell_length_a                    19.465443
_cell_length_b                    7.231145
_cell_length_c                    17.830138
_cell_angle_alpha                 90.000029
_cell_angle_beta                  107.582077
_cell_angle_gamma                 90.0
_cell_volume                      2392.48332973

loop_
_atom_site_label
_atom_site_type_symbol
_atom_type_description
_atom_site_fract_x
_atom_site_fract_y
_atom_site_fract_z
_atom_type_partial_charge
O1    O     O_R   0.414820 0.494320 0.416790 -0.535783
O2    O     O_R   0.585180 0.994320 0.583210 -0.535783
O3    O     O_R   0.560270 0.819500 0.430140 -0.529459
O4    O     O_R   0.439730 0.319500 0.569860 -0.529459
C1    C     C_R   0.581433 0.655262 0.415118 0.696001
C2    C     C_R   0.418567 0.155262 0.584882 0.696000
O5    O     O_R   0.413840 0.823740 0.407440 -0.543934
O6    O     O_R   0.586160 0.323740 0.592560 -0.543934
O7    O     O_R   0.437710 0.998590 0.560350 -0.532368
O8    O     O_R   0.562290 0.498590 0.439650 -0.532368
C3    C     C_R   0.387936 0.653779 0.384430 0.611594
C4    C     C_R   0.612064 0.153779 0.615570 0.611594
O9    O     O_3   0.508000 0.662290 0.550200 -0.362591
O10   O     O_3   0.492000 0.162290 0.449800 -0.362591
V1    V     V_3+5 0.498520 0.935380 0.490690 1.543636
V2    V     V_3+5 0.501480 0.435380 0.509310 1.543635
C5    C     C_2   0.770561 0.229564 0.809524 -0.106410
C6    C     C_2   0.229439 0.729564 0.190476 -0.106410
C7    C     C_2   0.828700 0.125046 0.810784 0.312879
C8    C     C_2   0.171300 0.625046 0.189216 0.312879
H1    H     H_    0.770257 0.299484 0.863459 0.059877
H2    H     H_    0.229743 0.799484 0.136541 0.059877
C9    C     C_2   0.707111 0.264700 0.738666 -0.045816
C10   C     C_2   0.292889 0.764699 0.261334 -0.045815
C11   C     C_2   0.677679 0.129232 0.685856 0.238255
C12   C     C_2   0.322321 0.629232 0.314144 0.238255
C13   C     C_R   0.311560 0.282431 0.619267 0.321062
C14   C     C_R   0.688440 0.782432 0.380733 0.321062
C15   C     C_R   0.367007 0.147880 0.632094 -0.194985
C16   C     C_R   0.632993 0.647881 0.367906 -0.194984
C17   C     C_R   0.373467 0.011236 0.690454 -0.120743
C18   C     C_R   0.626533 0.511236 0.309546 -0.120744
C19   C     C_R   0.324458 0.007783 0.735065 0.068381
C20   C     C_R   0.675542 0.507783 0.264935 0.068381
C21   C     C_R   0.271979 0.149837 0.725565 -0.008266
C22   C     C_R   0.728021 0.649837 0.274435 -0.008266
C23   C     C_R   0.267773 0.293306 0.670272 0.012892
C24   C     C_R   0.732227 0.793307 0.329728 0.012891
C25   C     C_R   0.327157 0.865099 0.789743 -0.172080
C26   C     C_R   0.672843 0.365099 0.210257 -0.172080
C27   C     C_R   0.279523 0.861483 0.833952 -0.192627
C28   C     C_R   0.720477 0.361483 0.166048 -0.192627
C29   C     C_R   0.227706 0.999849 0.825274 0.122932
C30   C     C_R   0.772294 0.499849 0.174726 0.122932
C31   C     C_R   0.223294 0.146128 0.771224 0.076067
C32   C     C_R   0.776705 0.646128 0.228775 0.076067
C33   C     C_R   0.170059 0.285943 0.762654 0.012443
C34   C     C_R   0.829940 0.785943 0.237346 0.012443
C35   C     C_R   0.171506 0.439895 0.713116 -0.129425
C36   C     C_R   0.828494 0.939895 0.286884 -0.129426
C37   C     C_R   0.219415 0.442703 0.667213 -0.094271
C38   C     C_R   0.780585 0.942703 0.332787 -0.094271
C39   C     C_R   0.180719 0.992522 0.870812 -0.190826
C40   C     C_R   0.819281 0.492522 0.129188 -0.190826
C41   C     C_R   0.126543 0.124362 0.861943 -0.108166
C42   C     C_R   0.873457 0.624362 0.138057 -0.108166
C43   C     C_R   0.118562 0.266367 0.805198 -0.099115
C44   C     C_R   0.881438 0.766367 0.194802 -0.099115
H3    H     H_    0.365769 0.753364 0.798479 0.136342
H4    H     H_    0.634231 0.253364 0.201521 0.136342
H5    H     H_    0.283061 0.748694 0.875013 0.126036
H6    H     H_    0.716939 0.248693 0.124987 0.126036
H7    H     H_    0.186270 0.882561 0.913650 0.119829
H8    H     H_    0.813729 0.382561 0.086350 0.119829
O11   O     O_R   0.937810 0.773680 0.060480 -0.537048
O12   O     O_R   0.062190 0.273680 0.939520 -0.537048
O13   O     O_R   0.086190 0.439740 0.092580 -0.535020
O14   O     O_R   0.913810 0.939740 0.907420 -0.535020
C45   C     C_R   0.111100 0.609377 0.115351 0.581872
C46   C     C_R   0.888900 0.109377 0.884649 0.581873
O15   O     O_R   0.939760 0.444210 0.069890 -0.538617
O16   O     O_R   0.060240 0.944210 0.930110 -0.538617
O17   O     O_R   0.914790 0.269640 0.916760 -0.540338
O18   O     O_R   0.085210 0.769640 0.083240 -0.540337
C47   C     C_R   0.920564 0.613060 0.086262 0.690105
C48   C     C_R   0.079436 0.113060 0.913738 0.690105
O19   O     O_3   0.992050 0.601530 0.949880 -0.366889
O20   O     O_3   0.007950 0.101530 0.050120 -0.366889
V3    V     V_3+5 0.001480 0.328340 0.009300 1.487693
V4    V     V_3+5 0.998520 0.828340 0.990700 1.487693
C49   C     C_1   0.052664 0.374350 0.785638 0.336788
N1    N     N_1   0.999686 0.458793 0.770341 -0.302061
C50   C     C_1   0.947336 0.874350 0.214362 0.336788
N2    N     N_1   0.000314 0.958793 0.229659 -0.302061
C51   C     C_1   0.128068 0.604132 0.711984 0.322728
N3    N     N_1   0.093919 0.735939 0.710534 -0.310197
C52   C     C_1   0.871932 0.104133 0.288016 0.322728
N4    N     N_1   0.906081 0.235939 0.289465 -0.310197
C53   C     C_1   0.220849 0.607306 0.620690 0.443913
N5    N     N_1   0.221769 0.738711 0.583910 -0.310773
C54   C     C_1   0.779151 0.107305 0.379310 0.443913
N6    N     N_1   0.778231 0.238711 0.416090 -0.310773
O21   O     O_3   0.836309 0.053541 0.741820 -0.600368
H9    H     H_    0.883670 0.990456 0.754179 0.299485
O22   O     O_3   0.163691 0.553540 0.258179 -0.600367
H10   H     H_    0.116330 0.490455 0.245821 0.299485
C55   C     C_1   0.673040 0.443458 0.735417 0.265446
N7    N     N_1   0.645584 0.586116 0.733244 -0.272086
C56   C     C_1   0.326960 0.943458 0.264583 0.265446
N8    N     N_1   0.354416 0.086116 0.266756 -0.272086
O23   O     O_3   0.705601 0.952588 0.703183 -0.591850
H11   H     H_    0.695744 0.879604 0.654082 0.321148
O24   O     O_3   0.294399 0.452588 0.296817 -0.591850
H12   H     H_    0.304255 0.379604 0.345917 0.321149
O25   O     O_3   0.297299 0.399118 0.554945 -0.633119
H13   H     H_    0.306901 0.332638 0.510558 0.286962
O26   O     O_3   0.702700 0.899120 0.445054 -0.633119
H14   H     H_    0.693099 0.832639 0.489441 0.286962
C57   C     C_1   0.431507 0.876740 0.705774 0.326116
N9    N     N_1   0.477722 0.769475 0.718068 -0.315251
C58   C     C_1   0.568493 0.376739 0.294226 0.326117
N10   N     N_1   0.522279 0.269474 0.281933 -0.315251

loop_
_geom_bond_atom_site_label_1
_geom_bond_atom_site_label_2
_ccdc_geom_bond_type
O14   V4    S    
C16   C18   A    
C52   N4    T    
O23   H11   S    
C26   H4    S    
C18   C58   S    
C13   C15   A    
C10   C56   S    
O22   H10   S    
O1    C3    A    
C27   H5    S    
O16   C48   A    
O2    C4    A    
C2    O7    A    
O15   V3    S    
C49   N1    T    
C33   C35   A    
C51   N3    T    
O5    C3    A    
O12   V3    S    
O21   H9    S    
C50   N2    T    
C20   C26   A    
C21   C23   A    
C10   C12   D    
C23   C37   A    
C24   C38   A    
C13   O25   S    
C14   O26   S    
C31   C33   A    
C5    C7    D    
C29   C39   A    
C58   N10   T    
C14   C16   A    
C35   C37   A    
C38   C54   S    
C36   C38   A    
O26   H14   S    
C17   C19   A    
C22   C32   A    
C28   H6    S    
C20   C22   A    
C7    O21   S    
C34   C36   A    
O12   C48   A    
O6    V2    S    
C42   C47   S    
O18   V4    S    
C27   C29   A    
C28   C30   A    
C30   C32   A    
C55   N7    T    
C32   C34   A    
C39   C41   A    
O17   V3    S    
C40   C42   A    
C35   C51   S    
O13   V3    S    
O4    C2    A    
C54   N6    T    
O20   V3    S    
C3    C12   S    
C5    H1    S    
O13   C45   A    
C18   C20   A    
O4    V2    S    
C12   O24   S    
C33   C43   A    
C56   N8    T    
C5    C9    S    
C14   C24   A    
O6    C4    A    
C25   H3    S    
C46   O17   A    
C17   C57   S    
C45   O18   A    
O1    V2    S    
C19   C25   A    
O2    V1    S    
C29   C31   A    
C36   C52   S    
C41   C48   S    
O14   C46   A    
C9    C55   S    
C8    O22   S    
C41   C43   A    
C6    C10   S    
C8    C45   S    
C21   C31   A    
O3    V1    S    
C1    C16   S    
O19   V4    S    
C6    H2    S    
C26   C28   A    
O3    C1    A    
C34   C44   A    
O25   H13   S    
O11   C47   A    
C4    C11   S    
C22   C24   A    
O7    V1    S    
C1    O8    A    
O16   V4    S    
O8    V2    S    
C57   N9    T    
C37   C53   S    
O15   C47   A    
C39   H7    S    
C11   O23   S    
C40   H8    S    
C13   C23   A    
O5    V1    S    
C19   C21   A    
C42   C44   A    
C6    C8    D    
C9    C11   D    
C43   C49   S    
C30   C40   A    
C2    C15   S    
C25   C27   A    
C15   C17   A    
O9    V2    S    
O24   H12   S    
O11   V4    S    
O10   V1    S    
C7    C46   S    
C53   N5    T    
C44   C50   S    
