data_mof_unit_9173.cif
_audit_creation_date              2013-03-05T15:41:56-0500
_audit_creation_method            fapswitch 2.2
_symmetry_space_group_name_H-M    P1
_symmetry_Int_Tables_number       1
_space_group_crystal_system       triclinic
_cell_length_a                    25.250549
_cell_length_b                    17.020823
_cell_length_c                    15.698755
_cell_angle_alpha                 90.21007
_cell_angle_beta                  49.192815
_cell_angle_gamma                 90.219715
_cell_volume                      5106.91836818

loop_
_atom_site_label
_atom_site_type_symbol
_atom_site_description
_atom_site_fract_x
_atom_site_fract_y
_atom_site_fract_z
_atom_type_partial_charge
C1    C     C_R   0.357362 0.150043 0.745545 0.004986
C2    C     C_R   0.668020 0.895633 0.193430 -0.117304
C3    C     C_R   0.662856 0.121982 0.206265 -0.017139
C4    C     C_R   0.333164 0.890614 0.804019 -0.089117
C5    C     C_R   0.858887 0.651309 0.742922 0.020202
C6    C     C_R   0.165601 0.386629 0.198383 -0.091079
C7    C     C_R   0.142111 0.650667 0.256083 -0.018406
C8    C     C_R   0.856902 0.350198 0.747703 0.017037
H1    H     H_    0.314574 0.168618 0.751087 0.103810
H2    H     H_    0.719793 0.906224 0.163088 0.127791
H3    H     H_    0.713530 0.129031 0.181810 0.129457
H4    H     H_    0.280834 0.897931 0.835631 0.139090
H5    H     H_    0.818222 0.672106 0.744533 0.127200
H6    H     H_    0.217826 0.390034 0.166902 0.142240
H7    H     H_    0.184088 0.670215 0.252318 0.138576
H8    H     H_    0.814649 0.330095 0.753358 0.120897
N1    N     N_R   0.389620 0.081040 0.705440 -0.038123
N2    N     N_R   0.610380 0.918960 0.294560 -0.049366
N3    N     N_R   0.610380 0.081040 0.294560 -0.042074
N4    N     N_R   0.389620 0.918960 0.705440 -0.045602
N5    N     N_R   0.889620 0.581040 0.705440 -0.034293
N6    N     N_R   0.110380 0.418960 0.294560 -0.042868
N7    N     N_R   0.110380 0.581040 0.294560 -0.037346
N8    N     N_R   0.889620 0.418960 0.705440 -0.036661
C9    C     C_R   0.616204 0.099340 0.591912 -0.048960
C10   C     C_R   0.412306 0.852509 0.406783 0.030740
C11   C     C_R   0.383020 0.093772 0.407875 -0.067491
C12   C     C_R   0.605282 0.875763 0.595204 -0.094197
C13   C     C_R   0.114549 0.603268 0.593660 -0.062656
C14   C     C_R   0.890599 0.383429 0.404909 -0.064031
C15   C     C_R   0.884373 0.599595 0.407407 -0.061260
C16   C     C_R   0.108827 0.380740 0.593898 -0.093536
N9    N     N_R   0.582320 0.079840 0.556630 -0.086706
N10   N     N_R   0.417680 0.920160 0.443370 -0.101341
N11   N     N_R   0.417680 0.079840 0.443370 -0.080560
N12   N     N_R   0.582320 0.920160 0.556630 -0.091992
N13   N     N_R   0.082320 0.579840 0.556630 -0.090212
N14   N     N_R   0.917680 0.420160 0.443370 -0.090482
N15   N     N_R   0.917680 0.579840 0.443370 -0.088777
N16   N     N_R   0.082320 0.420160 0.556630 -0.088609
C17   C     C_R   0.691151 0.096280 0.406963 -0.056467
C18   C     C_R   0.334741 0.854729 0.594289 -0.024778
C19   C     C_R   0.308613 0.095149 0.593090 -0.091375
C20   C     C_R   0.677621 0.868668 0.407575 0.008825
C21   C     C_R   0.190384 0.601736 0.407419 -0.083759
C22   C     C_R   0.814004 0.383962 0.591695 -0.078191
C23   C     C_R   0.809218 0.598636 0.593050 -0.077025
C24   C     C_R   0.180991 0.373266 0.407206 -0.033506
N17   N     N_R   0.627920 0.078930 0.443400 -0.037118
N18   N     N_R   0.372080 0.921070 0.556600 -0.043419
N19   N     N_R   0.372080 0.078930 0.556600 -0.042903
N20   N     N_R   0.627920 0.921070 0.443400 -0.062534
N21   N     N_R   0.127920 0.578930 0.443400 -0.050015
N22   N     N_R   0.872080 0.421070 0.556600 -0.042326
N23   N     N_R   0.872080 0.578930 0.556600 -0.046488
N24   N     N_R   0.127920 0.421070 0.443400 -0.055906
C25   C     C_R   0.576527 0.115722 0.201691 -0.144261
C26   C     C_R   0.420453 0.891071 0.804349 -0.136908
C27   C     C_R   0.443872 0.146475 0.749852 -0.148688
C28   C     C_R   0.582209 0.899675 0.190323 -0.056421
C29   C     C_R   0.055808 0.646747 0.251531 -0.139660
C30   C     C_R   0.942279 0.355270 0.753838 -0.131566
C31   C     C_R   0.944267 0.646675 0.749201 -0.146392
C32   C     C_R   0.078742 0.388501 0.197181 -0.136278
H9    H     H_    0.550039 0.114756 0.168921 0.100063
H10   H     H_    0.445843 0.894009 0.838443 0.092024
H11   H     H_    0.480355 0.164231 0.760230 0.095944
H12   H     H_    0.558003 0.910884 0.154909 0.096808
H13   H     H_    0.019074 0.664879 0.242157 0.095756
H14   H     H_    0.976600 0.338745 0.768673 0.086452
H15   H     H_    0.980548 0.664470 0.759870 0.096746
H16   H     H_    0.053705 0.390250 0.162572 0.093452
N25   N     N_R   0.555090 0.077730 0.294590 -0.060212
N26   N     N_R   0.444910 0.922270 0.705410 -0.057269
N27   N     N_R   0.444910 0.077730 0.705410 -0.062798
N28   N     N_R   0.555090 0.922270 0.294590 -0.067562
N29   N     N_R   0.055090 0.577730 0.294590 -0.063290
N30   N     N_R   0.944910 0.422270 0.705410 -0.064117
N31   N     N_R   0.944910 0.577730 0.705410 -0.064756
N32   N     N_R   0.055090 0.422270 0.294590 -0.057389
C33   C     C_R   0.390035 0.192765 0.774625 0.110659
C34   C     C_R   0.652184 0.881928 0.126233 0.128886
C35   C     C_R   0.644394 0.141524 0.143708 0.120709
C36   C     C_R   0.350649 0.872211 0.867898 0.126852
C37   C     C_R   0.891286 0.693667 0.772665 0.096756
C38   C     C_R   0.147853 0.367541 0.134983 0.130750
C39   C     C_R   0.109420 0.693310 0.227442 0.105334
C40   C     C_R   0.888574 0.308886 0.779177 0.108647
C41   C     C_R   0.684761 0.111935 0.498648 0.034247
C42   C     C_R   0.361278 0.807931 0.500919 -0.015684
C43   C     C_R   0.314277 0.106381 0.501032 0.110218
C44   C     C_R   0.661908 0.837552 0.502516 0.075747
C45   C     C_R   0.182464 0.619957 0.500631 0.011291
C46   C     C_R   0.827378 0.355695 0.497245 0.001893
C47   C     C_R   0.816235 0.613223 0.500504 0.031703
C48   C     C_R   0.167950 0.345040 0.501310 0.074495
Ni1   Ni    Ni4+2 0.382970 0.000000 0.629840 0.312242
Ni2   Ni    Ni4+2 0.617030 0.000000 0.370160 0.285813
Ni3   Ni    Ni4+2 0.882970 0.500000 0.629840 0.330251
Ni4   Ni    Ni4+2 0.117030 0.500000 0.370160 0.303857
Ni5   Ni    Ni4+2 0.514540 0.000000 0.629840 0.205907
Ni6   Ni    Ni4+2 0.485460 0.000000 0.370160 0.210681
Ni7   Ni    Ni4+2 0.014540 0.500000 0.629840 0.208336
Ni8   Ni    Ni4+2 0.985460 0.500000 0.370160 0.201408
C49   C     C_3   0.293550 0.203523 0.394148 -0.306381
C50   C     C_3   0.672998 0.727589 0.608240 -0.221302
C51   C     C_3   0.694052 0.228587 0.597226 -0.311052
C52   C     C_3   0.342270 0.693157 0.403185 -0.306174
C53   C     C_3   0.798196 0.715993 0.397115 -0.261148
C54   C     C_3   0.182409 0.240358 0.609668 -0.304952
C55   C     C_3   0.209984 0.717203 0.597982 -0.265934
C56   C     C_3   0.824642 0.234201 0.393678 -0.292884
C57   C     C_3   0.769636 0.789882 0.471453 -0.064773
C58   C     C_3   0.195522 0.159938 0.553226 -0.046373
C59   C     C_3   0.259182 0.780047 0.509690 -0.142546
C60   C     C_3   0.792848 0.163973 0.475562 -0.081419
C61   C     C_3   0.280958 0.283769 0.450328 -0.031875
C62   C     C_3   0.701688 0.653027 0.534300 -0.063263
C63   C     C_3   0.725752 0.298067 0.514609 -0.056217
C64   C     C_3   0.292328 0.629859 0.491766 -0.100246
H17   H     H_    0.338550 0.191810 0.304148 0.166008
H18   H     H_    0.621102 0.730300 0.694393 0.163261
H19   H     H_    0.640634 0.229365 0.681011 0.148946
H20   H     H_    0.394666 0.675715 0.324974 0.202934
H21   H     H_    0.849109 0.716009 0.309754 0.160776
H22   H     H_    0.136401 0.250946 0.699485 0.153656
H23   H     H_    0.156155 0.730000 0.677183 0.148653
H24   H     H_    0.878687 0.234800 0.310998 0.150211
C65   C     C_3   0.698857 0.775633 0.504235 0.116053
C66   C     C_3   0.272036 0.163229 0.500826 0.120926
C67   C     C_3   0.319718 0.748262 0.500443 0.114568
C68   C     C_3   0.725298 0.172893 0.496067 0.052599
C69   C     C_3   0.204498 0.280986 0.502880 0.137292
C70   C     C_3   0.772805 0.667413 0.500988 0.098534
C71   C     C_3   0.792872 0.289649 0.494868 0.104461
C72   C     C_3   0.232576 0.662375 0.500608 0.135807
C73   C     C_3   0.215976 0.200699 0.448242 -0.075510
C74   C     C_3   0.745131 0.742135 0.573727 -0.075717
C75   C     C_3   0.762797 0.219406 0.575267 0.002538
C76   C     C_3   0.281218 0.726028 0.413703 -0.058856
C77   C     C_3   0.726011 0.701345 0.431740 -0.088410
C78   C     C_3   0.259812 0.243889 0.555810 -0.080193
C79   C     C_3   0.271085 0.684760 0.587639 -0.018016
C80   C     C_3   0.756128 0.243065 0.414912 -0.027529
H25   H     H_    0.209996 0.883046 0.016889 0.143629
H26   H     H_    0.783050 0.120402 0.995534 0.143337
H27   H     H_    0.793134 0.882584 0.983970 0.139073
H28   H     H_    0.295843 0.290722 0.806065 0.136935
H29   H     H_    0.792044 0.212685 0.817343 0.152720
H30   H     H_    0.204736 0.791565 0.193797 0.171056
H31   H     H_    0.288038 0.383957 0.984595 0.152258
H32   H     H_    0.796468 0.792921 0.806713 0.157078
C81   C     C_2   0.693577 0.165466 0.026066 -0.186535
C82   C     C_2   0.301735 0.850266 0.987332 -0.183458
C83   C     C_2   0.366091 0.268575 0.833498 -0.188902
C84   C     C_2   0.702122 0.862360 0.005661 -0.171755
C85   C     C_2   0.132910 0.769377 0.169524 -0.196075
C86   C     C_2   0.864020 0.234374 0.840656 -0.182090
C87   C     C_2   0.868327 0.770075 0.830484 -0.190965
C88   C     C_2   0.196843 0.344761 0.015807 -0.197025
C89   C     C_2   0.762324 0.152556 0.963363 -0.131965
C90   C     C_2   0.232251 0.855569 0.049447 -0.105457
C91   C     C_2   0.313498 0.306961 0.850787 -0.056893
C92   C     C_2   0.771278 0.860102 0.947979 -0.115961
C93   C     C_2   0.186066 0.807951 0.150772 -0.070737
C94   C     C_2   0.810669 0.196367 0.859965 -0.024953
C95   C     C_2   0.815718 0.809521 0.848916 -0.047939
C96   C     C_2   0.266204 0.353673 0.952764 -0.101601
H33   H     H_    0.322972 0.822321 0.021535 0.151661
H34   H     H_    0.673697 0.197407 0.992224 0.143961
H35   H     H_    0.681155 0.839315 0.968255 0.154069
H36   H     H_    0.382837 0.285237 0.879652 0.141834
H37   H     H_    0.881063 0.218664 0.886520 0.133516
H38   H     H_    0.115124 0.786201 0.125088 0.143806
H39   H     H_    0.176039 0.314342 0.982142 0.141126
H40   H     H_    0.886750 0.787187 0.874039 0.143240
C97   C     C_2   0.590035 0.081169 0.705603 0.483806
H41   H     H_    0.535344 0.067028 0.772718 -0.014557
O1    O     O_2   0.629761 0.078568 0.724677 -0.548798
C98   C     C_2   0.439457 0.841582 0.291529 0.472191
H42   H     H_    0.433022 0.887922 0.251774 0.047043
O2    O     O_2   0.473077 0.783251 0.237376 -0.592429
C99   C     C_2   0.405947 0.059457 0.301889 0.526626
H43   H     H_    0.458923 0.038314 0.239043 -0.042804
O3    O     O_2   0.364867 0.049382 0.286485 -0.551934
C100  C     C_2   0.591353 0.893755 0.700471 0.570504
H44   H     H_    0.547148 0.929196 0.764471 -0.025115
O4    O     O_2   0.632700 0.876286 0.712893 -0.576999
C101  C     C_2   0.087835 0.584274 0.707664 0.509935
H45   H     H_    0.033768 0.566686 0.772597 -0.010562
O5    O     O_2   0.126258 0.583177 0.729269 -0.555538
C102  C     C_2   0.910912 0.399307 0.294483 0.580412
H46   H     H_    0.956388 0.434141 0.233093 -0.033055
O6    O     O_2   0.873943 0.379509 0.273669 -0.551944
C103  C     C_2   0.910615 0.580716 0.293680 0.454718
H47   H     H_    0.965886 0.571004 0.225045 0.002368
O7    O     O_2   0.870374 0.571014 0.276431 -0.551236
C104  C     C_2   0.092591 0.400134 0.700632 0.538690
H48   H     H_    0.042066 0.424421 0.770395 -0.017702
O8    O     O_2   0.137116 0.395304 0.709252 -0.531250
C105  C     C_2   0.757617 0.074091 0.296093 0.536813
H49   H     H_    0.806926 0.091677 0.272776 -0.026420
O9    O     O_2   0.758231 0.033562 0.231306 -0.600694
C106  C     C_2   0.263779 0.848859 0.704631 0.442892
H50   H     H_    0.245295 0.795115 0.752324 -0.014256
O10   O     O_2   0.224461 0.905088 0.743538 -0.543216
C107  C     C_2   0.242581 0.086769 0.710312 0.573822
H51   H     H_    0.193745 0.106247 0.733922 0.012476
O11   O     O_2   0.241809 0.057235 0.781792 -0.571764
C108  C     C_2   0.741227 0.854133 0.290767 0.527056
H52   H     H_    0.739710 0.813657 0.239035 -0.018329
O12   O     O_2   0.796791 0.883813 0.253186 -0.555564
C109  C     C_2   0.257885 0.585685 0.294289 0.601730
H53   H     H_    0.306205 0.589758 0.279496 -0.007596
O13   O     O_2   0.260553 0.567097 0.216497 -0.560539
C110  C     C_2   0.743466 0.388778 0.704217 0.476975
H54   H     H_    0.698951 0.364280 0.717270 -0.015808
O14   O     O_2   0.733728 0.419879 0.783368 -0.528691
C111  C     C_2   0.742239 0.592747 0.710177 0.496179
H55   H     H_    0.693803 0.608777 0.730116 0.066021
O15   O     O_2   0.740071 0.571131 0.786278 -0.533352
C112  C     C_2   0.246354 0.361193 0.290868 0.570476
H56   H     H_    0.268899 0.303087 0.262055 -0.054608
O16   O     O_2   0.279125 0.416731 0.228434 -0.536555
C113  C     C_2   0.808602 0.866067 0.438156 0.704101
H57   H     H_    0.861914 0.866386 0.405738 0.012235
O17   O     O_2   0.780520 0.927777 0.448582 -0.581374
C114  C     C_2   0.145550 0.092402 0.610854 0.536172
H58   H     H_    0.092395 0.099314 0.643827 0.044608
O18   O     O_2   0.163999 0.029799 0.621219 -0.580103
C115  C     C_2   0.236891 0.863730 0.522276 0.647038
H59   H     H_    0.185109 0.881352 0.597163 0.075990
O19   O     O_2   0.276393 0.911763 0.448992 -0.544110
C116  C     C_2   0.830952 0.088157 0.448141 0.686108
H60   H     H_    0.856347 0.060189 0.367568 -0.016700
O20   O     O_2   0.833927 0.057650 0.515127 -0.502656
C117  C     C_2   0.333967 0.348394 0.388719 0.569578
H61   H     H_    0.384480 0.341478 0.366104 0.048280
O21   O     O_2   0.321579 0.408021 0.361974 -0.596672
C118  C     C_2   0.661476 0.577781 0.570665 0.582402
H62   H     H_    0.647868 0.553820 0.523081 0.097693
O22   O     O_2   0.642361 0.544009 0.655055 -0.624996
C119  C     C_2   0.689669 0.373664 0.533591 0.594504
H63   H     H_    0.638854 0.386036 0.614586 0.020313
O23   O     O_2   0.717841 0.421750 0.457850 -0.533161
C120  C     C_2   0.310730 0.545520 0.484370 0.659284
H64   H     H_    0.363283 0.525484 0.414966 0.022899
O24   O     O_2   0.267412 0.499639 0.557879 -0.502349
C121  C     C_2   0.190651 0.175423 0.388701 0.480135
H65   H     H_    0.227424 0.152629 0.303565 0.051226
O25   O     O_2   0.128635 0.179601 0.436090 -0.572566
C122  C     C_2   0.755791 0.769522 0.652561 0.508278
H66   H     H_    0.711685 0.772859 0.742234 0.043706
O26   O     O_2   0.814209 0.787054 0.616244 -0.604248
C123  C     C_2   0.769587 0.204632 0.661367 0.569668
H67   H     H_    0.723403 0.201892 0.749923 -0.008209
O27   O     O_2   0.827567 0.195950 0.631440 -0.570187
C124  C     C_2   0.288724 0.754805 0.316127 0.497768
H68   H     H_    0.338694 0.750077 0.231286 0.029142
O28   O     O_2   0.238812 0.783588 0.331742 -0.590734
C125  C     C_2   0.714873 0.676220 0.352948 0.469795
H69   H     H_    0.759384 0.660905 0.266658 0.071121
O29   O     O_2   0.655816 0.671889 0.385855 -0.569464
C126  C     C_2   0.282363 0.272311 0.618465 0.501054
H70   H     H_    0.243362 0.286586 0.707209 0.032433
O30   O     O_2   0.344389 0.278747 0.570377 -0.591567
C127  C     C_2   0.267040 0.655885 0.681740 0.544964
H71   H     H_    0.216512 0.647885 0.765050 0.058101
O31   O     O_2   0.320376 0.639608 0.664432 -0.563652
C128  C     C_2   0.753946 0.259764 0.323455 0.593400
H72   H     H_    0.801805 0.258367 0.236075 0.011677
O32   O     O_2   0.698398 0.273785 0.346781 -0.569311

loop_
_geom_bond_atom_site_label_1
_geom_bond_atom_site_label_2
_geom_bond_distance
_ccdc_geom_bond_type
C68   C80   1.537359 S    
C50   C65   1.540525 S    
C17   C41   1.364809 A    
C123  O27   1.219875 D    
N19   Ni1   1.905221 S    
C57   C113  1.498607 S    
C8    N8    1.332061 A    
N2    Ni2   1.893700 S    
C73   C121  1.497977 S    
C2    N2    1.332727 A    
N8    Ni3   1.900963 S    
C58   C66   1.527994 S    
C105  H49   1.084461 S    
C52   C64   1.547035 S    
C18   C106  1.471162 S    
C60   C68   1.523142 S    
C64   C120  1.491143 S    
C51   H19   1.109386 S    
C69   C73   1.535155 S    
C72   C76   1.534330 S    
C45   C72   1.454220 S    
C61   C69   1.525818 S    
H32   C95   1.083294 S    
C114  O18   1.217808 D    
N7    N29   1.396717 A    
C106  O10   1.218655 D    
N15   Ni8   1.879424 S    
C43   C66   1.444418 S    
C59   C67   1.538182 S    
C109  H53   1.084665 S    
C71   C75   1.533145 S    
C14   N14   1.325367 A    
C121  H65   1.084397 S    
N10   Ni6   1.876023 S    
C41   C68   1.436600 S    
C76   C124  1.499232 S    
N32   Ni8   1.878607 S    
N9    Ni5   1.876023 S    
C122  O26   1.220108 D    
C110  O14   1.217171 D    
C74   C122  1.500522 S    
H27   C92   1.083777 S    
C99   O3    1.220665 D    
C125  H69   1.084397 S    
N5    Ni3   1.893700 S    
C87   C95   1.342460 D    
C7    N7    1.332922 A    
C55   C72   1.544973 S    
C50   C74   1.542745 S    
C56   C60   1.543004 S    
C65   C77   1.529814 S    
H25   C90   1.083957 S    
C1    C33   1.379507 A    
H31   C96   1.084158 S    
C6    N6    1.332242 A    
C9    C97   1.476088 S    
C63   C71   1.517901 S    
C107  O11   1.219735 D    
C30   H14   1.072643 S    
C101  O5    1.219408 D    
C58   C73   1.535395 S    
C25   N25   1.345547 A    
C54   C78   1.542094 S    
C33   C83   1.466836 S    
C52   C67   1.546740 S    
C16   C104  1.477760 S    
C29   C39   1.388730 A    
C27   H11   1.077111 S    
N17   Ni2   1.897772 S    
C32   N32   1.352035 A    
C28   C34   1.379781 A    
C83   H36   1.087295 S    
C10   N10   1.330417 A    
N15   N23   1.345617 A    
N4    Ni1   1.900963 S    
C56   H24   1.109946 S    
C29   N29   1.351629 A    
C126  H70   1.084399 S    
N16   N24   1.345618 A    
C22   C46   1.373194 A    
C81   H34   1.087473 S    
N14   Ni8   1.876023 S    
C25   C35   1.384353 A    
C3    N3    1.327448 A    
C104  H48   1.082785 S    
C40   C86   1.464660 S    
C4    H4    1.073072 S    
C38   C88   1.467757 S    
C54   C58   1.542564 S    
C5    H5    1.071937 S    
C89   C94   1.446757 S    
C62   C70   1.525846 S    
C55   C79   1.545994 S    
C85   H38   1.087325 S    
C26   H10   1.071466 S    
C60   C75   1.535674 S    
C34   C84   1.470636 S    
C20   N20   1.330114 A    
C7    H7    1.073913 S    
N7    Ni4   1.900963 S    
C53   C70   1.547002 S    
N11   Ni6   1.879424 S    
C61   C117  1.497138 S    
N14   N22   1.345569 A    
C8    H8    1.066257 S    
C10   C98   1.468190 S    
C117  H61   1.084306 S    
C31   C37   1.388185 A    
C17   C105  1.473364 S    
C63   C80   1.529723 S    
C105  O9    1.218557 D    
N23   Ni3   1.905221 S    
C49   C61   1.540278 S    
C101  H45   1.082919 S    
C64   C79   1.537723 S    
C116  O20   1.220113 D    
C52   H20   1.105997 S    
C66   C78   1.539974 S    
C32   C38   1.378819 A    
C114  H58   1.084400 S    
C13   C45   1.371240 A    
N3    Ni2   1.900963 S    
C98   O2    1.219076 D    
C46   C71   1.434888 S    
N31   Ni7   1.878607 S    
C8    C40   1.378935 A    
C20   C108  1.467523 S    
C109  O13   1.218970 D    
N21   Ni4   1.897772 S    
N28   Ni6   1.878607 S    
H26   C89   1.085422 S    
C120  O24   1.219931 D    
C121  O25   1.220037 D    
N6    Ni4   1.893700 S    
C19   C107  1.475331 S    
C107  H51   1.082932 S    
N3    N25   1.396717 A    
C1    H1    1.074419 S    
C110  H54   1.084127 S    
C115  O19   1.219698 D    
C48   C69   1.441708 S    
C85   C93   1.340702 D    
C111  H55   1.081569 S    
C125  O29   1.220073 D    
C80   C128  1.500577 S    
C31   N31   1.352636 A    
C83   C91   1.341048 D    
H30   C93   1.083885 S    
C30   C40   1.381848 A    
C28   N28   1.352223 A    
C47   C70   1.431868 S    
C19   C43   1.370125 A    
C124  H68   1.084417 S    
C39   C85   1.467210 S    
C82   H33   1.087314 S    
C81   C89   1.341088 D    
N12   Ni5   1.879424 S    
C18   C42   1.394195 A    
C5    N5    1.335702 A    
C63   C119  1.491931 S    
C75   C123  1.491761 S    
N13   N21   1.345570 A    
C44   C65   1.422166 S    
C99   H43   1.080920 S    
C24   C112  1.470329 S    
C22   C110  1.478937 S    
C12   C100  1.478474 S    
C111  O15   1.217869 D    
C90   C93   1.457661 S    
C11   N11   1.331394 A    
C86   H37   1.087359 S    
C52   C76   1.545969 S    
C4    C36   1.371421 A    
C9    N9    1.328480 A    
N5    N31   1.397145 A    
C58   C114  1.495503 S    
C118  O22   1.219100 D    
C113  H57   1.084293 S    
N11   N19   1.345617 A    
N4    N26   1.396713 A    
C78   C126  1.500742 S    
C36   C82   1.468093 S    
C6    C38   1.369869 A    
C106  H50   1.077154 S    
C11   C43   1.371297 A    
C77   C125  1.497290 S    
C28   H12   1.079302 S    
C31   H15   1.075698 S    
C57   C65   1.520921 S    
C103  O7    1.221079 D    
C54   H22   1.108596 S    
N26   Ni5   1.875234 S    
C42   C67   1.461085 S    
C53   H21   1.108679 S    
N25   Ni6   1.875234 S    
C16   C48   1.369289 A    
C22   N22   1.338793 A    
C18   N18   1.334794 A    
C21   C45   1.375537 A    
C108  H52   1.082611 S    
C108  O12   1.219265 D    
C87   H40   1.087199 S    
C117  O21   1.217130 D    
C3    C35   1.376366 A    
C13   N13   1.331670 A    
C88   H39   1.087249 S    
C128  O32   1.220237 D    
N22   Ni3   1.897774 S    
C2    C34   1.369655 A    
C116  H60   1.084240 S    
N24   Ni4   1.905219 S    
C56   C71   1.544979 S    
C100  O4    1.218749 D    
C123  H67   1.084388 S    
C2    H2    1.073933 S    
C27   N27   1.351643 A    
C124  O28   1.220041 D    
N8    N30   1.396713 A    
C16   N16   1.326137 A    
C67   C79   1.534156 S    
C98   H42   1.084051 S    
C26   N26   1.351187 A    
C23   N23   1.332292 A    
C62   C118  1.494980 S    
C24   N24   1.338085 A    
C120  H64   1.084127 S    
C112  O16   1.216443 D    
N18   Ni1   1.897774 S    
N2    N28   1.397149 A    
C24   C48   1.374726 A    
N30   Ni7   1.875234 S    
C57   C74   1.525926 S    
H28   C91   1.083871 S    
C59   C115  1.497798 S    
C30   N30   1.350063 A    
C92   C95   1.461372 S    
N13   Ni7   1.876023 S    
H29   C94   1.076896 S    
C27   C33   1.391047 A    
C25   H9    1.077907 S    
C51   C68   1.549248 S    
N29   Ni8   1.875234 S    
N12   N20   1.345618 A    
C82   C90   1.342289 D    
C70   C74   1.537217 S    
N10   N18   1.345569 A    
C53   C77   1.543512 S    
C127  H71   1.084370 S    
C49   C66   1.544871 S    
C35   C81   1.457061 S    
C4    N4    1.332912 A    
C53   C57   1.536178 S    
C13   C101  1.478957 S    
C10   C42   1.389892 A    
C17   N17   1.329490 A    
C37   C87   1.469930 S    
C50   H18   1.109978 S    
C84   H35   1.087215 S    
C9    C41   1.368599 A    
C51   C63   1.539009 S    
C49   H17   1.108359 S    
C29   H13   1.076181 S    
C102  H46   1.073057 S    
C56   C80   1.541017 S    
C104  O8    1.220136 D    
C61   C78   1.528968 S    
C5    C37   1.378178 A    
C6    H6    1.065071 S    
C14   C46   1.359121 A    
N16   Ni7   1.879424 S    
C15   C103  1.476844 S    
C127  O31   1.220002 D    
C20   C44   1.375004 A    
C23   C111  1.478796 S    
C19   N19   1.332277 A    
C15   N15   1.327878 A    
C15   C47   1.365283 A    
C21   N21   1.337885 A    
C62   C77   1.535993 S    
N20   Ni2   1.905219 S    
C118  H62   1.083793 S    
C113  O17   1.218854 D    
C97   O1    1.221002 D    
C91   C96   1.456132 S    
C79   C127  1.497327 S    
C88   C96   1.342922 D    
C51   C75   1.541415 S    
C26   C36   1.380125 A    
C21   C109  1.475620 S    
C11   C99   1.476894 S    
C84   C92   1.343229 D    
N6    N32   1.397149 A    
C3    H3    1.075228 S    
C49   C73   1.544573 S    
C103  H47   1.082166 S    
C12   C44   1.365869 A    
C86   C94   1.336482 D    
C14   C102  1.477005 S    
C7    C39   1.379289 A    
C1    N1    1.330759 A    
C12   N12   1.318923 A    
C126  O30   1.220136 D    
C97   H41   1.082908 S    
N9    N17   1.345570 A    
C60   C116  1.496799 S    
C115  H59   1.083046 S    
N27   Ni5   1.878607 S    
C23   C47   1.367358 A    
C128  H72   1.084415 S    
C54   C69   1.543742 S    
C55   C59   1.535819 S    
C119  O23   1.219381 D    
C64   C72   1.527772 S    
C100  H44   1.074324 S    
C59   C76   1.524315 S    
N1    Ni1   1.893700 S    
C112  H56   1.082272 S    
C50   C62   1.542716 S    
C119  H63   1.084055 S    
C32   H16   1.070027 S    
N1    N27   1.397145 A    
C122  H66   1.084456 S    
C55   H23   1.110068 S    
C102  O6    1.219489 D    
