data_mof_unit_10425.cif
_audit_creation_date              2012-12-11T14:45:53-0500
_audit_creation_method            fapswitch 2.2
_symmetry_space_group_name_H-M    P1
_symmetry_Int_Tables_number       1
_space_group_crystal_system       triclinic
_cell_length_a                    10.9641
_cell_length_b                    10.943805
_cell_length_c                    18.856049
_cell_angle_alpha                 89.887715
_cell_angle_beta                  90.159727
_cell_angle_gamma                 119.868654
_cell_volume                      1961.97813546

loop_
_atom_site_label
_atom_site_type_symbol
_atom_type_description
_atom_site_fract_x
_atom_site_fract_y
_atom_site_fract_z
_atom_type_partial_charge
C1    C     C_R   0.867994 0.634985 0.605078 0.527514
C2    C     C_R   0.453739 0.632704 0.769640 0.207897
C3    C     C_R   0.418494 0.621770 0.698052 -0.132732
C4    C     C_R   0.332771 0.673330 0.673500 -0.010060
C5    C     C_R   0.830832 0.152313 0.818909 -0.015623
C6    C     C_R   0.082643 0.235474 0.823932 -0.105928
C7    C     C_R   0.208015 0.269435 0.790395 -0.127867
C8    C     C_R   0.208693 0.240291 0.718758 0.017209
C9    C     C_R   0.084420 0.180455 0.679228 0.286701
C10   C     C_R   0.959109 0.166275 0.710179 -0.025678
C11   C     C_R   0.956628 0.181714 0.784951 -0.036626
C12   C     C_R   0.270487 0.632126 0.603716 0.537826
C13   C     C_R   0.711644 0.102376 0.703865 -0.050294
C14   C     C_R   0.713610 0.132082 0.776305 -0.030429
C15   C     C_R   0.585439 0.052102 0.664899 -0.097544
C16   C     C_R   0.472746 0.061146 0.692251 0.281177
C17   C     C_R   0.478218 0.106458 0.761755 0.242680
C18   C     C_R   0.599316 0.145082 0.802635 -0.128540
C19   C     C_R   0.839604 0.143394 0.669315 -0.053747
C20   C     C_R   0.790760 0.526173 0.722908 -0.143872
C21   C     C_R   0.780801 0.539814 0.795730 -0.129772
C22   C     C_R   0.810282 0.669999 0.822846 0.081982
C23   C     C_R   0.860824 0.221072 0.601244 0.519284
C24   C     C_R   0.847263 0.785260 0.777382 -0.084025
C25   C     C_R   0.858657 0.772133 0.705316 -0.115387
C26   C     C_R   0.831612 0.643304 0.677847 0.019968
C27   C     C_R   0.399133 0.621020 0.294484 -0.176230
C28   C     C_R   0.421049 0.630206 0.222500 -0.152346
C29   C     C_R   0.361864 0.691248 0.178556 0.027046
C30   C     C_R   0.285555 0.749527 0.207487 0.283986
C31   C     C_R   0.277186 0.754937 0.281175 0.247561
C32   C     C_R   0.324322 0.679620 0.324555 -0.022101
C33   C     C_R   0.718581 0.113319 0.294573 -0.091937
C34   C     C_R   0.865236 0.637431 0.397124 0.604382
C35   C     C_R   0.705147 0.102501 0.222446 0.193981
C36   C     C_R   0.824915 0.138771 0.179077 0.033435
C37   C     C_R   0.958606 0.196088 0.210554 0.183351
C38   C     C_R   0.971141 0.218847 0.283301 -0.047336
C39   C     C_R   0.850558 0.177328 0.325028 -0.006135
C40   C     C_R   0.868114 0.783049 0.296686 0.202364
C41   C     C_R   0.860446 0.795639 0.224390 -0.108100
C42   C     C_R   0.803648 0.676173 0.180734 -0.020587
C43   C     C_R   0.741623 0.541168 0.209654 0.192544
C44   C     C_R   0.744654 0.526456 0.283503 0.199905
C45   C     C_R   0.270414 0.635222 0.396127 0.546585
C46   C     C_R   0.818905 0.649449 0.326212 0.031513
C47   C     C_R   0.804854 0.102367 0.894038 0.522373
C48   C     C_R   0.454876 0.722640 0.889343 0.585263
C49   C     C_R   0.797300 0.691941 0.897267 0.554624
C50   C     C_R   0.802933 0.100696 0.104372 0.595764
C51   C     C_R   0.398147 0.704689 0.104299 0.598062
C52   C     C_R   0.795459 0.698455 0.106008 0.598991
C53   C     C_R   0.863473 0.230229 0.396040 0.573767
C54   C     C_R   0.284379 0.738900 0.720344 -0.128888
C55   C     C_R   0.329232 0.761331 0.790306 -0.166172
C56   C     C_R   0.414194 0.708480 0.815170 0.058394
Cr1   Cr    Cr6+3 0.791660 0.390250 0.499930 1.093359
Cr2   Cr    Cr6+3 0.098520 0.708290 0.500540 1.167080
Cr3   Cr    Cr6+3 0.109770 0.401430 0.499480 1.105052
Cr4   Cr    Cr6+3 0.874790 0.925890 0.000070 1.099797
Cr5   Cr    Cr6+3 0.574120 0.948670 0.999300 1.114764
Cr6   Cr    Cr6+3 0.551420 0.625320 0.000920 1.110442
H1    H     H_    0.208020 0.768327 0.703626 0.201406
H2    H     H_    0.578585 0.016150 0.610739 0.157854
H3    H     H_    0.772551 0.426149 0.702200 0.149163
H4    H     H_    0.751515 0.450791 0.830553 0.116363
H5    H     H_    0.867152 0.885894 0.797894 0.137551
H6    H     H_    0.890621 0.862469 0.671243 0.132553
H7    H     H_    0.438329 0.565513 0.326502 0.169296
H8    H     H_    0.483689 0.587593 0.201018 0.176289
H9    H     H_    0.291727 0.813373 0.825624 0.174125
H10   H     H_    0.625877 0.083844 0.326605 0.194528
H11   H     H_    0.075258 0.272608 0.306766 0.200126
H12   H     H_    0.899815 0.899906 0.202082 0.194644
H13   H     H_    0.450376 0.565047 0.662508 0.124400
H14   H     H_    0.304300 0.314223 0.820894 0.178207
H15   H     H_    0.306060 0.260427 0.694202 0.194995
H16   H     H_    0.086536 0.258892 0.879909 0.156779
H17   H     H_    0.605297 0.193920 0.853148 0.145249
O1    O     O_R   0.766500 0.250040 0.579790 -0.515875
O2    O     O_R   0.218690 0.701900 0.425960 -0.451783
O3    O     O_R   0.249490 0.516440 0.419420 -0.515382
O4    O     O_R   0.982880 0.281910 0.424890 -0.487467
O5    O     O_3   0.999980 0.499990 0.499980 -0.299409
O6    O     O_R   0.895110 0.806860 0.920430 -0.514189
O7    O     O_R   0.872260 0.046970 0.925000 -0.503751
O8    O     O_R   0.691430 0.085060 0.918550 -0.531288
O9    O     O_R   0.451490 0.822460 0.925250 -0.517107
O10   O     O_R   0.413330 0.603360 0.920440 -0.467825
O11   O     O_R   0.676110 0.626250 0.926750 -0.470777
O12   O     O_R   0.798570 0.516780 0.574780 -0.513243
O13   O     O_R   0.895350 0.809870 0.080950 -0.465665
O14   O     O_R   0.872490 0.049760 0.073800 -0.474150
O15   O     O_R   0.691680 0.088070 0.079070 -0.426362
O16   O     O_R   0.451720 0.825250 0.074050 -0.433673
O17   O     O_R   0.413580 0.606370 0.080960 -0.492483
O18   O     O_R   0.676340 0.629040 0.075550 -0.474247
O19   O     O_3   0.666780 0.833290 0.000090 -0.330862
O20   O     O_R   0.984000 0.732950 0.581090 -0.471734
O21   O     O_R   0.218600 0.700890 0.574760 -0.474010
O22   O     O_R   0.249390 0.515350 0.579940 -0.508133
O23   O     O_R   0.982790 0.280900 0.573700 -0.465492
O24   O     O_R   0.766600 0.251130 0.419260 -0.476156
O25   O     O_R   0.798660 0.517790 0.425980 -0.456830
O26   O     O_R   0.984100 0.734040 0.420570 -0.412507
Cl1   Cl    Cl    0.330401 0.026388 0.636318 -0.545127
O27   O     O_3   0.363133 0.108665 0.789287 -0.695752
H18   H     H_    0.380686 0.135529 0.840041 0.317335
Cl2   Cl    Cl    0.200481 0.814832 0.151810 -0.429358
Cl3   Cl    Cl    0.216966 0.865079 0.315847 -0.406649
Cl4   Cl    Cl    0.534799 0.054486 0.192511 -0.452120
Cl5   Cl    Cl    0.113297 0.251537 0.160792 -0.503032
Cl6   Cl    Cl    0.941387 0.937039 0.348644 -0.545989
Cl7   Cl    Cl    0.673485 0.393371 0.152663 -0.494285
O28   O     O_3   0.683202 0.394655 0.314667 -0.643716
H19   H     H_    0.612030 0.323653 0.282465 0.394969
O29   O     O_3   0.519574 0.563785 0.796855 -0.708189
H20   H     H_    0.524190 0.502499 0.759546 0.317552
O30   O     O_3   0.088586 0.129745 0.612812 -0.619235
H21   H     H_    0.991330 0.061564 0.597748 0.321803

loop_
_geom_bond_atom_site_label_1
_geom_bond_atom_site_label_2
_ccdc_geom_bond_type
C8    C9    A    
C55   C56   A    
Cr6   O17   S    
C21   H4    S    
C41   C42   A    
C14   C18   A    
C35   C36   A    
Cr3   O3    S    
C49   O11   A    
C1    O20   A    
C35   Cl4   S    
C7    C8    A    
C39   C53   S    
C40   C46   A    
C5    C47   S    
C29   C30   A    
C28   C29   A    
Cr3   O4    S    
C5    C11   A    
Cr4   O19   S    
C17   O27   S    
C43   Cl7   S    
C38   C39   A    
C6    H16   S    
C23   O23   A    
C54   H1    S    
C15   C16   A    
Cr6   O10   S    
C52   O18   A    
C32   C45   S    
C37   Cl5   S    
Cr5   O8    S    
C24   H5    S    
C41   H12   S    
Cr6   O19   S    
C45   O3    A    
C44   O28   S    
C18   H17   S    
O27   H18   S    
C48   O9    A    
C34   C46   S    
C23   O1    A    
C4    C12   S    
C3    H13   S    
C9    C10   A    
C33   H10   S    
C16   Cl1   S    
C51   O17   A    
Cr4   O14   S    
C1    O12   A    
C21   C22   A    
Cr3   O23   S    
Cr1   O1    S    
C25   H6    S    
C2    O29   S    
C44   C46   A    
Cr4   O13   S    
Cr1   O24   S    
C45   O2    A    
C1    C26   S    
C13   C19   A    
C30   Cl2   S    
Cr3   O22   S    
C47   O7    A    
C49   O6    A    
C20   H3    S    
Cr2   O21   S    
Cr3   O5    S    
Cr2   O2    S    
C6    C11   A    
Cr4   O7    S    
Cr5   O15   S    
C50   O15   A    
C25   C26   A    
C34   O25   A    
C47   O8    A    
C19   C23   S    
C43   C44   A    
C37   C38   A    
Cr5   O9    S    
Cr2   O5    S    
Cr6   O18   S    
C40   Cl6   S    
C10   C19   A    
C15   H2    S    
C17   C18   A    
Cr1   O5    S    
C33   C39   A    
C24   C25   A    
C5    C14   A    
C7    H14   S    
C22   C49   S    
C40   C41   A    
C48   O10   A    
C13   C15   A    
C8    H15   S    
C9    O30   S    
C22   C24   A    
C52   O13   A    
C42   C43   A    
C3    C4    A    
C36   C50   S    
C29   C51   S    
C54   C55   A    
C48   C56   S    
Cr1   O25   S    
C30   C31   A    
C36   C37   A    
Cr1   O12   S    
C4    C54   A    
C27   C32   A    
C34   O26   A    
C31   C32   A    
C28   H8    S    
Cr2   O20   S    
C27   H7    S    
O30   H21   S    
Cr5   O16   S    
C50   O14   A    
C6    C7    A    
C53   O4    A    
Cr2   O26   S    
C2    C3    A    
C12   O22   A    
C2    C56   A    
O29   H20   S    
Cr5   O19   S    
C16   C17   A    
C20   C26   A    
C53   O24   A    
Cr6   O11   S    
C33   C35   A    
C31   Cl3   S    
C12   O21   A    
C10   C11   A    
C20   C21   A    
C51   O16   A    
C27   C28   A    
Cr4   O6    S    
C13   C14   A    
C55   H9    S    
O28   H19   S    
C42   C52   S    
C38   H11   S    
