data_mof_unit_56734.cif
_audit_creation_date              2012-12-10T18:07:34-0500
_audit_creation_method            fapswitch 2.2
_symmetry_space_group_name_H-M    P1
_symmetry_Int_Tables_number       1
_space_group_crystal_system       triclinic
_cell_length_a                    11.542986
_cell_length_b                    12.643378
_cell_length_c                    13.146372
_cell_angle_alpha                 83.491684
_cell_angle_beta                  90.750867
_cell_angle_gamma                 102.178366
_cell_volume                      1863.23328966

loop_
_atom_site_label
_atom_site_type_symbol
_atom_type_description
_atom_site_fract_x
_atom_site_fract_y
_atom_site_fract_z
_atom_type_partial_charge
C1    C     C_R   0.495945 0.439996 0.690876 0.867080
C2    C     C_R   0.679374 0.651540 0.901295 -0.256931
C3    C     C_R   0.644799 0.572570 0.835042 -0.188401
C4    C     C_R   0.717796 0.500708 0.500267 0.888014
C5    C     C_R   0.514798 0.514200 0.134469 -0.251393
C6    C     C_R   0.614857 0.695433 0.166499 -0.199746
C7    C     C_R   0.509317 0.402022 0.799021 -0.173998
C8    C     C_R   0.323211 0.082424 0.355673 0.070627
C9    C     C_R   0.643935 0.802247 0.625589 -0.007193
C10   C     C_R   0.674762 0.907341 0.654571 0.190206
C11   C     C_R   0.616763 0.986722 0.608661 -0.282939
C12   C     C_R   0.543849 0.593620 0.200863 -0.057721
C13   C     C_R   0.531538 0.962189 0.531984 0.021662
C14   C     C_R   0.503953 0.853624 0.506515 0.213934
C15   C     C_R   0.472981 0.040707 0.479598 -0.034631
C16   C     C_R   0.515061 0.559999 0.308744 0.857920
C17   C     C_R   0.385075 0.007615 0.406186 0.099450
C18   C     C_R   0.360052 0.899780 0.383749 -0.248762
C19   C     C_R   0.420473 0.825318 0.431312 -0.203374
C20   C     C_R   0.498185 0.151058 0.496900 -0.127680
C21   C     C_R   0.353201 0.191576 0.376133 0.285403
C22   C     C_R   0.282211 0.499222 0.500102 0.902074
C23   C     C_R   0.461349 0.292936 0.835488 -0.215112
C24   C     C_1   0.838721 0.501811 0.500741 -0.189551
C25   C     C_1   0.940811 0.500905 0.500740 0.000424
C26   C     C_1   0.059209 0.499002 0.500454 -0.001647
C27   C     C_1   0.161294 0.498123 0.500211 -0.205403
C28   C     C_R   0.658956 0.715555 0.066196 -0.200537
C29   C     C_3   0.257512 0.051605 0.182950 -0.799487
C30   C     C_3   0.877574 0.915837 0.711099 -0.814956
C31   C     C_3   0.433029 0.062493 0.911579 -0.795890
C32   C     C_3   0.179297 0.273156 0.341626 -0.741049
C33   C     C_R   0.463313 0.256982 0.940217 0.287460
C34   C     C_R   0.495784 0.335227 0.008582 -0.290839
C35   C     C_R   0.540689 0.445930 0.972426 0.060996
C36   C     C_R   0.565110 0.474044 0.867594 0.090675
C37   C     C_R   0.564345 0.529613 0.036934 0.097238
C38   C     C_R   0.634424 0.633064 0.001132 0.174537
H1    H     H_    0.639202 0.757669 0.217696 0.162807
H2    H     H_    0.423670 0.236482 0.781996 0.171897
H3    H     H_    0.491008 0.307299 0.089537 0.126641
H4    H     H_    0.683613 0.587040 0.759281 0.155105
H5    H     H_    0.149085 0.067781 0.303879 0.239983
H6    H     H_    0.282169 0.137727 0.148959 0.239951
H7    H     H_    0.179746 0.010049 0.141490 0.249052
H8    H     H_    0.331665 0.009986 0.173455 0.247285
H9    H     H_    0.762234 0.005638 0.760399 0.227777
H10   H     H_    0.936696 0.937937 0.776119 0.242023
H11   H     H_    0.915023 0.968066 0.640536 0.249628
H12   H     H_    0.294473 0.871892 0.327690 0.188602
H13   H     H_    0.875097 0.829201 0.702096 0.239609
H14   H     H_    0.462131 0.126269 0.051073 0.220586
H15   H     H_    0.414399 0.980559 0.956119 0.241921
H16   H     H_    0.522124 0.076481 0.875128 0.239033
H17   H     H_    0.363639 0.062810 0.852385 0.245507
H18   H     H_    0.322203 0.284626 0.242609 0.198864
H19   H     H_    0.120621 0.236646 0.281589 0.208153
H20   H     H_    0.168797 0.358511 0.339427 0.246819
H21   H     H_    0.150583 0.229246 0.418251 0.236546
H22   H     H_    0.563580 0.183416 0.550638 0.151532
H23   H     H_    0.687433 0.739895 0.659545 0.133862
H24   H     H_    0.640759 0.066506 0.633902 0.135344
H25   H     H_    0.400199 0.745827 0.407039 0.211346
H26   H     H_    0.738359 0.727738 0.873719 0.171070
H27   H     H_    0.713737 0.794454 0.040134 0.142569
H28   H     H_    0.453000 0.439682 0.160330 0.150587
N1    N     N_R   0.440320 0.222190 0.444690 -0.126164
N2    N     N_R   0.559060 0.776980 0.554780 -0.149586
N3    N     N_2   0.227459 0.045406 0.290020 -0.315604
N4    N     N_2   0.760315 0.932375 0.732235 -0.317651
N5    N     N_2   0.429320 0.144470 0.979371 -0.310860
N6    N     N_2   0.301903 0.272703 0.319629 -0.256742
O1    O     O_R   0.471500 0.366730 0.627160 -0.619628
O2    O     O_R   0.509620 0.544830 0.662520 -0.609747
O3    O     O_R   0.646490 0.410960 0.482310 -0.609516
O4    O     O_R   0.684610 0.589050 0.517670 -0.623375
O5    O     O_R   0.490380 0.455170 0.337480 -0.596897
O6    O     O_R   0.528500 0.633270 0.372840 -0.639899
O7    O     O_R   0.315390 0.410950 0.482330 -0.582288
O8    O     O_R   0.353510 0.589040 0.517690 -0.621930
Zn1   Zn    Zn3+2 0.474550 0.381080 0.476390 0.954322
Zn2   Zn    Zn3+2 0.525450 0.618920 0.523610 0.931006

loop_
_geom_bond_atom_site_label_1
_geom_bond_atom_site_label_2
_ccdc_geom_bond_type
C30   H13   S    
C3    H4    S    
C5    C37   A    
C7    C36   A    
C20   N1    A    
C35   C36   A    
C32   H20   S    
C11   H24   S    
C1    O1    A    
C32   N6    S    
C8    N3    S    
C9    H23   S    
C1    O2    A    
C30   H10   S    
C35   C37   A    
C22   O7    A    
C16   O5    A    
C6    C12   A    
C4    C24   S    
C23   H2    S    
C18   C19   A    
C34   C35   A    
O6    Zn2   S    
C4    O3    A    
C6    C28   A    
C12   C16   S    
C19   H25   S    
H18   N6    S    
C28   C38   A    
C20   H22   S    
C9    C10   A    
C31   N5    S    
H5    N3    S    
C13   C14   A    
C21   N1    A    
C34   H3    S    
C32   H19   S    
O2    Zn2   S    
O1    Zn1   S    
C30   N4    S    
C2    H26   S    
C8    C21   A    
C29   N3    S    
C15   C20   A    
C21   N6    S    
C24   C25   T    
C5    C12   A    
O8    Zn2   S    
O4    Zn2   S    
O7    Zn1   S    
O3    Zn1   S    
C23   C33   A    
C25   C26   S    
C29   H7    S    
H9    N4    S    
C37   C38   A    
C2    C38   A    
O5    Zn1   S    
C17   C18   A    
C26   C27   T    
C31   H15   S    
C10   N4    S    
C30   H11   S    
N1    Zn1   S    
C22   C27   S    
C13   C15   A    
C29   H6    S    
C18   H12   S    
C15   C17   A    
C1    C7    S    
C14   C19   A    
C5    H28   S    
C8    C17   A    
C29   H8    S    
N2    Zn2   S    
C28   H27   S    
C9    N2    A    
C22   O8    A    
H14   N5    S    
C11   C13   A    
C3    C36   A    
C7    C23   A    
C33   C34   A    
C2    C3    A    
C16   O6    A    
C31   H16   S    
C4    O4    A    
C10   C11   A    
C33   N5    S    
C14   N2    A    
C6    H1    S    
C32   H21   S    
C31   H17   S    
