data_mof_unit_29386.cif
_audit_creation_date              2013-03-05T15:45:48-0500
_audit_creation_method            fapswitch 2.2
_symmetry_space_group_name_H-M    P1
_symmetry_Int_Tables_number       1
_space_group_crystal_system       triclinic
_cell_length_a                    9.817237
_cell_length_b                    11.042586
_cell_length_c                    15.79652
_cell_angle_alpha                 94.185975
_cell_angle_beta                  79.418749
_cell_angle_gamma                 111.364037
_cell_volume                      1567.63814115

loop_
_atom_site_label
_atom_site_type_symbol
_atom_site_description
_atom_site_fract_x
_atom_site_fract_y
_atom_site_fract_z
_atom_type_partial_charge
O1    O     O_R   0.426810 0.668300 0.492040 -0.594719
O2    O     O_R   0.573190 0.331700 0.507960 -0.584516
O3    O     O_R   0.658240 0.703130 0.517240 -0.568918
O4    O     O_R   0.341760 0.296870 0.482760 -0.564766
C1    C     C_R   0.556264 0.745428 0.505965 0.847515
C2    C     C_R   0.443813 0.254593 0.493920 0.869590
O5    O     O_R   0.319390 0.472820 0.610170 -0.547844
O6    O     O_R   0.680610 0.527180 0.389830 -0.541650
O7    O     O_R   0.550820 0.507640 0.635370 -0.552249
O8    O     O_R   0.449180 0.492360 0.364630 -0.575449
C3    C     C_R   0.411635 0.486459 0.662971 0.831297
C4    C     C_R   0.589154 0.514770 0.337043 0.821518
Cu1   Cu    Cu3+1 0.362980 0.479380 0.485080 0.968099
Cu2   Cu    Cu3+1 0.637020 0.520620 0.514920 0.982678
C5    C     C_R   0.359460 0.472404 0.756541 -0.189319
C6    C     C_R   0.644061 0.526090 0.243493 -0.167261
C7    C     C_R   0.171483 0.446699 0.883639 -0.206322
C8    C     C_R   0.841555 0.579559 0.120130 -0.298081
C9    C     C_R   0.224212 0.483285 0.796842 0.435632
C10   C     C_R   0.796655 0.568539 0.209249 0.411249
C11   C     C_R   0.453966 0.457964 0.808021 -0.167581
C12   C     C_R   0.540452 0.494555 0.187377 -0.205766
C13   C     C_R   0.419815 0.463879 0.897741 0.058346
C14   C     C_R   0.584471 0.499922 0.097425 0.062509
C15   C     C_R   0.269028 0.432063 0.934194 -0.056849
C16   C     C_R   0.737819 0.555159 0.064608 -0.078202
C17   C     C_R   0.528511 0.495020 0.951881 -0.146500
C18   C     C_R   0.479330 0.460266 0.040132 -0.131672
C19   C     C_R   0.326913 0.381988 0.067081 0.262521
C20   C     C_R   0.682425 0.565222 0.922075 0.281327
C21   C     C_R   0.219569 0.378467 0.017094 0.319383
C22   C     C_R   0.785739 0.592326 0.977899 0.379212
H1    H     H_    0.424802 0.470154 0.214795 0.205026
H2    H     H_    0.555784 0.444922 0.777930 0.210673
H3    H     H_    0.060210 0.440130 0.912344 0.186188
H4    H     H_    0.959187 0.610651 0.094765 0.164453
H5    H     H_    0.627408 0.134906 0.507763 0.186972
H6    H     H_    0.375354 0.865421 0.487194 0.181006
C23   C     C_2   0.588453 0.884669 0.508379 -0.338795
C24   C     C_2   0.411884 0.115420 0.491079 -0.357635
C25   C     C_2   0.484989 0.930618 0.497263 -0.168940
C26   C     C_2   0.516939 0.069631 0.499239 -0.148762
H7    H     H_    0.301463 0.049938 0.482874 0.154499
H8    H     H_    0.697579 0.950096 0.519031 0.157336
H9    H     H_    0.117581 0.569990 0.560385 0.172293
H10   H     H_    0.877077 0.423289 0.442250 0.175521
N1    N     N_2   0.842890 0.551600 0.537350 -0.278096
N2    N     N_2   0.157110 0.448400 0.462650 -0.284197
C27   C     C_2   0.922305 0.489589 0.492750 -0.069690
C28   C     C_2   0.074940 0.506710 0.508552 -0.066073
H11   H     H_    0.113858 0.388989 0.413295 0.216767
H12   H     H_    0.888411 0.613864 0.584971 0.222845
O9    O     O_3   0.079516 0.283742 0.033375 -0.602338
C29   C     C_3   0.979346 0.329447 0.089507 0.099143
H13   H     H_    0.933559 0.381554 0.051597 0.142496
H14   H     H_    0.031370 0.395858 0.140668 0.173558
C30   C     C_3   0.852066 0.210508 0.131243 -0.318898
H15   H     H_    0.798544 0.146011 0.080051 0.219267
H16   H     H_    0.896983 0.154633 0.166977 0.252373
C31   C     C_3   0.734728 0.247331 0.193124 -0.840646
H17   H     H_    0.785186 0.312616 0.244759 0.268336
H18   H     H_    0.647802 0.158217 0.223462 0.256431
H19   H     H_    0.681445 0.295493 0.157451 0.285889
O10   O     O_3   0.934805 0.657368 0.946021 -0.599842
C32   C     C_3   0.981942 0.788880 0.974507 -0.001567
H20   H     H_    0.103768 0.822087 0.972591 0.168625
H21   H     H_    0.932768 0.802405 0.042240 0.133123
C33   C     C_3   0.949719 0.875928 0.915793 -0.345913
H22   H     H_    0.984141 0.854066 0.847266 0.269919
H23   H     H_    0.828756 0.857072 0.927679 0.239923
C34   C     C_3   0.031011 0.019196 0.934074 -0.831770
H24   H     H_    0.999160 0.040739 0.002999 0.289674
H25   H     H_    0.000431 0.080449 0.893805 0.272282
H26   H     H_    0.153031 0.043482 0.919065 0.257401
O11   O     O_3   0.901954 0.592304 0.261930 -0.607698
C35   C     C_3   0.979233 0.727800 0.266961 0.070696
H27   H     H_    0.903594 0.775869 0.302747 0.146183
H28   H     H_    0.025356 0.772089 0.201854 0.130211
C36   C     C_3   0.108658 0.752344 0.314948 -0.332311
H29   H     H_    0.065212 0.716229 0.381992 0.227080
H30   H     H_    0.179883 0.698337 0.282301 0.224312
C37   C     C_3   0.202697 0.896821 0.317217 -0.883497
H31   H     H_    0.245968 0.935732 0.250802 0.282349
H32   H     H_    0.298574 0.910465 0.349524 0.250549
H33   H     H_    0.135762 0.952092 0.353422 0.261959
O12   O     O_3   0.154765 0.544327 0.755338 -0.568822
C38   C     C_3   0.221788 0.680559 0.768680 0.110503
H34   H     H_    0.343002 0.712681 0.771306 0.124636
H35   H     H_    0.166133 0.708206 0.830524 0.200137
C39   C     C_3   0.206933 0.755725 0.695598 -0.349133
H36   H     H_    0.265015 0.729458 0.634195 0.217797
H37   H     H_    0.088160 0.730039 0.691169 0.256127
C40   C     C_3   0.277496 0.902432 0.708612 -0.905646
H38   H     H_    0.230032 0.932851 0.772105 0.257113
H39   H     H_    0.256592 0.953933 0.657431 0.265368
H40   H     H_    0.399316 0.931255 0.704802 0.269525
N3    N     N_R   0.286346 0.287857 0.134348 0.132648
O13   O     O_R   0.366494 0.217046 0.136530 -0.375924
O14   O     O_R   0.173040 0.275111 0.195035 -0.406788
N4    N     N_R   0.735506 0.620914 0.837620 0.106993
O15   O     O_R   0.840433 0.593605 0.786382 -0.356126
O16   O     O_R   0.685862 0.705212 0.813785 -0.410311

loop_
_geom_bond_atom_site_label_1
_geom_bond_atom_site_label_2
_geom_bond_distance
_ccdc_geom_bond_type
C15   C21   1.403989 A    
C38   H34   1.118944 S    
C16   C22   1.403771 A    
C40   H38   1.108657 S    
C25   C26   1.449674 S    
C8    C16   1.404482 A    
C35   C36   1.528176 S    
O7    Cu2   1.927956 S    
C9    O12   1.382929 S    
N3    O13   1.301491 A    
C39   H36   1.107419 S    
N1    C27   1.299967 D    
O9    C29   1.408569 S    
O5    C3    1.303125 A    
H10   C27   1.085118 S    
C31   H19   1.108459 S    
O1    C1    1.294450 A    
C12   C14   1.406212 A    
C18   C19   1.429958 A    
C35   H28   1.114909 S    
C30   H16   1.110960 S    
C20   N4    1.435454 S    
H5    C26   1.088001 S    
C31   H18   1.110440 S    
O4    Cu1   1.947469 S    
C34   H26   1.110853 S    
C3    C5    1.472642 S    
C24   H7    1.087009 S    
C4    C6    1.474893 S    
C33   H22   1.109594 S    
C32   H21   1.113386 S    
C6    C12   1.403437 A    
C13   C17   1.418873 A    
C6    C10   1.408645 A    
C24   C26   1.332006 D    
C40   H39   1.110071 S    
Cu1   Cu2   2.684984 S    
C17   C20   1.429809 A    
O2    C2    1.294349 A    
N3    O14   1.300053 A    
N2    H11   1.030765 S    
C29   H14   1.115323 S    
C35   H27   1.114408 S    
C22   O10   1.388300 S    
H6    C25   1.087952 S    
C23   C25   1.331928 D    
C34   H25   1.110486 S    
O12   C38   1.422644 S    
C30   C31   1.522337 S    
C11   H2    1.079915 S    
C10   O11   1.384348 S    
C31   H17   1.110293 S    
N1    H12   1.030729 S    
C5    C9    1.406160 A    
O11   C35   1.413620 S    
C36   C37   1.526294 S    
C39   H37   1.109520 S    
C5    C11   1.396907 A    
O6    C4    1.299550 A    
C32   C33   1.530921 S    
N4    O16   1.301880 A    
C21   O9    1.382854 S    
O7    C3    1.294269 A    
C23   H8    1.087446 S    
O3    Cu2   1.947467 S    
O8    C4    1.299044 A    
O4    C2    1.292454 A    
C27   C28   1.505819 S    
C40   H40   1.110953 S    
C37   H32   1.109478 S    
C1    C23   1.451654 S    
C2    C24   1.451290 S    
O1    Cu1   1.948386 S    
C32   H20   1.111111 S    
C39   C40   1.527304 S    
C36   H30   1.112221 S    
C12   H1    1.078322 S    
C29   H13   1.108766 S    
O6    Cu2   1.944391 S    
C14   C18   1.425541 A    
C14   C16   1.413399 A    
O3    C1    1.292465 A    
O8    Cu1   1.927953 S    
Cu1   N2    2.017141 S    
Cu2   N1    2.017142 S    
C37   H33   1.111141 S    
C19   N3    1.439574 S    
C7    C15   1.411870 A    
O10   C32   1.420237 S    
C11   C13   1.397591 A    
C34   H24   1.109573 S    
C19   C21   1.416610 A    
C20   C22   1.401682 A    
C30   H15   1.112017 S    
H9    C28   1.078501 S    
C33   C34   1.523557 S    
N2    C28   1.298673 D    
N4    O15   1.300619 A    
C7    C9    1.406742 A    
C8    C10   1.396048 A    
C13   C15   1.408511 A    
O2    Cu2   1.948388 S    
C36   H29   1.111034 S    
O5    Cu1   1.944393 S    
C33   H23   1.110172 S    
C37   H31   1.111263 S    
C38   C39   1.527368 S    
C17   C18   1.421162 A    
C38   H35   1.108183 S    
C7    H3    1.081359 S    
C8    H4    1.083196 S    
C29   C30   1.532701 S    
