data_mof_unit_23938.cif
_audit_creation_date              2012-12-11T15:23:59-0500
_audit_creation_method            fapswitch 2.2
_symmetry_space_group_name_H-M    P1
_symmetry_Int_Tables_number       1
_space_group_crystal_system       triclinic
_cell_length_a                    17.488868
_cell_length_b                    24.726224
_cell_length_c                    14.928724
_cell_angle_alpha                 90.000024
_cell_angle_beta                  125.588484
_cell_angle_gamma                 89.999949
_cell_volume                      5249.87587973

loop_
_atom_site_label
_atom_site_type_symbol
_atom_type_description
_atom_site_fract_x
_atom_site_fract_y
_atom_site_fract_z
_atom_type_partial_charge
C1    C     C_R   0.350390 0.349002 0.912206 0.217484
C2    C     C_R   0.436426 0.497236 0.632642 0.092400
C3    C     C_3   0.131348 0.196239 0.728451 -1.011266
C4    C     C_3   0.261021 0.417870 0.166911 -0.938790
C5    C     C_3   0.455423 0.361840 0.536356 -1.002427
C6    C     C_3   0.044576 0.861840 0.463643 -1.002428
C7    C     C_3   0.238978 0.917869 0.833088 -0.938793
C8    C     C_R   0.063573 0.997236 0.367358 0.092400
C9    C     C_R   0.047863 0.998953 0.722639 0.066886
C10   C     C_R   0.202144 0.499329 0.632317 0.130482
C11   C     C_R   0.824781 0.499558 0.311045 0.127267
C12   C     C_R   0.675218 0.999558 0.688956 0.127267
C13   C     C_R   0.297856 0.999329 0.367683 0.130482
C14   C     C_2   0.976087 0.459979 0.378329 -0.116592
C15   C     C_2   0.076988 0.456032 0.463551 -0.118756
C16   C     C_2   0.423012 0.956032 0.536450 -0.118757
C17   C     C_R   0.669138 0.357910 0.087766 0.192336
C18   C     C_2   0.523913 0.959979 0.621672 -0.116589
C19   C     C_2   0.926013 0.499996 0.381781 -0.187876
C20   C     C_2   0.126860 0.500525 0.515537 -0.197836
C21   C     C_2   0.373140 0.000525 0.484463 -0.197835
C22   C     C_2   0.573987 0.999996 0.618221 -0.187875
C23   C     C_R   0.197988 0.714370 0.893421 -0.215844
C24   C     C_R   0.663287 0.739348 0.938613 -0.214602
C25   C     C_R   0.836715 0.239352 0.061372 -0.214607
C26   C     C_R   0.302011 0.214371 0.106579 -0.215845
C27   C     C_R   0.795425 0.287750 0.052508 -0.213697
C28   C     C_R   0.830864 0.857908 0.912234 0.192334
C29   C     C_R   0.354625 0.255706 0.109168 -0.166655
C30   C     C_R   0.145374 0.755706 0.890831 -0.166656
C31   C     C_R   0.704576 0.787746 0.947478 -0.213700
C32   C     C_R   0.698146 0.290488 0.988647 0.147529
C33   C     C_R   0.354591 0.265555 0.017141 0.129364
C34   C     C_R   0.145409 0.765555 0.982859 0.129364
C35   C     C_R   0.801855 0.790486 0.011353 0.147531
C36   C     C_R   0.640575 0.246283 0.929840 -0.265967
C37   C     C_R   0.315616 0.228372 0.931326 -0.265373
C38   C     C_R   0.184383 0.728371 0.068674 -0.265371
C39   C     C_R   0.149610 0.849003 0.087794 0.217484
C40   C     C_R   0.859428 0.746285 0.070176 -0.265962
C41   C     C_R   0.245478 0.689477 0.077441 0.185109
C42   C     C_R   0.818367 0.697207 0.062448 0.176561
C43   C     C_R   0.681636 0.197206 0.937569 0.176561
C44   C     C_R   0.254521 0.189477 0.922558 0.185111
C45   C     C_R   0.410554 0.635619 0.088480 -0.134617
C46   C     C_R   0.591106 0.629195 0.906451 -0.161003
C47   C     C_R   0.908895 0.129196 0.093550 -0.161007
C48   C     C_R   0.089445 0.135620 0.911520 -0.134617
C49   C     C_R   0.253820 0.683684 0.989451 0.075409
C50   C     C_R   0.322548 0.649036 0.995502 0.068168
C51   C     C_R   0.719910 0.694455 0.995577 0.090096
C52   C     C_R   0.780093 0.194457 0.004423 0.090100
C53   C     C_R   0.246179 0.183685 0.010549 0.075409
C54   C     C_R   0.400341 0.546048 0.469326 -0.209004
C55   C     C_R   0.402232 0.547451 0.378824 -0.225365
C56   C     C_R   0.097768 0.047451 0.621177 -0.225365
C57   C     C_R   0.099659 0.046048 0.530674 -0.209004
C58   C     C_R   0.403580 0.499487 0.331000 0.079802
C59   C     C_R   0.403363 0.496373 0.516212 0.059838
C60   C     C_R   0.096637 0.996373 0.483788 0.059838
C61   C     C_R   0.673739 0.648449 0.997992 0.071587
C62   C     C_R   0.096420 0.999487 0.669000 0.079801
C63   C     C_R   0.374524 0.451331 0.353059 0.126120
C64   C     C_R   0.383264 0.448147 0.453219 0.096526
C65   C     C_R   0.116735 0.948147 0.546781 0.096526
C66   C     C_R   0.125476 0.951331 0.646941 0.126121
C67   C     C_R   0.482560 0.453704 0.251000 -0.116288
C68   C     C_R   0.452672 0.453237 0.698318 -0.145038
C69   C     C_R   0.047327 0.953237 0.301682 -0.145038
C70   C     C_R   0.017440 0.953704 0.749000 -0.116288
C71   C     C_R   0.247427 0.544392 0.695429 -0.153160
C72   C     C_R   0.826262 0.148451 0.002008 0.071590
C73   C     C_R   0.768450 0.544817 0.274589 -0.125340
C74   C     C_R   0.731549 0.044817 0.725412 -0.125341
C75   C     C_R   0.252573 0.044392 0.304571 -0.153159
C76   C     C_R   0.484898 0.544210 0.254229 -0.133524
C77   C     C_R   0.451896 0.543270 0.695979 -0.137185
C78   C     C_R   0.048104 0.043270 0.304021 -0.137185
C79   C     C_R   0.015103 0.044210 0.745771 -0.133524
C80   C     C_R   0.247376 0.454303 0.696543 -0.118138
C81   C     C_R   0.768272 0.454205 0.270806 -0.144963
C82   C     C_R   0.731728 0.954205 0.729195 -0.144962
C83   C     C_R   0.177451 0.149036 0.004498 0.068168
C84   C     C_R   0.252624 0.954303 0.303456 -0.118138
C85   C     C_R   0.314492 0.628361 0.904684 -0.142782
C86   C     C_R   0.681368 0.632730 0.091520 -0.101017
C87   C     C_R   0.818632 0.132730 0.908480 -0.101023
C88   C     C_R   0.185508 0.128361 0.095316 -0.142783
C89   C     C_R   0.442774 0.350202 0.094819 -0.184299
C90   C     C_R   0.579978 0.362001 0.903384 -0.168904
C91   C     C_R   0.920023 0.862000 0.096616 -0.168905
C92   C     C_R   0.057227 0.850202 0.905181 -0.184298
C93   C     C_R   0.380432 0.318868 0.005942 -0.023473
C94   C     C_R   0.452137 0.498953 0.277361 0.066886
C95   C     C_R   0.656995 0.338110 0.993609 -0.032375
C96   C     C_R   0.843008 0.838109 0.006391 -0.032371
C97   C     C_R   0.119568 0.818868 0.994057 -0.023473
C98   C     C_3   0.338168 0.318600 0.750671 -1.014050
C99   C     C_3   0.673355 0.322969 0.243578 -0.963867
C100  C     C_3   0.826647 0.822971 0.756420 -0.963869
C101  C     C_3   0.161832 0.818600 0.249329 -1.014051
C102  C     C_3   0.368651 0.696239 0.271549 -1.011266
C103  C     C_3   0.880267 0.610842 0.057089 -0.906097
C104  C     C_3   0.619761 0.110841 0.942974 -0.906102
H1    H     H_    0.958905 0.533498 0.439160 0.132531
H2    H     H_    0.386212 0.283066 0.178610 0.120020
H3    H     H_    0.300907 0.928289 0.833333 0.252250
H4    H     H_    0.113787 0.783065 0.821390 0.120020
H5    H     H_    0.661243 0.822656 0.902756 0.123287
H6    H     H_    0.564640 0.249588 0.881675 0.123082
H7    H     H_    0.323930 0.232677 0.865598 0.149306
H8    H     H_    0.176070 0.732677 0.134402 0.149306
H9    H     H_    0.935362 0.749591 0.118353 0.123081
H10   H     H_    0.407953 0.584280 0.508545 0.129079
H11   H     H_    0.413145 0.585967 0.355213 0.141998
H12   H     H_    0.086856 0.085967 0.644788 0.141998
H13   H     H_    0.101137 0.540125 0.478073 0.132353
H14   H     H_    0.092048 0.084280 0.491455 0.129079
H15   H     H_    0.445328 0.652227 0.169944 0.129785
H16   H     H_    0.559792 0.638327 0.820845 0.104329
H17   H     H_    0.940210 0.138329 0.179155 0.104331
H18   H     H_    0.054671 0.152227 0.830056 0.129785
H19   H     H_    0.474645 0.411842 0.263865 0.123517
H20   H     H_    0.434860 0.411762 0.675224 0.140665
H21   H     H_    0.065139 0.911762 0.324776 0.140665
H22   H     H_    0.025355 0.911842 0.736134 0.123517
H23   H     H_    0.237878 0.585359 0.665152 0.088858
H24   H     H_    0.398862 0.040125 0.521927 0.132354
H25   H     H_    0.791175 0.585977 0.299770 0.090250
H26   H     H_    0.708824 0.085977 0.700231 0.090250
H27   H     H_    0.262122 0.085359 0.334848 0.088858
H28   H     H_    0.482373 0.585310 0.274785 0.101055
H29   H     H_    0.433389 0.584481 0.667443 0.083080
H30   H     H_    0.066610 0.084481 0.332556 0.083080
H31   H     H_    0.017627 0.085309 0.725215 0.101056
H32   H     H_    0.237894 0.413424 0.667066 0.128418
H33   H     H_    0.791928 0.413283 0.294006 0.139068
H34   H     H_    0.708072 0.913283 0.705996 0.139068
H35   H     H_    0.541095 0.033499 0.560842 0.132530
H36   H     H_    0.262106 0.913424 0.332934 0.128418
H37   H     H_    0.256882 0.631885 0.818709 0.098481
H38   H     H_    0.730540 0.647870 0.174002 0.091114
H39   H     H_    0.769461 0.147870 0.825998 0.091112
H40   H     H_    0.243117 0.131886 0.181291 0.098481
H41   H     H_    0.487624 0.337744 0.179950 0.113220
H42   H     H_    0.545084 0.351378 0.817704 0.120742
H43   H     H_    0.954916 0.851378 0.182296 0.120740
H44   H     H_    0.012378 0.837744 0.820050 0.113220
H45   H     H_    0.941354 0.426089 0.322272 0.120416
H46   H     H_    0.202604 0.711149 0.824461 0.122692
H47   H     H_    0.104135 0.415952 0.496145 0.120228
H48   H     H_    0.395865 0.915952 0.503855 0.120227
H49   H     H_    0.558646 0.926089 0.677729 0.120414
H50   H     H_    0.237045 0.306528 0.782061 0.171907
H51   H     H_    0.285827 0.305784 0.664057 0.252365
H52   H     H_    0.389062 0.285194 0.796387 0.252828
H53   H     H_    0.376127 0.354300 0.750253 0.261777
H54   H     H_    0.762988 0.300230 0.201877 0.177061
H55   H     H_    0.723211 0.305688 0.327128 0.249924
H56   H     H_    0.615396 0.293560 0.193498 0.260923
H57   H     H_    0.587222 0.737357 0.890309 0.132918
H58   H     H_    0.646145 0.361512 0.252802 0.259196
H59   H     H_    0.737017 0.800227 0.798122 0.177062
H60   H     H_    0.776791 0.805691 0.672868 0.249924
H61   H     H_    0.884606 0.793562 0.806497 0.260922
H62   H     H_    0.853857 0.861514 0.747199 0.259198
H63   H     H_    0.262955 0.806527 0.217939 0.171906
H64   H     H_    0.214173 0.805784 0.335943 0.252365
H65   H     H_    0.110938 0.785194 0.203612 0.252829
H66   H     H_    0.123874 0.854300 0.249747 0.261778
H67   H     H_    0.269074 0.634923 0.194985 0.175868
H68   H     H_    0.912780 0.237363 0.109665 0.132922
H69   H     H_    0.429084 0.672738 0.338404 0.248817
H70   H     H_    0.331615 0.714954 0.304027 0.258354
H71   H     H_    0.397538 0.728580 0.247351 0.263822
H72   H     H_    0.940801 0.661495 0.192400 0.161058
H73   H     H_    0.922580 0.576055 0.110199 0.250349
H74   H     H_    0.914320 0.627772 0.019429 0.247307
H75   H     H_    0.809035 0.595769 0.991135 0.259226
H76   H     H_    0.559194 0.161487 0.807649 0.161061
H77   H     H_    0.577439 0.076053 0.889877 0.250347
H78   H     H_    0.585732 0.127775 0.980659 0.247310
H79   H     H_    0.297394 0.211150 0.175539 0.122692
H80   H     H_    0.690999 0.095768 0.008909 0.259227
H81   H     H_    0.230925 0.134924 0.805015 0.175867
H82   H     H_    0.070916 0.172738 0.661596 0.248818
H83   H     H_    0.168384 0.214954 0.695974 0.258354
H84   H     H_    0.102460 0.228580 0.752649 0.263822
H85   H     H_    0.335068 0.369951 0.305687 0.174262
H86   H     H_    0.244064 0.381490 0.114779 0.253187
H87   H     H_    0.275952 0.451607 0.130166 0.265862
H88   H     H_    0.199092 0.428290 0.166667 0.252250
H89   H     H_    0.311171 0.378095 0.436935 0.165911
H90   H     H_    0.838757 0.322662 0.097220 0.123291
H91   H     H_    0.446012 0.325763 0.573310 0.254761
H92   H     H_    0.520727 0.383005 0.601898 0.268683
H93   H     H_    0.464112 0.348142 0.472035 0.251425
H94   H     H_    0.188828 0.878095 0.563064 0.165911
H95   H     H_    0.053986 0.825763 0.426689 0.254761
H96   H     H_    0.979272 0.883005 0.398101 0.268683
H97   H     H_    0.035887 0.848142 0.527964 0.251425
H98   H     H_    0.164931 0.869950 0.694312 0.174262
H99   H     H_    0.255936 0.881490 0.885220 0.253188
H100  H     H_    0.224048 0.951607 0.869833 0.265862
N1    N     N_R   0.395440 0.396300 0.944370 -0.054951
N2    N     N_R   0.474910 0.470990 0.794360 -0.043592
N3    N     N_R   0.025090 0.970990 0.205640 -0.043592
N4    N     N_R   0.974910 0.970990 0.794360 -0.047300
N5    N     N_R   0.320240 0.527820 0.794510 -0.039872
N6    N     N_R   0.679760 0.527820 0.205490 -0.042722
N7    N     N_R   0.820240 0.027820 0.794510 -0.042722
N8    N     N_R   0.179760 0.027820 0.205490 -0.039873
N9    N     N_R   0.524580 0.527810 0.205160 -0.042201
N10   N     N_R   0.475420 0.527810 0.794840 -0.036660
N11   N     N_R   0.024580 0.027810 0.205160 -0.036660
N12   N     N_R   0.604560 0.396300 0.055630 -0.048641
N13   N     N_R   0.975420 0.027810 0.794840 -0.042201
N14   N     N_R   0.320750 0.470990 0.794990 -0.043456
N15   N     N_R   0.679250 0.470990 0.205010 -0.045299
N16   N     N_R   0.820750 0.970990 0.794990 -0.045299
N17   N     N_R   0.179250 0.970990 0.205010 -0.043456
N18   N     N_R   0.393580 0.602500 0.942610 -0.040168
N19   N     N_R   0.606420 0.602500 0.057390 -0.045013
N20   N     N_R   0.893580 0.102500 0.942610 -0.045012
N21   N     N_R   0.106420 0.102500 0.057390 -0.040168
N22   N     N_R   0.451750 0.396300 0.057540 -0.048759
N23   N     N_R   0.895440 0.896300 0.944370 -0.048641
N24   N     N_R   0.548250 0.396300 0.942460 -0.049512
N25   N     N_R   0.951750 0.896300 0.057540 -0.049511
N26   N     N_R   0.048250 0.896300 0.942460 -0.048759
N27   N     N_2   0.290493 0.332406 0.800595 -0.123079
N28   N     N_2   0.721795 0.332394 0.193142 -0.130859
N29   N     N_2   0.778208 0.832394 0.806857 -0.130860
N30   N     N_2   0.209507 0.832406 0.199405 -0.123079
N31   N     N_2   0.305147 0.661310 0.178606 -0.118302
N32   N     N_2   0.875248 0.651603 0.123019 -0.118254
N33   N     N_2   0.624755 0.151598 0.877020 -0.118250
N34   N     N_R   0.104560 0.896300 0.055630 -0.054951
N35   N     N_2   0.194852 0.161310 0.821394 -0.118302
N36   N     N_2   0.341467 0.406623 0.278240 -0.126999
N37   N     N_2   0.374587 0.397244 0.490775 -0.122571
N38   N     N_2   0.125412 0.897244 0.509225 -0.122571
N39   N     N_2   0.158532 0.906623 0.721759 -0.126999
N40   N     N_R   0.449890 0.602500 0.055780 -0.044117
N41   N     N_R   0.550110 0.602500 0.944220 -0.040607
N42   N     N_R   0.949890 0.102500 0.055780 -0.040606
N43   N     N_R   0.050110 0.102500 0.944220 -0.044117
N44   N     N_R   0.525090 0.470990 0.205640 -0.047300
Ni1   Ni    Ni4+2 0.435420 0.434250 0.870220 0.210187
Ni2   Ni    Ni4+2 0.564580 0.434250 0.129780 0.209489
Ni3   Ni    Ni4+2 0.935420 0.934250 0.870220 0.209490
Ni4   Ni    Ni4+2 0.064580 0.934250 0.129780 0.210187
Ni5   Ni    Ni4+2 0.563400 0.564580 0.128670 0.212356
Ni6   Ni    Ni4+2 0.436600 0.564580 0.871330 0.206490
Ni7   Ni    Ni4+2 0.063400 0.064580 0.128670 0.206489
Ni8   Ni    Ni4+2 0.936600 0.064580 0.871330 0.212357

loop_
_geom_bond_atom_site_label_1
_geom_bond_atom_site_label_2
_ccdc_geom_bond_type
N21   N43   A    
H63   N30   S    
C104  H78   S    
C26   C53   A    
C16   C21   D    
C99   H55   S    
H50   N27   S    
C92   H44   S    
C4    H88   S    
N9    Ni5   S    
C24   H57   S    
C51   C61   S    
H72   N32   S    
C89   N22   A    
C3    H84   S    
C68   H20   S    
C91   H43   S    
C99   N28   S    
C90   C95   A    
H67   N31   S    
C35   C96   S    
C11   C81   A    
C102  H69   S    
C81   H33   S    
N7    N16   A    
N44   Ni2   S    
C13   C84   A    
C11   C19   S    
C8    C69   A    
N12   N24   A    
C91   N25   A    
C52   C72   S    
N5    N14   A    
C32   C36   A    
C90   N24   A    
C55   C58   A    
C48   N43   A    
C2    C68   A    
C84   N17   A    
C80   N14   A    
C6    H95   S    
C43   C52   A    
C79   N13   A    
N10   Ni6   S    
C66   N39   S    
C70   N4    A    
C81   N15   A    
C12   C22   S    
C58   C63   A    
C34   C97   S    
C56   C57   A    
C100  H62   S    
C9    C79   A    
N2    Ni1   S    
C1    N27   S    
C7    H99   S    
C43   N33   S    
C50   C85   A    
C76   C94   A    
C91   C96   A    
C98   H51   S    
C42   N32   S    
C76   N9    A    
C103  N32   S    
C13   C75   A    
C29   C33   A    
C10   C20   S    
C71   N5    A    
N15   Ni2   S    
C92   C97   A    
C67   C94   A    
C98   H53   S    
C101  H65   S    
C17   C95   A    
C17   N12   A    
C1    N1    A    
N3    Ni4   S    
N7    Ni8   S    
C28   N29   S    
C5    H91   S    
C56   C62   A    
C30   H4    S    
N43   Ni8   S    
C45   H15   S    
C24   C51   A    
C40   C42   A    
C83   C88   A    
C69   H21   S    
C102  N31   S    
C18   C22   D    
C99   H56   S    
C7    H3    S    
C8    C78   A    
C4    H87   S    
C71   H23   S    
C100  N29   S    
C104  N33   S    
C77   H29   S    
N8    N17   A    
C44   C53   A    
C28   N23   A    
C41   C49   A    
C20   H13   S    
C17   N28   S    
C75   H27   S    
C77   N10   A    
C98   H52   S    
C54   C59   A    
N18   Ni6   S    
C31   H5    S    
C15   C20   D    
C73   H25   S    
C75   N8    A    
C69   N3    A    
C37   H7    S    
C62   C66   A    
C46   C61   A    
C46   H16   S    
C9    C62   S    
C23   C30   A    
C4    H86   S    
C73   N6    A    
C101  H66   S    
N1    Ni1   S    
C9    C70   A    
C6    H97   S    
C100  H60   S    
C11   C73   A    
H54   N28   S    
C63   N36   S    
C30   C34   A    
C2    C59   S    
C57   C60   A    
C5    H93   S    
C64   N37   S    
C41   N31   S    
C39   C97   A    
C102  H71   S    
C22   H35   S    
C40   H9    S    
H94   N38   S    
N6    N15   A    
C63   C64   A    
C33   C93   S    
C100  H61   S    
C103  H73   S    
N4    Ni3   S    
C101  H64   S    
C89   H41   S    
N6    Ni5   S    
C7    H100  S    
H59   N29   S    
N5    Ni6   S    
C99   H58   S    
C67   N44   A    
N19   Ni5   S    
C88   N21   A    
N17   Ni4   S    
C92   N26   A    
N21   Ni7   S    
C18   H49   S    
N11   Ni7   S    
C4    N36   S    
C13   C21   S    
N1    N22   A    
C16   H48   S    
C27   H90   S    
C15   H47   S    
C21   H24   S    
C78   H30   S    
C45   N40   A    
C26   H79   S    
C38   C41   A    
C5    H92   S    
C19   H1    S    
C25   H68   S    
N12   Ni2   S    
C104  H80   S    
C23   H46   S    
C60   C65   A    
C65   C66   A    
N40   Ni5   S    
C74   H26   S    
C36   H6    S    
N14   Ni1   S    
C31   C35   A    
C29   H2    S    
N26   N34   A    
C25   C27   A    
C86   N19   A    
C85   H37   S    
N26   Ni3   S    
C44   N35   S    
N2    N10   A    
C72   C87   A    
N20   Ni8   S    
C86   H38   S    
N23   Ni3   S    
N24   Ni1   S    
C85   N18   A    
N20   N42   A    
N4    N13   A    
N22   Ni2   S    
C54   C55   A    
N18   N40   A    
N34   Ni4   S    
C27   C32   A    
C34   C38   A    
H89   N37   S    
C14   C19   D    
C16   C18   S    
C46   N41   A    
C6    H96   S    
C67   H19   S    
C78   N11   A    
C39   N30   S    
N9    N44   A    
C102  H70   S    
C23   C49   A    
C79   H31   S    
C65   N38   S    
C42   C51   A    
N3    N11   A    
C3    H82   S    
C80   H32   S    
C48   C83   A    
C53   C83   S    
C74   N7    A    
C28   C96   A    
C103  H74   S    
C5    N37   S    
C87   N20   A    
N8    Ni7   S    
C10   C80   A    
C35   C40   A    
C58   C94   S    
C25   C52   A    
C90   H42   S    
N23   N25   A    
C12   C74   A    
C10   C71   A    
C48   H18   S    
C76   H28   S    
C70   H22   S    
H81   N35   S    
C68   N2    A    
C55   H11   S    
H76   N33   S    
N19   N41   A    
H98   N39   S    
C54   H10   S    
C14   H45   S    
C88   H40   S    
C82   H34   S    
C104  H77   S    
C103  H75   S    
C39   N34   A    
C89   C93   A    
C33   C37   A    
C47   C72   A    
C24   C31   A    
N25   Ni4   S    
C47   H17   S    
C61   C86   A    
N41   Ni6   S    
C98   N27   S    
C37   C44   A    
C59   C64   A    
C12   C82   A    
C32   C95   S    
C82   N16   A    
C3    H83   S    
C84   H36   S    
C26   C29   A    
C1    C93   A    
C49   C50   S    
N42   Ni7   S    
N16   Ni3   S    
C7    N39   S    
C101  N30   S    
C2    C77   A    
C14   C15   S    
C6    N38   S    
C36   C43   A    
C45   C50   A    
C87   H39   S    
H85   N36   S    
C38   H8    S    
N13   Ni8   S    
C47   N42   A    
C8    C60   S    
C56   H12   S    
C3    N35   S    
C57   H14   S    
