data_mof_unit_55945.cif
_audit_creation_date              2012-12-10T20:49:47-0500
_audit_creation_method            fapswitch 2.2
_symmetry_space_group_name_H-M    P1
_symmetry_Int_Tables_number       1
_space_group_crystal_system       triclinic
_cell_length_a                    8.096111
_cell_length_b                    8.936783
_cell_length_c                    16.572287
_cell_angle_alpha                 90.012242
_cell_angle_beta                  84.403921
_cell_angle_gamma                 89.975872
_cell_volume                      1193.34301928

loop_
_atom_site_label
_atom_site_type_symbol
_atom_type_description
_atom_site_fract_x
_atom_site_fract_y
_atom_site_fract_z
_atom_type_partial_charge
C1    C     C_R   0.499973 0.782074 0.500042 0.934044
C2    C     C_R   0.396687 0.510824 0.216138 0.624666
C3    C     C_R   0.528697 0.729996 0.838860 -0.206639
C4    C     C_R   0.391068 0.569060 0.139104 -0.223580
C5    C     C_R   0.398704 0.677899 0.893120 0.062143
C6    C     C_R   0.528103 0.645579 0.100785 0.079262
C7    C     C_R   0.292480 0.566196 0.869508 -0.187388
C8    C     C_R   0.675067 0.653146 0.138264 -0.198628
C9    C     C_R   0.320840 0.498577 0.793234 -0.111934
C10   C     C_R   0.684802 0.591504 0.215155 -0.123134
C11   C     C_2   0.392486 0.714212 0.979270 -0.172609
C12   C     C_R   0.500004 0.217924 0.500082 0.952693
C13   C     C_2   0.530938 0.695581 0.016343 -0.156116
C14   C     C_2   0.849185 0.594194 0.247282 0.980469
C15   C     C_2   0.212227 0.371745 0.774070 0.965004
C16   C     C_1   0.499955 0.934823 0.500108 -0.137516
C17   C     C_1   0.500008 0.065162 0.500123 -0.139102
C18   C     C_R   0.475854 0.503756 0.654329 0.962325
C19   C     C_R   0.524370 0.500864 0.345116 0.901010
C20   C     C_R   0.456010 0.549261 0.739272 -0.259300
C21   C     C_R   0.539960 0.527292 0.256971 -0.261759
C22   C     C_R   0.557719 0.666214 0.762656 0.620521
F1    F     F_    0.682847 0.722361 0.710860 -0.645003
F2    F     F_    0.260600 0.438111 0.250812 -0.621664
H1    H     H_    0.194861 0.524231 0.913109 0.182815
H2    H     H_    0.784383 0.703542 0.106187 0.172274
H3    H     H_    0.279777 0.550147 0.109443 0.164783
H4    H     H_    0.610755 0.817304 0.856517 0.171592
H5    H     H_    0.650878 0.692116 0.980582 0.159873
H6    H     H_    0.271567 0.717483 0.013794 0.159738
H7    H     H_    0.055724 0.712215 0.263486 0.359134
H8    H     H_    0.989168 0.270713 0.794911 0.355250
N1    N     N_1   0.926360 0.500000 0.499990 0.012052
N2    N     N_1   0.073640 0.500000 0.500010 0.006484
O1    O     O_R   0.363150 0.714660 0.500000 -0.626252
O2    O     O_R   0.944399 0.724914 0.241086 -0.801376
O3    O     O_2   0.264446 0.273570 0.726837 -0.627296
O4    O     O_R   0.050683 0.362255 0.812257 -0.794060
O5    O     O_R   0.636850 0.285340 0.500000 -0.615299
O6    O     O_R   0.636850 0.714660 0.500000 -0.597253
O7    O     O_R   0.363150 0.285340 0.500000 -0.598578
O8    O     O_R   0.346950 0.500000 0.615800 -0.611244
O9    O     O_R   0.653050 0.500000 0.384200 -0.605666
O10   O     O_R   0.620700 0.500000 0.615800 -0.564832
O11   O     O_R   0.379300 0.500000 0.384200 -0.557250
O12   O     O_2   0.905389 0.480288 0.274993 -0.532524
Zn1   Zn    Zn3+2 0.317220 0.500000 0.500010 1.070344
Zn2   Zn    Zn3+2 0.682780 0.500000 0.499990 1.079524

loop_
_geom_bond_atom_site_label_1
_geom_bond_atom_site_label_2
_ccdc_geom_bond_type
C12   C17   S    
C2    C4    A    
C19   O11   A    
C15   O4    S    
C12   O7    A    
H8    O4    S    
C8    H2    S    
O9    Zn2   S    
C9    C20   A    
C18   C20   S    
C7    H1    S    
O1    Zn1   S    
C2    C21   A    
C18   O8    A    
N1    N2    T    
C9    C15   S    
C14   O12   D    
C1    C16   S    
C6    C13   S    
C2    F2    S    
C11   C13   D    
C12   O5    A    
C4    C6    A    
C3    H4    S    
C19   C21   S    
C20   C22   A    
C5    C11   S    
C18   O10   A    
O8    Zn1   S    
O11   Zn1   S    
C10   C21   A    
C14   O2    S    
C7    C9    A    
O7    Zn1   S    
C4    H3    S    
C1    O1    A    
C8    C10   A    
C10   C14   S    
C13   H5    S    
C5    C7    A    
N1    Zn2   S    
O6    Zn2   S    
C22   F1    S    
C15   O3    D    
C3    C22   A    
C6    C8    A    
N2    Zn1   S    
C1    O6    A    
C3    C5    A    
H7    O2    S    
O10   Zn2   S    
C11   H6    S    
C19   O9    A    
C16   C17   T    
O5    Zn2   S    
