data_mof_unit_60036.cif
_audit_creation_date              2012-12-10T18:26:44-0500
_audit_creation_method            fapswitch 2.2
_symmetry_space_group_name_H-M    P1
_symmetry_Int_Tables_number       1
_space_group_crystal_system       triclinic
_cell_length_a                    25.89116
_cell_length_b                    25.847922
_cell_length_c                    22.130209
_cell_angle_alpha                 89.953764
_cell_angle_beta                  54.423931
_cell_angle_gamma                 89.968543
_cell_volume                      12045.8289101

loop_
_atom_site_label
_atom_site_type_symbol
_atom_type_description
_atom_site_fract_x
_atom_site_fract_y
_atom_site_fract_z
_atom_type_partial_charge
C1    C     C_R   0.849365 0.750082 0.301160 0.811574
C2    C     C_R   0.849377 0.249927 0.301171 0.799034
C3    C     C_R   0.349365 0.250083 0.301160 0.810033
C4    C     C_R   0.349379 0.749925 0.301170 0.812714
C5    C     C_3   0.490372 0.761851 0.579152 -0.105896
C6    C     C_3   0.490281 0.238242 0.579464 -0.103735
C7    C     C_3   0.990383 0.261818 0.579127 -0.105766
C8    C     C_3   0.990096 0.739644 0.580256 -0.101845
C9    C     C_3   0.551595 0.751574 0.498998 -0.194985
C10   C     C_3   0.551542 0.248255 0.499134 -0.155588
C11   C     C_3   0.051607 0.251547 0.498972 -0.206912
C12   C     C_3   0.051308 0.748406 0.499723 -0.174865
C13   C     C_3   0.449385 0.749261 0.499461 -0.228777
C14   C     C_3   0.449176 0.250439 0.499909 -0.175524
C15   C     C_3   0.949396 0.249235 0.499437 -0.229446
C16   C     C_3   0.949360 0.750363 0.499723 -0.180755
C17   C     C_3   0.481052 0.693400 0.480621 0.584872
C18   C     C_3   0.480676 0.306186 0.480854 0.588075
C19   C     C_3   0.981061 0.193374 0.480591 0.580501
C20   C     C_3   0.983617 0.805108 0.475293 0.646903
C21   C     C_3   0.430629 0.767694 0.578120 0.650527
C22   C     C_3   0.430470 0.232054 0.578580 0.620204
C23   C     C_3   0.930641 0.267663 0.578097 0.655430
C24   C     C_3   0.930000 0.734937 0.579763 0.619924
C25   C     C_3   0.467634 0.741756 0.956053 -0.636078
C26   C     C_3   0.467361 0.251193 0.955982 -0.611531
C27   C     C_3   0.968255 0.238252 0.956056 -0.639605
C28   C     C_3   0.967379 0.752078 0.955981 -0.613526
C29   C     C_3   0.542043 0.803110 0.956666 0.221930
C30   C     C_3   0.548780 0.199581 0.957007 0.223610
C31   C     C_3   0.038508 0.304362 0.956646 0.222721
C32   C     C_3   0.047928 0.699106 0.957005 0.225611
C33   C     C_3   0.500005 0.802356 0.043649 0.063555
C34   C     C_3   0.505789 0.200279 0.043939 0.132835
C35   C     C_3   0.996496 0.303714 0.043631 0.062231
C36   C     C_3   0.004937 0.699789 0.043939 0.132105
C37   C     C_1   0.389142 0.749727 0.221859 -0.053596
C38   C     C_1   0.389113 0.250307 0.221854 -0.054474
C39   C     C_1   0.889123 0.249754 0.221861 -0.052658
C40   C     C_1   0.889106 0.750293 0.221855 -0.057714
C41   C     C_3   0.538144 0.749676 0.926648 0.092988
C42   C     C_3   0.538408 0.250261 0.926637 0.056123
C43   C     C_3   0.038127 0.249804 0.926651 0.094855
C44   C     C_3   0.038402 0.750206 0.926640 0.058170
C45   C     C_R   0.650639 0.750054 0.698833 0.835912
C46   C     C_R   0.650647 0.249929 0.698842 0.841819
C47   C     C_R   0.150637 0.250058 0.698834 0.838901
C48   C     C_R   0.150646 0.749927 0.698842 0.839991
C49   C     C_3   0.424053 0.741959 0.042314 0.086257
C50   C     C_3   0.423724 0.251551 0.042225 0.082150
C51   C     C_3   0.924656 0.238421 0.042317 0.086855
C52   C     C_3   0.923746 0.752451 0.042223 0.081949
C53   C     C_3   0.464310 0.749602 0.073410 0.012427
C54   C     C_3   0.464402 0.250387 0.073414 -0.012996
C55   C     C_3   0.964285 0.249709 0.073414 0.012724
C56   C     C_3   0.964394 0.750339 0.073417 -0.012389
C57   C     C_3   0.514049 0.705417 0.044130 -0.471203
C58   C     C_3   0.509019 0.298210 0.043976 -0.475022
C59   C     C_3   0.016827 0.207923 0.044158 -0.467558
C60   C     C_3   0.009807 0.797650 0.043988 -0.469217
C61   C     C_3   0.558813 0.705295 0.957053 0.837452
C62   C     C_3   0.553312 0.298762 0.956887 0.850988
C63   C     C_3   0.061593 0.207868 0.957082 0.836947
C64   C     C_3   0.054104 0.798196 0.956900 0.849538
C65   C     C_1   0.422844 0.749640 0.155086 0.072147
C66   C     C_1   0.422850 0.250385 0.155085 0.067472
C67   C     C_1   0.922818 0.249701 0.155089 0.070520
C68   C     C_1   0.922841 0.750354 0.155087 0.066309
C69   C     C_1   0.578285 0.749868 0.844926 0.127343
C70   C     C_1   0.578430 0.250085 0.844922 0.070182
C71   C     C_1   0.078265 0.249938 0.844929 0.125256
C72   C     C_1   0.078423 0.750050 0.844924 0.067054
C73   C     C_1   0.611264 0.749980 0.778155 -0.059372
C74   C     C_1   0.611333 0.249989 0.778155 -0.067344
C75   C     C_1   0.111248 0.250011 0.778158 -0.063468
C76   C     C_1   0.111326 0.749973 0.778157 -0.073198
C77   C     C_3   0.806051 0.969742 0.425726 0.144658
C78   C     C_3   0.804694 0.030184 0.424360 0.123216
C79   C     C_3   0.306067 0.469822 0.425913 0.088360
C80   C     C_3   0.303875 0.530262 0.424309 0.122216
C81   C     C_3   0.686621 0.969828 0.512846 0.004187
C82   C     C_3   0.685695 0.030124 0.515649 -0.008248
C83   C     C_3   0.186524 0.469812 0.512891 0.012619
C84   C     C_3   0.185159 0.530103 0.516723 -0.035026
C85   C     C_3   0.753972 0.969815 0.564637 0.271632
C86   C     C_3   0.759136 0.029449 0.560864 0.246499
C87   C     C_3   0.253525 0.469778 0.564973 0.275126
C88   C     C_3   0.259878 0.529317 0.560280 0.236209
C89   C     C_R   0.749636 0.608695 0.499776 0.832195
C90   C     C_R   0.749694 0.391295 0.499413 0.893952
C91   C     C_R   0.250153 0.108712 0.500314 0.873128
C92   C     C_R   0.250232 0.891290 0.500622 0.951590
C93   C     C_3   0.748161 0.948902 0.502197 -0.225413
C94   C     C_3   0.748563 0.051102 0.502172 -0.241778
C95   C     C_3   0.248066 0.448903 0.502265 -0.200701
C96   C     C_3   0.248378 0.551089 0.502356 -0.209738
C97   C     C_3   0.777261 0.530454 0.419369 0.244626
C98   C     C_3   0.771663 0.470189 0.420783 0.192443
C99   C     C_3   0.320091 0.030191 0.458661 0.238934
C100  C     C_3   0.320407 0.970212 0.454504 0.207815
C101  C     C_3   0.789189 0.529429 0.524730 -0.472782
C102  C     C_3   0.793976 0.470099 0.517623 -0.452990
C103  C     C_3   0.211581 0.029628 0.580260 -0.448764
C104  C     C_3   0.215711 0.970185 0.580236 -0.478775
C105  C     C_3   0.677122 0.529975 0.552645 0.607590
C106  C     C_3   0.678559 0.469516 0.558078 0.705088
C107  C     C_3   0.222907 0.030300 0.455919 0.593758
C108  C     C_3   0.217681 0.969223 0.462533 0.682629
C109  C     C_3   0.748060 0.550954 0.499813 -0.136747
C110  C     C_3   0.748412 0.449080 0.499165 -0.104744
C111  C     C_3   0.250510 0.050961 0.499130 -0.151899
C112  C     C_3   0.250604 0.949080 0.499692 -0.105441
C113  C     C_R   0.749400 0.891298 0.500628 0.964814
C114  C     C_R   0.749304 0.108700 0.500812 0.900659
C115  C     C_R   0.249413 0.391300 0.500614 0.960510
C116  C     C_R   0.249316 0.608694 0.500807 0.956167
C117  C     C_R   0.891612 0.750405 0.499535 1.000924
C118  C     C_R   0.891578 0.249557 0.499540 0.924368
C119  C     C_R   0.391554 0.250395 0.499598 1.010366
C120  C     C_R   0.391571 0.749569 0.499555 0.931882
C121  C     C_R   0.608788 0.750377 0.499861 0.965164
C122  C     C_R   0.608777 0.249595 0.499905 0.969568
C123  C     C_R   0.108796 0.250365 0.499845 0.975417
C124  C     C_R   0.108669 0.749481 0.500175 0.976468
C125  C     C_3   0.559569 0.791940 0.440335 0.511309
C126  C     C_3   0.559339 0.207561 0.440992 0.508811
C127  C     C_3   0.059583 0.291908 0.440306 0.511477
C128  C     C_3   0.058139 0.707147 0.442710 0.530666
C129  C     C_3   0.499754 0.789011 0.439417 0.107752
C130  C     C_3   0.499548 0.210576 0.440000 0.096534
C131  C     C_3   0.999770 0.288979 0.439388 0.110407
C132  C     C_3   0.997787 0.708497 0.443150 0.077342
C133  C     C_3   0.543618 0.697033 0.475235 -0.483603
C134  C     C_3   0.543784 0.302586 0.474537 -0.597772
C135  C     C_3   0.043630 0.197004 0.475206 -0.465955
C136  C     C_3   0.044415 0.802673 0.474457 -0.577167
H1    H     H_    0.544506 0.666730 0.510347 0.204795
H2    H     H_    0.545110 0.333236 0.508867 0.225720
H3    H     H_    0.044515 0.166702 0.510318 0.213953
H4    H     H_    0.042210 0.832841 0.511727 0.229332
H5    H     H_    0.390099 0.774791 0.061269 0.159846
H6    H     H_    0.393311 0.216333 0.061704 0.158177
H7    H     H_    0.888614 0.269574 0.061261 0.156691
H8    H     H_    0.892745 0.717587 0.061702 0.154576
H9    H     H_    0.452582 0.773465 0.935358 0.205929
H10   H     H_    0.456382 0.216326 0.935836 0.202721
H11   H     H_    0.951202 0.268234 0.935351 0.204716
H12   H     H_    0.955826 0.717567 0.935834 0.201598
H13   H     H_    0.522341 0.832987 0.938676 0.076462
H14   H     H_    0.533594 0.165836 0.939258 0.076579
H15   H     H_    0.016946 0.332298 0.938625 0.074318
H16   H     H_    0.032197 0.665769 0.939240 0.074540
H17   H     H_    0.463997 0.833692 0.063860 0.102721
H18   H     H_    0.473324 0.166328 0.063694 0.091592
H19   H     H_    0.958501 0.333279 0.063812 0.095931
H20   H     H_    0.971905 0.666227 0.063678 0.085660
H21   H     H_    0.489642 0.667531 0.065871 0.204457
H22   H     H_    0.480551 0.334362 0.066049 0.206774
H23   H     H_    0.994919 0.169233 0.065925 0.205943
H24   H     H_    0.981946 0.834089 0.066071 0.208123
H25   H     H_    0.461894 0.705501 0.933614 0.262194
H26   H     H_    0.457389 0.284818 0.932951 0.263678
H27   H     H_    0.964911 0.200970 0.933626 0.259337
H28   H     H_    0.957971 0.786056 0.932948 0.261345
H29   H     H_    0.542396 0.710039 0.066890 0.224573
H30   H     H_    0.537991 0.297758 0.066278 0.222218
H31   H     H_    0.044786 0.215150 0.066909 0.225996
H32   H     H_    0.038769 0.796516 0.066286 0.224056
H33   H     H_    0.802147 0.954886 0.381110 0.103166
H34   H     H_    0.796718 0.041684 0.381676 0.107915
H35   H     H_    0.302800 0.454558 0.380995 0.108355
H36   H     H_    0.294413 0.541825 0.382914 0.107317
H37   H     H_    0.689487 0.958829 0.462301 0.162633
H38   H     H_    0.685288 0.043495 0.468055 0.176354
H39   H     H_    0.189692 0.459221 0.462033 0.161763
H40   H     H_    0.183775 0.543888 0.469975 0.179675
H41   H     H_    0.799251 0.954882 0.553161 0.215369
H42   H     H_    0.808956 0.038904 0.539701 0.221532
H43   H     H_    0.298197 0.454294 0.554583 0.213960
H44   H     H_    0.310149 0.538101 0.537831 0.226110
H45   H     H_    0.477246 0.827793 0.454183 0.195677
H46   H     H_    0.476986 0.171814 0.454844 0.188402
H47   H     H_    0.977266 0.327760 0.454154 0.193623
H48   H     H_    0.973838 0.670111 0.460957 0.142526
H49   H     H_    0.750055 0.547154 0.399193 0.081779
H50   H     H_    0.735606 0.459620 0.410482 0.105555
H51   H     H_    0.349828 0.045428 0.400581 0.122387
H52   H     H_    0.345056 0.958781 0.395084 0.135435
H53   H     H_    0.837921 0.546014 0.489725 0.279422
H54   H     H_    0.843786 0.459248 0.472641 0.287843
H55   H     H_    0.230189 0.046008 0.610583 0.267577
H56   H     H_    0.241885 0.958552 0.603952 0.273296
H57   H     H_    0.769958 0.540803 0.582523 0.166234
H58   H     H_    0.784014 0.452440 0.569224 0.183751
H59   H     H_    0.161037 0.041572 0.612631 0.185357
H60   H     H_    0.167408 0.953434 0.618067 0.202413
H61   H     H_    0.585246 0.688329 0.417627 0.252543
H62   H     H_    0.585142 0.310731 0.416563 0.241309
H63   H     H_    0.085259 0.188298 0.417599 0.259027
H64   H     H_    0.088136 0.812281 0.418847 0.233346
H65   H     H_    0.483131 0.726536 0.612171 0.205262
H66   H     H_    0.483032 0.273775 0.612037 0.208857
H67   H     H_    0.983143 0.226500 0.612139 0.202309
H68   H     H_    0.984088 0.775136 0.612325 0.202051
O1    O     O_3   0.750010 0.750010 0.500000 -0.545503
O2    O     O_3   0.750010 0.249990 0.500000 -0.549643
O3    O     O_3   0.250010 0.250010 0.500000 -0.544402
O4    O     O_3   0.250010 0.749990 0.500000 -0.546441
O5    O     O_R   0.697880 0.633160 0.542990 -0.638212
O6    O     O_R   0.697880 0.366840 0.542990 -0.583388
O7    O     O_R   0.197880 0.133160 0.542990 -0.643479
O8    O     O_R   0.197880 0.866840 0.542990 -0.633898
O9    O     O_R   0.740870 0.866870 0.457020 -0.646143
O10   O     O_R   0.740870 0.133130 0.457020 -0.646626
O11   O     O_R   0.240870 0.366870 0.457020 -0.647030
O12   O     O_R   0.240870 0.633130 0.457020 -0.643508
O13   O     O_R   0.862620 0.719400 0.336030 -0.615497
O14   O     O_R   0.862620 0.280600 0.336030 -0.606014
O15   O     O_R   0.362620 0.219400 0.336030 -0.618456
O16   O     O_R   0.362620 0.780600 0.336030 -0.613637
O17   O     O_R   0.698690 0.780630 0.663960 -0.599395
O18   O     O_R   0.698690 0.219370 0.663960 -0.607963
O19   O     O_R   0.198690 0.280630 0.663960 -0.594843
O20   O     O_R   0.198690 0.719370 0.663960 -0.606675
O21   O     O_R   0.801340 0.780670 0.336040 -0.621896
O22   O     O_R   0.801340 0.219330 0.336040 -0.626440
O23   O     O_R   0.301340 0.280670 0.336040 -0.622374
O24   O     O_R   0.301340 0.719330 0.336040 -0.623477
O25   O     O_R   0.637410 0.719360 0.663970 -0.618227
O26   O     O_R   0.637410 0.280640 0.663970 -0.610420
O27   O     O_R   0.137410 0.219360 0.663970 -0.631509
O28   O     O_R   0.137410 0.780640 0.663970 -0.626889
O29   O     O_R   0.802130 0.633170 0.457010 -0.596474
O30   O     O_R   0.802130 0.366830 0.457010 -0.601171
O31   O     O_R   0.302130 0.133170 0.457010 -0.630782
O32   O     O_R   0.302130 0.866830 0.457010 -0.611212
O33   O     O_R   0.759170 0.866860 0.542980 -0.584292
O34   O     O_R   0.759170 0.133140 0.542980 -0.583574
O35   O     O_R   0.259170 0.366860 0.542980 -0.587713
O36   O     O_R   0.259170 0.633140 0.542980 -0.588534
O37   O     O_R   0.888360 0.719380 0.456990 -0.621143
O38   O     O_R   0.888360 0.280620 0.456990 -0.603421
O39   O     O_R   0.388360 0.219380 0.456990 -0.608021
O40   O     O_R   0.388360 0.780620 0.456990 -0.600489
O41   O     O_R   0.654640 0.780660 0.457030 -0.564468
O42   O     O_R   0.654640 0.219340 0.457030 -0.565772
O43   O     O_R   0.154640 0.280660 0.457030 -0.564352
O44   O     O_R   0.154640 0.719340 0.457030 -0.572451
O45   O     O_R   0.845390 0.780640 0.542970 -0.579046
O46   O     O_R   0.845390 0.219360 0.542970 -0.584875
O47   O     O_R   0.345390 0.280640 0.542970 -0.578687
O48   O     O_R   0.345390 0.719360 0.542970 -0.583614
O49   O     O_R   0.611660 0.719380 0.543010 -0.656969
O50   O     O_R   0.611660 0.280620 0.543010 -0.647036
O51   O     O_R   0.111660 0.219380 0.543010 -0.651251
O52   O     O_R   0.111660 0.780620 0.543010 -0.644989
Zn1   Zn    Zn3+2 0.675530 0.706240 0.561430 1.020008
Zn2   Zn    Zn3+2 0.675530 0.293760 0.561430 1.055821
Zn3   Zn    Zn3+2 0.175530 0.206240 0.561430 1.018922
Zn4   Zn    Zn3+2 0.175530 0.793760 0.561430 1.036675
Zn5   Zn    Zn3+2 0.824490 0.706250 0.438570 1.037798
Zn6   Zn    Zn3+2 0.824490 0.293750 0.438570 1.048073
Zn7   Zn    Zn3+2 0.324490 0.206250 0.438570 1.045095
Zn8   Zn    Zn3+2 0.324490 0.793750 0.438570 1.057699
Zn9   Zn    Zn3+2 0.763090 0.793770 0.561410 1.115281
Zn10  Zn    Zn3+2 0.763090 0.206230 0.561410 1.081983
Zn11  Zn    Zn3+2 0.263090 0.293770 0.561410 1.117901
Zn12  Zn    Zn3+2 0.263090 0.706230 0.561410 1.091639
Zn13  Zn    Zn3+2 0.736940 0.793790 0.438590 1.060959
Zn14  Zn    Zn3+2 0.736940 0.206210 0.438590 1.042110
Zn15  Zn    Zn3+2 0.236940 0.293790 0.438590 1.061623
Zn16  Zn    Zn3+2 0.236940 0.706210 0.438590 1.056000
O53   O     O_3   0.614987 0.779494 0.369822 -0.729489
H69   H     H_    0.623571 0.808444 0.335638 0.392900
O54   O     O_3   0.614831 0.219593 0.370303 -0.730665
H70   H     H_    0.623153 0.190503 0.336475 0.392133
O55   O     O_3   0.115003 0.279458 0.369796 -0.726518
H71   H     H_    0.123590 0.308405 0.335607 0.394328
O56   O     O_3   0.112231 0.719922 0.371221 -0.703969
H72   H     H_    0.123212 0.689486 0.338545 0.380061
O57   O     O_3   0.381682 0.736349 0.634579 -0.671180
H73   H     H_    0.368978 0.750961 0.682937 0.389862
O58   O     O_3   0.381309 0.263187 0.635097 -0.669825
H74   H     H_    0.368877 0.248655 0.683413 0.393157
O59   O     O_3   0.881695 0.236317 0.634555 -0.673016
H75   H     H_    0.868990 0.250929 0.682913 0.388442
O60   O     O_3   0.883182 0.769049 0.633344 -0.678921
H76   H     H_    0.869374 0.756106 0.682933 0.391532
Br1   Br    Br    0.427316 0.639486 0.554273 -0.339806
Br2   Br    Br    0.426467 0.359696 0.554916 -0.351248
Br3   Br    Br    0.927318 0.139459 0.554234 -0.339614
Br4   Br    Br    0.930342 0.861983 0.541416 -0.300316
O61   O     O_3   0.605574 0.815906 0.926247 -0.621719
H77   H     H_    0.607562 0.854146 0.928763 0.369282
O62   O     O_3   0.613152 0.193156 0.928655 -0.611148
H78   H     H_    0.634575 0.176755 0.879013 0.354576
O63   O     O_3   0.101102 0.320282 0.926240 -0.619357
H79   H     H_    0.100604 0.358653 0.928733 0.369313
O64   O     O_3   0.112183 0.691851 0.928668 -0.609282
H80   H     H_    0.133347 0.675523 0.879015 0.355179
Br5   Br    Br    0.547486 0.819478 0.085094 -0.363183
Br6   Br    Br    0.553698 0.190156 0.086609 -0.326072
Br7   Br    Br    0.042675 0.325292 0.085098 -0.354572
Br8   Br    Br    0.052644 0.688487 0.086633 -0.327853
O65   O     O_3   0.557374 0.656862 0.928367 -0.754735
H81   H     H_    0.512648 0.645606 0.954250 0.349893
O66   O     O_3   0.545435 0.344858 0.928591 -0.744250
H82   H     H_    0.499478 0.351949 0.954966 0.351591
O67   O     O_3   0.063327 0.158504 0.928432 -0.757271
H83   H     H_    0.019399 0.145199 0.954326 0.347871
O68   O     O_3   0.046987 0.844654 0.928617 -0.751329
H84   H     H_    0.001151 0.852287 0.954997 0.349750
Br9   Br    Br    0.570346 0.863624 0.462234 -0.393042
Br10  Br    Br    0.569866 0.136011 0.463777 -0.399129
Br11  Br    Br    0.070362 0.363592 0.462197 -0.393493
Br12  Br    Br    0.069783 0.636001 0.465656 -0.425340
O69   O     O_3   0.621665 0.714376 0.933195 -0.643410
H85   H     H_    0.635505 0.683675 0.947380 0.360678
O70   O     O_3   0.617066 0.296354 0.932461 -0.657228
H86   H     H_    0.626835 0.329397 0.946734 0.360576
O71   O     O_3   0.123749 0.220253 0.933212 -0.640539
H87   H     H_    0.139530 0.190989 0.947416 0.362926
O72   O     O_3   0.117811 0.794931 0.932469 -0.655214
H88   H     H_    0.128123 0.827686 0.946750 0.362637
Br13  Br    Br    0.371594 0.679509 0.080266 -0.436635
Br14  Br    Br    0.364891 0.310095 0.079250 -0.431496
Br15  Br    Br    0.876346 0.173909 0.080286 -0.442220
Br16  Br    Br    0.865902 0.811666 0.079246 -0.438565
O73   O     O_3   0.863220 0.951475 0.412077 -0.685231
H89   H     H_    0.896047 0.953820 0.357638 0.382439
O74   O     O_3   0.863281 0.050685 0.403897 -0.692882
H90   H     H_    0.868968 0.084565 0.379564 0.329798
O75   O     O_3   0.363159 0.452386 0.413276 -0.709368
H91   H     H_    0.395773 0.452404 0.358679 0.359434
O76   O     O_3   0.362110 0.552164 0.402747 -0.717031
H92   H     H_    0.391649 0.548892 0.347884 0.353682
O77   O     O_3   0.705725 0.951118 0.635876 -0.667628
H93   H     H_    0.665428 0.968483 0.652841 0.386966
O78   O     O_3   0.721998 0.052753 0.631610 -0.669636
H94   H     H_    0.677193 0.052616 0.649498 0.375906
O79   O     O_3   0.204226 0.451842 0.636206 -0.666171
H95   H     H_    0.164737 0.470453 0.652653 0.388356
O80   O     O_3   0.224245 0.552953 0.630854 -0.670945
H96   H     H_    0.179436 0.554800 0.648950 0.374569
Br17  Br    Br    0.607862 0.934999 0.591139 -0.300319
Br18  Br    Br    0.607124 0.061595 0.599411 -0.334377
Br19  Br    Br    0.107913 0.434474 0.590555 -0.300741
Br20  Br    Br    0.106935 0.560896 0.601922 -0.348259
O81   O     O_3   0.841199 0.546029 0.370921 -0.666770
H97   H     H_    0.851620 0.547162 0.320087 0.343797
O82   O     O_3   0.830152 0.447671 0.364839 -0.676833
H98   H     H_    0.834431 0.451393 0.317451 0.337353
O83   O     O_3   0.346089 0.047267 0.496186 -0.673938
H99   H     H_    0.392943 0.047960 0.459294 0.359312
O84   O     O_3   0.353291 0.948605 0.481567 -0.681582
H100  H     H_    0.399302 0.951031 0.440843 0.356692
O85   O     O_3   0.642015 0.551618 0.625093 -0.695147
H101  H     H_    0.670166 0.557283 0.641031 0.320229
O86   O     O_3   0.656441 0.453208 0.630579 -0.702856
H102  H     H_    0.681496 0.470338 0.645597 0.323017
O87   O     O_3   0.163507 0.052621 0.481427 -0.716031
H103  H     H_    0.135782 0.053218 0.536290 0.329533
O88   O     O_3   0.153778 0.952341 0.503149 -0.714663
H104  H     H_    0.129277 0.968107 0.553180 0.327959
O89   O     O_3   0.645221 0.542532 0.519933 -0.760059
H105  H     H_    0.624206 0.576659 0.538666 0.390487
O90   O     O_3   0.637997 0.447578 0.541760 -0.713705
H106  H     H_    0.593576 0.454909 0.584476 0.407413
O91   O     O_3   0.265609 0.043644 0.380155 -0.743290
H107  H     H_    0.261762 0.081397 0.375292 0.349642
O92   O     O_3   0.249776 0.947139 0.391030 -0.742840
H108  H     H_    0.224399 0.954806 0.371524 0.402840
O93   O     O_3   0.514746 0.779899 0.367846 -0.678692
H109  H     H_    0.544137 0.750239 0.344515 0.417482
O94   O     O_3   0.514712 0.219716 0.368338 -0.667258
H110  H     H_    0.544042 0.249436 0.345129 0.417062
O95   O     O_3   0.014759 0.279865 0.367819 -0.672892
H111  H     H_    0.044159 0.250210 0.344483 0.417623
O96   O     O_3   0.013942 0.717611 0.371204 -0.678797
H112  H     H_    0.027528 0.684055 0.344340 0.369424
O97   O     O_3   0.496006 0.675393 0.412185 -0.741715
H113  H     H_    0.455544 0.667216 0.418882 0.348612
O98   O     O_3   0.493068 0.323580 0.413329 -0.761716
H114  H     H_    0.512456 0.358490 0.403197 0.368131
O99   O     O_3   0.996012 0.175370 0.412154 -0.734399
H115  H     H_    0.955549 0.167198 0.418850 0.344374
O100  O     O_3   0.998098 0.819585 0.405403 -0.688480
H116  H     H_    0.040941 0.807077 0.364935 0.394988
Br21  Br    Br    0.497663 0.814972 0.637164 -0.364547
Br22  Br    Br    0.497657 0.185529 0.638000 -0.368978
Br23  Br    Br    0.997659 0.314928 0.637162 -0.373469
Br24  Br    Br    0.996442 0.686658 0.639332 -0.376016
O101  O     O_3   0.406633 0.818834 0.592664 -0.718611
H117  H     H_    0.441998 0.843884 0.569201 0.371165
O102  O     O_3   0.406772 0.180827 0.593087 -0.723254
H118  H     H_    0.442236 0.155892 0.570067 0.372482
O103  O     O_3   0.906647 0.318804 0.592645 -0.732544
H119  H     H_    0.942015 0.343852 0.569181 0.367500
O104  O     O_3   0.903076 0.684755 0.598887 -0.733204
H120  H     H_    0.937093 0.658414 0.576174 0.368401

loop_
_geom_bond_atom_site_label_1
_geom_bond_atom_site_label_2
_ccdc_geom_bond_type
O3    Zn11  S    
C133  H1    S    
O85   H101  S    
O4    Zn4   S    
C55   C59   S    
C41   C61   S    
C116  O12   A    
C99   H51   S    
O77   H93   S    
C43   C63   S    
C125  O53   S    
O75   H91   S    
C44   C64   S    
C135  H3    S    
C52   H8    S    
C98   C110  S    
O29   Zn5   S    
C100  H52   S    
C101  H53   S    
C26   C50   S    
C135  H63   S    
C104  H56   S    
C29   C33   S    
C86   H42   S    
O33   Zn9   S    
C105  O89   S    
C7    H67   S    
C31   O63   S    
C131  O95   S    
C70   C74   T    
C9    C121  S    
C63   O67   S    
C128  O56   S    
C136  H4    S    
C122  O42   A    
O2    Zn2   S    
C24   O60   S    
O37   Zn5   S    
C99   O83   S    
C102  H58   S    
C32   O64   S    
C30   O62   S    
O1    Zn13  S    
O72   H88   S    
C8    H68   S    
C118  O46   A    
C25   C41   S    
C10   C122  S    
O27   Zn3   S    
C28   C44   S    
C35   C55   S    
C97   H49   S    
C6    C10   S    
C35   Br7   S    
O5    Zn1   S    
O84   H100  S    
C16   C20   S    
C13   C21   S    
C57   C61   S    
O1    Zn9   S    
C34   C54   S    
O2    Zn14  S    
C17   C133  S    
O97   H113  S    
C80   H36   S    
O98   H114  S    
O47   Zn11  S    
O7    Zn3   S    
C126  Br10  S    
C59   H31   S    
C2    O22   A    
C41   C69   S    
C14   C130  S    
C62   O66   S    
C47   O19   A    
C133  H61   S    
C79   O75   S    
C120  O48   A    
O42   Zn14  S    
O94   H110  S    
C121  O49   A    
C12   C128  S    
C51   H7    S    
O101  H117  S    
C59   C63   S    
C46   O18   A    
C15   C118  S    
C60   C64   S    
C81   Br17  S    
O89   H105  S    
O22   Zn14  S    
C115  O35   A    
C78   C94   S    
C49   C53   S    
C44   C72   S    
C51   C55   S    
C127  C131  S    
C136  H64   S    
O17   Zn9   S    
C29   H13   S    
O76   H92   S    
C125  C129  S    
C5    C21   S    
C14   C119  S    
O86   H102  S    
C2    O14   A    
C96   C116  S    
C101  C109  S    
C85   O77   S    
C9    C133  S    
C127  Br11  S    
C124  O44   A    
O81   H97   S    
C18   O98   S    
C114  O10   A    
O82   H98   S    
C97   C98   S    
C85   C86   S    
C61   O69   S    
C18   Br2   S    
C31   C43   S    
C32   C36   S    
C56   C60   S    
C35   H19   S    
C5    H65   S    
O18   Zn10  S    
C33   H17   S    
C20   O100  S    
O104  H120  S    
C91   O31   A    
C42   C70   S    
C97   C109  S    
C86   O78   S    
O10   Zn14  S    
O45   Zn9   S    
C26   H10   S    
C21   O57   S    
C27   H27   S    
C85   C93   S    
O3    Zn15  S    
C25   H25   S    
O4    Zn16  S    
C87   C95   S    
C107  C108  S    
C88   O80   S    
C53   C65   S    
C42   C62   S    
C82   Br18  S    
C114  O34   A    
C98   O82   S    
O3    Zn3   S    
O55   H71   S    
C17   O97   S    
O39   Zn7   S    
C27   C51   S    
O13   Zn5   S    
C30   C34   S    
C20   Br4   S    
C82   H38   S    
O34   Zn10  S    
C43   C71   S    
C106  O86   S    
C91   O7    A    
O24   Zn16  S    
C29   O61   S    
C104  C112  S    
C89   C109  S    
C89   O5    A    
C48   O20   A    
C56   C68   S    
C9    C125  S    
C81   H37   S    
C19   O99   S    
C11   C127  S    
C5    C9    S    
O61   H77   S    
C119  O47   A    
C31   H15   S    
C83   C84   S    
C32   H16   S    
C8    C12   S    
C99   C111  S    
O38   Zn6   S    
C20   C136  S    
C3    O15   A    
O71   H87   S    
O28   Zn4   S    
C92   O8    A    
C103  H55   S    
C13   C120  S    
C26   C42   S    
C105  C109  S    
O31   Zn7   S    
C29   C41   S    
C107  C111  S    
C105  O85   S    
O20   Zn12  S    
C54   C66   S    
C13   C17   S    
C45   O17   A    
C14   C22   S    
C47   C75   S    
C129  O93   S    
O103  H119  S    
C51   Br15  S    
C7    C23   S    
O52   Zn4   S    
C8    C24   S    
C18   C134  S    
C58   H30   S    
C48   C76   S    
C64   O72   S    
O49   Zn1   S    
O30   Zn6   S    
C15   C131  S    
C12   C136  S    
O58   H74   S    
C13   C129  S    
C10   C126  S    
C64   O68   S    
C118  O38   A    
C58   C62   S    
C92   O32   A    
C87   C88   S    
C88   C96   S    
C7    Br23  S    
C101  C102  S    
C52   Br16  S    
O54   H70   S    
O68   H84   S    
O83   H99   S    
C107  O87   S    
C108  O88   S    
O96   H112  S    
C77   C78   S    
C15   C19   S    
C50   C54   S    
C54   C58   S    
C30   H14   S    
C57   H29   S    
C126  C130  S    
C19   C135  S    
O92   H108  S    
C6    C22   S    
C78   O74   S    
C103  C111  S    
O63   H79   S    
C79   H35   S    
O36   Zn12  S    
C57   H21   S    
C59   H23   S    
O48   Zn12  S    
C4    O16   A    
C49   H5    S    
O88   H104  S    
C69   C73   T    
O40   Zn8   S    
C113  O9    A    
C123  O51   A    
C124  O52   A    
C121  O41   A    
C50   Br14  S    
C6    Br22  S    
C19   Br3   S    
C46   O26   A    
C103  H59   S    
C101  H57   S    
C88   H44   S    
C34   H18   S    
C27   H11   S    
C28   H12   S    
O66   H82   S    
C10   C134  S    
O15   Zn7   S    
O46   Zn10  S    
O62   H78   S    
C53   C57   S    
C92   C112  S    
O4    Zn12  S    
C26   H26   S    
C81   C82   S    
C108  C112  S    
C77   O73   S    
O64   H80   S    
C63   O71   S    
C79   C95   S    
O59   H75   S    
C36   C56   S    
C11   C135  S    
O43   Zn15  S    
O78   H94   S    
O44   Zn16  S    
C21   O101  S    
C104  H60   S    
O35   Zn11  S    
C93   C113  S    
C127  O55   S    
O21   Zn13  S    
C100  C112  S    
C31   C35   S    
C102  C110  S    
C24   O104  S    
C3    O23   A    
C36   H20   S    
O99   H115  S    
C1    O21   A    
O100  H116  S    
C107  O91   S    
C117  O45   A    
C11   C123  S    
C132  O96   S    
C122  O50   A    
C100  O84   S    
O102  H118  S    
C34   Br6   S    
O6    Zn2   S    
O3    Zn7   S    
C105  C106  S    
O4    Zn8   S    
C87   O79   S    
O56   H72   S    
C61   O65   S    
C98   H50   S    
O74   H90   S    
C49   Br13  S    
C16   C117  S    
C132  H48   S    
O80   H96   S    
C77   C93   S    
C102  H54   S    
O8    Zn4   S    
C4    O24   A    
C16   C132  S    
C25   C49   S    
C91   C111  S    
O70   H86   S    
C27   C43   S    
C4    C37   S    
C85   H41   S    
O65   H81   S    
C40   C68   T    
C103  C104  S    
C30   C42   S    
C1    O13   A    
C84   H40   S    
C22   O102  S    
O25   Zn1   S    
C123  O43   A    
C126  O54   S    
C62   O70   S    
C83   H39   S    
O73   H89   S    
C14   C18   S    
O90   H106  S    
C78   H34   S    
C72   C76   T    
C33   Br5   S    
C94   C114  S    
O1    Zn1   S    
O67   H83   S    
C7    C11   S    
O2    Zn6   S    
C60   H32   S    
O1    Zn5   S    
C97   O81   S    
C6    H66   S    
C22   O58   S    
C120  O40   A    
C47   O27   A    
O50   Zn2   S    
C89   O29   A    
O2    Zn10  S    
C80   O76   S    
C90   O30   A    
C45   C73   S    
C84   C96   S    
C131  H47   S    
C86   C94   S    
C1    C40   S    
C2    C39   S    
O26   Zn2   S    
C3    C38   S    
C95   C115  S    
C80   C96   S    
C83   Br19  S    
O19   Zn11  S    
C15   C23   S    
C16   C24   S    
O16   Zn8   S    
C45   O25   A    
C128  C132  S    
C36   Br8   S    
C33   C53   S    
O51   Zn3   S    
C115  O11   A    
C38   C66   T    
C125  Br9   S    
C58   H22   S    
C90   O6    A    
C23   O103  S    
C84   Br20  S    
C130  O94   S    
O57   H73   S    
C128  Br12  S    
C37   C65   T    
O41   Zn13  S    
C8    Br24  S    
C81   C93   S    
C99   C100  S    
C12   C124  S    
C83   C95   S    
O53   H69   S    
C32   C44   S    
C5    Br21  S    
C130  H46   S    
O95   H111  S    
C23   O59   S    
C108  O92   S    
O23   Zn15  S    
O60   H76   S    
O14   Zn6   S    
C90   C110  S    
C46   C74   S    
C28   H28   S    
O91   H107  S    
C106  C110  S    
C134  H62   S    
C129  H45   S    
C39   C67   T    
C60   H24   S    
C134  H2    S    
C55   C67   S    
O32   Zn8   S    
O87   H103  S    
C116  O36   A    
O93   H109  S    
C71   C75   T    
C28   C52   S    
C17   Br1   S    
C113  O33   A    
C106  O90   S    
O69   H85   S    
C87   H43   S    
C79   C80   S    
C48   O28   A    
C50   H6    S    
C77   H33   S    
O9    Zn13  S    
O79   H95   S    
C82   C94   S    
C25   H9    S    
O11   Zn15  S    
C119  O39   A    
O12   Zn16  S    
C52   C56   S    
C117  O37   A    
