data_mof_unit_38528.cif
_audit_creation_date              2012-12-10T17:11:01-0500
_audit_creation_method            fapswitch 2.2
_symmetry_space_group_name_H-M    P1
_symmetry_Int_Tables_number       1
_space_group_crystal_system       triclinic
_cell_length_a                    11.738624
_cell_length_b                    13.020196
_cell_length_c                    13.387564
_cell_angle_alpha                 93.049548
_cell_angle_beta                  76.745067
_cell_angle_gamma                 99.969751
_cell_volume                      1961.36440551

loop_
_atom_site_label
_atom_site_type_symbol
_atom_type_description
_atom_site_fract_x
_atom_site_fract_y
_atom_site_fract_z
_atom_type_partial_charge
C1    C     C_R   0.519970 0.700519 0.503995 0.837044
C2    C     C_R   0.442376 0.531273 0.980079 0.031540
C3    C     C_R   0.477439 0.548328 0.872832 0.079566
C4    C     C_R   0.532354 0.547441 0.037649 0.067223
C5    C     C_R   0.647172 0.601436 0.993349 0.172185
C6    C     C_R   0.671961 0.636542 0.892937 -0.241673
C7    C     C_R   0.588494 0.609825 0.833310 -0.191218
C8    C     C_R   0.513863 0.505494 0.135389 -0.215628
C9    C     C_R   0.711544 0.584495 0.150656 -0.185794
C10   C     C_R   0.398448 0.506929 0.809209 -0.099756
C11   C     C_R   0.460254 0.186595 0.513871 -0.067520
C12   C     C_R   0.437166 0.501215 0.696225 0.785999
C13   C     C_R   0.530142 0.813872 0.507449 -0.117685
C14   C     C_R   0.649894 0.981014 0.458255 0.167016
C15   C     C_R   0.639054 0.873970 0.464963 -0.228196
C16   C     C_R   0.429961 0.860789 0.549263 0.112085
C17   C     C_R   0.436544 0.969849 0.539015 0.070265
C18   C     C_R   0.548653 0.029573 0.493125 0.041695
C19   C     C_R   0.558240 0.136777 0.482377 -0.305793
C20   C     C_R   0.348944 0.129826 0.559244 0.111737
C21   C     C_R   0.336180 0.021436 0.571825 0.112795
C22   C     C_R   0.947185 0.600288 0.593570 0.060167
C23   C     C_R   0.477410 0.299525 0.502588 0.867920
C24   C     C_R   0.828443 0.590361 0.584125 0.032793
C25   C     C_R   0.855821 0.456447 0.458209 0.099639
C26   C     C_R   0.976455 0.460900 0.465814 -0.017180
C27   C     C_R   0.022339 0.535030 0.533929 0.001135
C28   C     C_R   0.142971 0.542897 0.540025 0.015236
C29   C     C_R   0.172595 0.407684 0.416180 0.160816
C30   C     C_R   0.053179 0.394802 0.408035 0.009044
C31   C     C_R   0.563405 0.506834 0.304141 0.818573
C32   C     C_R   0.735734 0.619599 0.050134 -0.192609
C33   C     C_R   0.599700 0.528286 0.194011 -0.049285
C34   C     C_R   0.280456 0.465843 0.854720 -0.208114
C35   C     C_R   0.240229 0.467683 0.960582 -0.182356
C36   C     C_R   0.318924 0.501799 0.023941 -0.007716
Cu1   Cu    Cu3+1 0.386470 0.492430 0.492410 0.977519
Cu2   Cu    Cu3+1 0.613530 0.507570 0.507590 0.943838
H1    H     H_    0.778867 0.603596 0.195143 0.158988
H2    H     H_    0.716126 0.837155 0.434278 0.181123
H3    H     H_    0.179392 0.598451 0.592083 0.166480
H4    H     H_    0.771618 0.641294 0.628031 0.119305
H5    H     H_    0.757308 0.682180 0.859362 0.134005
H6    H     H_    0.823025 0.662289 0.017269 0.136443
H7    H     H_    0.433127 0.453343 0.167061 0.168902
H8    H     H_    0.217695 0.434983 0.808188 0.165241
H9    H     H_    0.146443 0.443643 0.993238 0.148617
H10   H     H_    0.610116 0.641526 0.757333 0.154054
H11   H     H_    0.642562 0.183054 0.448295 0.179276
N1    N     N_R   0.215880 0.481050 0.481000 -0.217043
N2    N     N_R   0.784100 0.518950 0.519000 -0.226030
O1    O     O_R   0.419710 0.645650 0.494620 -0.554409
O2    O     O_R   0.611450 0.658430 0.507430 -0.608905
O3    O     O_R   0.357340 0.490460 0.641450 -0.583542
O4    O     O_R   0.549080 0.503250 0.654260 -0.585532
O5    O     O_R   0.388550 0.341570 0.492570 -0.551250
O6    O     O_R   0.580290 0.354350 0.505380 -0.597392
O7    O     O_R   0.450920 0.496750 0.345740 -0.575379
O8    O     O_R   0.642660 0.509540 0.358550 -0.587710
N3    N     N_3   0.249624 0.183358 0.595364 -0.575941
H12   H     H_    0.182179 0.152950 0.557657 0.219224
H13   H     H_    0.218437 0.172348 0.674298 0.210124
N4    N     N_3   0.764732 0.037965 0.413226 -0.595298
H14   H     H_    0.759332 0.075454 0.347723 0.235043
H15   H     H_    0.790794 0.093676 0.466331 0.221393
N5    N     N_3   0.220910 0.964912 0.616258 -0.626086
H16   H     H_    0.191292 0.993949 0.690212 0.219531
H17   H     H_    0.161796 0.974159 0.571021 0.229413
N6    N     N_3   0.325283 0.795653 0.604403 -0.580441
H18   H     H_    0.256987 0.790875 0.565338 0.270691
H19   H     H_    0.301308 0.823787 0.679559 0.242534
C37   C     C_1   0.249097 0.341850 0.353861 0.303759
N7    N     N_1   0.309163 0.288402 0.303295 -0.313637
N8    N     N_3   0.991526 0.676885 0.662774 -0.610210
H20   H     H_    0.928844 0.724959 0.693068 0.209543
H21   H     H_    0.002769 0.636918 0.724605 0.212648
N9    N     N_3   0.010611 0.313090 0.342651 -0.608786
H22   H     H_    0.022302 0.241555 0.367366 0.220735
H23   H     H_    0.060096 0.325611 0.267466 0.235347
C38   C     C_1   0.808393 0.390578 0.382219 0.387514
N10   N     N_1   0.771491 0.337874 0.320514 -0.310764
C39   C     C_1   0.266491 0.523832 0.129794 0.197967
N11   N     N_1   0.224131 0.542559 0.214199 -0.284854

loop_
_geom_bond_atom_site_label_1
_geom_bond_atom_site_label_2
_ccdc_geom_bond_type
N5    H17   S    
N4    H15   S    
C21   N5    S    
C25   C38   S    
C24   H4    S    
C14   C18   A    
C35   C36   A    
C4    C8    A    
C35   H9    S    
C23   O5    A    
N9    H22   S    
C11   C19   A    
C26   C27   A    
Cu1   Cu2   S    
N8    H21   S    
C31   O7    A    
C34   C35   A    
C3    C7    A    
C5    C6    A    
C28   H3    S    
C9    H1    S    
N3    H13   S    
C18   C19   A    
C31   O8    A    
N6    H19   S    
C1    O2    A    
C8    H7    S    
C9    C32   A    
C30   N9    S    
C28   N1    A    
Cu2   O4    S    
C36   C39   S    
C16   C17   A    
C31   C33   S    
C34   H8    S    
C20   N3    S    
Cu1   O7    S    
C5    C32   A    
C24   N2    A    
N5    H16   S    
C9    C33   A    
Cu1   O5    S    
C29   N1    A    
N9    H23   S    
C11   C20   A    
N8    H20   S    
Cu1   O1    S    
C38   N10   T    
Cu2   N2    S    
C25   C26   A    
C17   C21   A    
N4    H14   S    
N3    H12   S    
C2    C4    A    
C25   N2    A    
C29   C30   A    
Cu2   O6    S    
C19   H11   S    
C17   C18   A    
C32   H6    S    
C10   C34   A    
C10   C12   S    
Cu1   O3    S    
C26   C30   A    
C6    H5    S    
C13   C15   A    
C22   C24   A    
C1    C13   S    
C22   N8    S    
C2    C36   A    
C23   O6    A    
C16   N6    S    
C37   N7    T    
C6    C7    A    
C22   C27   A    
C7    H10   S    
C29   C37   S    
C2    C3    A    
C3    C10   A    
Cu1   N1    S    
Cu2   O2    S    
C14   N4    S    
C11   C23   S    
C8    C33   A    
N6    H18   S    
C1    O1    A    
C15   H2    S    
C12   O4    A    
Cu2   O8    S    
C4    C5    A    
C20   C21   A    
C39   N11   T    
C13   C16   A    
C27   C28   A    
C14   C15   A    
C12   O3    A    
