data_mof_unit_12583.cif
_audit_creation_date              2012-12-10T16:58:28-0500
_audit_creation_method            fapswitch 2.2
_symmetry_space_group_name_H-M    P1
_symmetry_Int_Tables_number       1
_space_group_crystal_system       triclinic
_cell_length_a                    7.866803
_cell_length_b                    8.502335
_cell_length_c                    23.38066
_cell_angle_alpha                 92.387359
_cell_angle_beta                  85.297952
_cell_angle_gamma                 91.711389
_cell_volume                      1556.67794532

loop_
_atom_site_label
_atom_site_type_symbol
_atom_type_description
_atom_site_fract_x
_atom_site_fract_y
_atom_site_fract_z
_atom_type_partial_charge
C1    C     C_R   0.542285 0.793786 0.497373 0.941243
C2    C     C_R   0.648923 0.493874 0.291955 -0.177935
C3    C     C_R   0.348347 0.522286 0.766394 -0.101285
C4    C     C_R   0.647058 0.505678 0.232988 -0.093526
C5    C     C_R   0.498394 0.492726 0.791583 0.319686
C6    C     C_R   0.494622 0.537278 0.209521 0.323158
C7    C     C_2   0.552879 0.952097 0.484415 -0.076283
C8    C     C_2   0.447116 0.047891 0.515579 -0.076414
C9    C     C_R   0.500792 0.499142 0.610494 0.881944
C10   C     C_R   0.499175 0.502128 0.389537 0.881563
C11   C     C_R   0.413357 0.407747 0.122779 0.497187
C12   C     C_R   0.457714 0.206212 0.502628 0.942699
C13   C     C_R   0.570488 0.630196 0.878243 0.497200
C14   C     C_R   0.558875 0.658138 0.119131 0.508733
C15   C     C_R   0.416793 0.383803 0.882826 0.513537
C16   C     C_R   0.557392 0.656108 0.059481 -0.057347
C17   C     C_R   0.406903 0.392673 0.942550 -0.042307
C18   C     C_R   0.478714 0.527724 0.031165 -0.043111
C19   C     C_R   0.482604 0.523078 0.970836 -0.038895
C20   C     C_R   0.397949 0.403515 0.063121 -0.055076
C21   C     C_R   0.561973 0.647957 0.938826 -0.075402
C22   C     C_R   0.630243 0.781584 0.028374 -0.175125
C23   C     C_R   0.649623 0.462882 0.757696 -0.084666
C24   C     C_R   0.318947 0.275271 0.974032 -0.198590
C25   C     C_R   0.627751 0.784183 0.968473 0.127933
C26   C     C_R   0.308482 0.280567 0.033935 0.140125
C27   C     C_3   0.689168 0.932387 0.936975 -0.302328
C28   C     C_3   0.725456 0.079886 0.974214 -0.934803
C29   C     C_3   0.191460 0.158165 0.063411 -0.350581
C30   C     C_3   0.283726 0.005834 0.070702 -0.751347
C31   C     C_R   0.344478 0.559388 0.244756 -0.099228
C32   C     C_R   0.651092 0.464333 0.698273 -0.184668
C33   C     C_R   0.345828 0.547664 0.303650 -0.177992
C34   C     C_R   0.500961 0.495807 0.672729 -0.033249
C35   C     C_R   0.497792 0.513433 0.327579 -0.032177
C36   C     C_R   0.349282 0.523684 0.707183 -0.174201
H1    H     H_    0.686931 0.879150 0.051718 0.207193
H2    H     H_    0.762727 0.487153 0.205388 0.139063
H3    H     H_    0.613250 0.108470 0.004245 0.279566
H4    H     H_    0.837599 0.062458 0.998595 0.253116
H5    H     H_    0.754475 0.181523 0.946352 0.271673
H6    H     H_    0.808217 0.906424 0.909740 0.253271
H7    H     H_    0.588421 0.965152 0.909323 0.259496
H8    H     H_    0.320902 0.950057 0.027900 0.238341
H9    H     H_    0.399740 0.028527 0.094067 0.300453
H10   H     H_    0.197354 0.922600 0.095234 0.251687
H11   H     H_    0.128774 0.203812 0.104678 0.249905
H12   H     H_    0.255113 0.178710 0.951913 0.196380
H13   H     H_    0.083358 0.129463 0.036966 0.173820
H14   H     H_    0.765764 0.440421 0.777506 0.145366
H15   H     H_    0.226478 0.582968 0.226250 0.138241
H16   H     H_    0.769160 0.441399 0.672520 0.178761
H17   H     H_    0.228049 0.564873 0.330246 0.179026
H18   H     H_    0.231741 0.548221 0.688557 0.182334
H19   H     H_    0.767819 0.468053 0.309469 0.179286
H20   H     H_    0.231833 0.546413 0.792880 0.145109
I1    I     I_    0.670358 0.998676 0.400855 -0.261265
I2    I     I_    0.329597 0.001247 0.599132 -0.261602
I3    I     I_    0.044904 0.297225 0.421737 -0.164867
I4    I     I_    0.955096 0.702759 0.578268 -0.165906
N1    N     N_R   0.488839 0.534879 0.148902 -0.352871
N2    N     N_R   0.497925 0.500857 0.852455 -0.350182
N3    N     N_2   0.950330 0.457950 0.484560 0.022088
N4    N     N_2   0.049670 0.542050 0.515440 0.022066
O1    O     O_R   0.389250 0.738570 0.503790 -0.595799
O2    O     O_2   0.651090 0.738896 0.844669 -0.573552
O3    O     O_2   0.629952 0.781811 0.147435 -0.554189
O4    O     O_2   0.346544 0.258895 0.854943 -0.552582
O5    O     O_R   0.610750 0.261430 0.496210 -0.595233
O6    O     O_R   0.678390 0.711620 0.493890 -0.592043
O7    O     O_R   0.321610 0.288380 0.506110 -0.591436
O8    O     O_R   0.355400 0.513520 0.588790 -0.609166
O9    O     O_R   0.644600 0.486480 0.411210 -0.607915
O10   O     O_R   0.644550 0.486570 0.578900 -0.616320
O11   O     O_R   0.355450 0.513430 0.421100 -0.617958
O12   O     O_2   0.359969 0.284886 0.154807 -0.552063
Zn1   Zn    Zn3+2 0.306930 0.518000 0.506610 1.054757
Zn2   Zn    Zn3+2 0.693070 0.482000 0.493390 1.055482

loop_
_geom_bond_atom_site_label_1
_geom_bond_atom_site_label_2
_ccdc_geom_bond_type
C2    C35   A    
C12   O5    A    
O6    Zn2   S    
N4    Zn1   S    
C30   H9    S    
C9    O8    A    
C7    C8    D    
C29   H13   S    
C29   C30   S    
C29   H11   S    
C6    N1    S    
C19   C21   A    
C24   C26   A    
C11   O12   S    
C10   O9    A    
C28   H4    S    
C28   H5    S    
C18   C19   A    
C3    H20   S    
C32   H16   S    
C8    I2    S    
C13   N2    A    
C22   C25   A    
C1    O1    A    
C14   O3    S    
C31   C33   A    
C10   C35   S    
C18   C20   A    
C6    C31   A    
C30   H8    S    
O5    Zn2   S    
O9    Zn2   S    
C13   O2    S    
C33   H17   S    
C11   C20   A    
C17   C24   A    
O1    Zn1   S    
C24   H12   S    
C4    C6    A    
C17   C19   A    
C23   H14   S    
C28   H3    S    
C3    C5    A    
C22   H1    S    
C32   C34   A    
C2    C4    A    
O8    Zn1   S    
C10   O11   A    
C5    C23   A    
C8    C12   S    
C13   C21   A    
O11   Zn1   S    
C12   O7    A    
C4    H2    S    
C9    C34   S    
C14   C16   A    
C9    O10   A    
O7    Zn1   S    
C15   C17   A    
C21   C25   A    
C16   C22   A    
C1    C7    S    
C30   H10   S    
C31   H15   S    
C11   N1    A    
C25   C27   S    
I3    N3    S    
C1    O6    A    
I4    N4    S    
C2    H19   S    
C23   C32   A    
C14   N1    A    
C27   H6    S    
C20   C26   A    
C3    C36   A    
C15   O4    S    
C33   C35   A    
C15   N2    A    
C5    N2    S    
C34   C36   A    
C36   H18   S    
N3    N4    D    
C27   H7    S    
C26   C29   S    
C16   C18   A    
O10   Zn2   S    
C27   C28   S    
C7    I1    S    
N3    Zn2   S    
