data_mof_unit_50689.cif
_audit_creation_date              2012-12-10T17:06:39-0500
_audit_creation_method            fapswitch 2.2
_symmetry_space_group_name_H-M    P1
_symmetry_Int_Tables_number       1
_space_group_crystal_system       triclinic
_cell_length_a                    15.858442
_cell_length_b                    11.025259
_cell_length_c                    9.887664
_cell_angle_alpha                 111.666824
_cell_angle_beta                  98.792982
_cell_angle_gamma                 90.360423
_cell_volume                      1584.05723376

loop_
_atom_site_label
_atom_site_type_symbol
_atom_type_description
_atom_site_fract_x
_atom_site_fract_y
_atom_site_fract_z
_atom_type_partial_charge
C1    C     C_R   0.493842 0.253911 0.440238 0.854776
C2    C     C_R   0.506019 0.746104 0.559779 0.856260
C3    C     C_2   0.501038 0.069742 0.516217 -0.158550
C4    C     C_2   0.498117 0.930332 0.483905 -0.154084
C5    C     C_2   0.503793 0.514292 0.081716 -0.007017
C6    C     C_2   0.491389 0.492816 0.919405 0.036489
C7    C     C_R   0.339949 0.500597 0.500644 0.823221
C8    C     C_R   0.660037 0.499408 0.499357 0.821904
C9    C     C_3   0.979942 0.401605 0.540033 0.063115
C10   C     C_3   0.019929 0.598001 0.459762 0.064338
C11   C     C_3   0.022191 0.386686 0.404541 -0.199231
C12   C     C_3   0.977695 0.612925 0.595251 -0.201406
C13   C     C_1   0.250451 0.503322 0.502108 -0.186985
C14   C     C_1   0.749500 0.496600 0.497845 -0.195030
C15   C     C_3   0.042043 0.521321 0.636533 -0.206992
C16   C     C_3   0.957841 0.478272 0.363262 -0.204857
C17   C     C_3   0.083163 0.507068 0.500609 0.136812
C18   C     C_3   0.916729 0.492554 0.499186 0.137686
C19   C     C_1   0.174918 0.505760 0.501955 -0.085317
C20   C     C_1   0.825005 0.494032 0.497902 -0.088289
C21   C     C_2   0.490382 0.113987 0.406557 -0.360286
C22   C     C_2   0.509107 0.886061 0.593530 -0.363999
Cu1   Cu    Cu3+1 0.514700 0.521810 0.644910 0.940808
Cu2   Cu    Cu3+1 0.485300 0.478190 0.355090 0.967582
H1    H     H_    0.041009 0.293529 0.325938 0.133787
H2    H     H_    0.958874 0.706082 0.673848 0.132605
H3    H     H_    0.922682 0.459915 0.250706 0.139617
H4    H     H_    0.077180 0.539652 0.749092 0.140559
H5    H     H_    0.486942 0.863456 0.369012 0.183538
H6    H     H_    0.512178 0.136624 0.631101 0.177196
H7    H     H_    0.520308 0.953202 0.708245 0.145321
H8    H     H_    0.479195 0.046859 0.291848 0.146731
H9    H     H_    0.443240 0.419525 0.843093 0.121797
H10   H     H_    0.552736 0.587072 0.156889 0.161240
N1    N     N_2   0.463210 0.445420 0.137360 -0.074506
N2    N     N_2   0.536790 0.554580 0.862640 -0.081333
O1    O     O_R   0.507840 0.332340 0.577400 -0.588048
O2    O     O_R   0.492160 0.667660 0.422600 -0.589275
O3    O     O_R   0.483020 0.295500 0.332650 -0.568563
O4    O     O_R   0.516980 0.704500 0.667350 -0.588541
O5    O     O_R   0.391490 0.518400 0.622350 -0.589396
O6    O     O_R   0.608510 0.481600 0.377650 -0.583261
O7    O     O_R   0.366660 0.481570 0.377600 -0.544130
O8    O     O_R   0.633340 0.518430 0.622400 -0.572482
C23   C     C_R   0.966150 0.287374 0.585238 0.101118
C24   C     C_R   0.037705 0.231433 0.635331 -0.166211
C25   C     C_R   0.027162 0.125264 0.677714 -0.107817
C26   C     C_R   0.945153 0.073116 0.669098 -0.095502
C27   C     C_R   0.873624 0.126985 0.617842 -0.150940
C28   C     C_R   0.883891 0.233591 0.575940 -0.151289
H11   H     H_    0.101750 0.270138 0.641617 0.126488
H12   H     H_    0.082611 0.082739 0.716077 0.129056
H13   H     H_    0.937067 0.990260 0.700826 0.118150
H14   H     H_    0.810102 0.085769 0.609982 0.131350
H15   H     H_    0.827500 0.271943 0.535088 0.135286
C29   C     C_R   0.033672 0.712138 0.414402 0.102107
C30   C     C_R   0.962133 0.766755 0.362106 -0.167841
C31   C     C_R   0.972680 0.872714 0.319377 -0.110881
C32   C     C_R   0.054657 0.925964 0.329832 -0.094637
C33   C     C_R   0.126142 0.873510 0.383445 -0.150834
C34   C     C_R   0.115875 0.767140 0.425747 -0.148830
H16   H     H_    0.898102 0.727140 0.354272 0.126108
H17   H     H_    0.917250 0.914174 0.279242 0.127828
H18   H     H_    0.062738 0.008636 0.297791 0.118800
H19   H     H_    0.189618 0.915666 0.392852 0.131449
H20   H     H_    0.172191 0.729913 0.468550 0.134926
N3    N     N_2   0.597070 0.651245 0.957319 -0.349069
H21   H     H_    0.602167 0.727712 0.922295 0.276738
C35   C     C_3   0.679908 0.603334 0.987255 -0.654799
H22   H     H_    0.722774 0.684186 0.072915 0.198342
H23   H     H_    0.709284 0.566559 0.885908 0.245346
H24   H     H_    0.674129 0.523211 0.028568 0.219098
N4    N     N_2   0.392144 0.365258 0.051764 -0.297400
H25   H     H_    0.351793 0.403990 0.988212 0.223221
C36   C     C_3   0.410184 0.230827 0.975764 -0.623137
H26   H     H_    0.349529 0.171920 0.915624 0.195559
H27   H     H_    0.440717 0.188841 0.055619 0.248613
H28   H     H_    0.453332 0.224302 0.895225 0.185800

loop_
_geom_bond_atom_site_label_1
_geom_bond_atom_site_label_2
_ccdc_geom_bond_type
C1    C21   S    
C35   H24   S    
Cu2   O6    S    
N4    H25   S    
C30   C31   A    
N2    N3    S    
C30   H16   S    
C23   C24   A    
C9    C23   S    
C32   H18   S    
C8    O6    A    
C5    C6    S    
C11   H1    S    
C10   C17   S    
C27   H14   S    
Cu2   O3    S    
C29   C30   A    
C35   H23   S    
C36   H27   S    
C34   H20   S    
C11   C17   S    
C2    C22   S    
Cu2   O2    S    
Cu1   Cu2   S    
C7    O7    A    
C10   C29   S    
C4    H5    S    
C1    O1    A    
C16   H3    S    
C32   C33   A    
N4    C36   S    
C26   H13   S    
C21   H8    S    
Cu2   N1    S    
C22   H7    S    
C13   C19   T    
N3    H21   S    
C14   C20   T    
C31   C32   A    
Cu1   O1    S    
C24   H11   S    
Cu1   O8    S    
C12   H2    S    
C33   C34   A    
N3    C35   S    
C3    H6    S    
C36   H26   S    
C4    C22   D    
C11   C16   S    
C2    O2    A    
C25   C26   A    
C12   C15   S    
C5    H10   S    
C9    C11   S    
C10   C12   S    
C26   C27   A    
C33   H19   S    
Cu1   N2    S    
C3    C21   D    
C3    C4    S    
C31   H17   S    
C15   C17   S    
C24   C25   A    
N1    N4    S    
C8    C14   S    
C8    O8    A    
C25   H12   S    
C28   H15   S    
Cu1   O5    S    
C6    H9    S    
C9    C15   S    
C10   C16   S    
C15   H4    S    
C23   C28   A    
C5    N1    D    
C17   C19   S    
C6    N2    D    
C18   C20   S    
C7    O5    A    
C35   H22   S    
C36   H28   S    
C1    O3    A    
C2    O4    A    
C9    C18   S    
C7    C13   S    
C16   C18   S    
C27   C28   A    
C12   C18   S    
Cu2   O7    S    
C29   C34   A    
Cu1   O4    S    
