data_mof_unit_33043.cif
_audit_creation_date              2012-12-10T19:48:00-0500
_audit_creation_method            fapswitch 2.2
_symmetry_space_group_name_H-M    P1
_symmetry_Int_Tables_number       1
_space_group_crystal_system       triclinic
_cell_length_a                    14.986301
_cell_length_b                    14.132756
_cell_length_c                    10.651693
_cell_angle_alpha                 90.00364
_cell_angle_beta                  90.014913
_cell_angle_gamma                 89.926957
_cell_volume                      2256.00254114

loop_
_atom_site_label
_atom_site_type_symbol
_atom_type_description
_atom_site_fract_x
_atom_site_fract_y
_atom_site_fract_z
_atom_type_partial_charge
C1    C     C_R   0.327672 0.500063 0.499058 0.832372
C2    C     C_R   0.672329 0.499955 0.499002 0.832180
C3    C     C_R   0.048131 0.501001 0.478244 0.111337
C4    C     C_R   0.951874 0.499294 0.478280 0.111416
C5    C     C_R   0.451596 0.104403 0.408460 0.372099
C6    C     C_R   0.571030 0.895734 0.445143 0.371506
C7    C     C_R   0.548492 0.104026 0.590592 0.371167
C8    C     C_R   0.428875 0.896116 0.553783 0.370818
C9    C     C_R   0.451082 0.204654 0.412837 -0.153440
C10   C     C_R   0.570021 0.795420 0.448940 -0.151490
C11   C     C_R   0.548930 0.204263 0.586885 -0.152414
C12   C     C_R   0.429921 0.795775 0.550651 -0.151587
C13   C     C_R   0.500055 0.053301 0.499400 0.041676
C14   C     C_R   0.499966 0.946746 0.499355 0.045468
C15   C     C_R   0.499993 0.499990 0.260642 0.883703
C16   C     C_R   0.500028 0.499995 0.739372 0.880044
C17   C     C_R   0.660224 0.543068 0.130641 -0.159487
C18   C     C_R   0.339631 0.457528 0.869482 -0.156952
C19   C     C_R   0.660486 0.542160 0.869649 -0.152170
C20   C     C_R   0.339865 0.456596 0.130471 -0.160940
C21   C     C_R   0.738449 0.563542 0.065467 -0.148059
C22   C     C_R   0.261535 0.436580 0.934757 -0.140746
C23   C     C_R   0.738602 0.562994 0.935009 -0.136878
C24   C     C_R   0.261672 0.436026 0.065213 -0.142832
C25   C     C_R   0.580101 0.521740 0.934551 0.066810
C26   C     C_R   0.420049 0.477777 0.065511 0.068779
C27   C     C_R   0.580023 0.521996 0.065596 0.071496
C28   C     C_R   0.419986 0.478049 0.934467 0.067230
C29   C     C_R   0.500033 0.499956 0.871585 -0.198419
C30   C     C_R   0.500018 0.499942 0.128454 -0.194854
C31   C     C_R   0.092561 0.580030 0.526616 -0.174543
C32   C     C_R   0.907506 0.420198 0.526524 -0.176043
C33   C     C_R   0.904313 0.578220 0.435707 -0.182006
C34   C     C_R   0.095634 0.422079 0.435548 -0.183156
C35   C     C_R   0.184548 0.579835 0.533285 -0.187852
C36   C     C_R   0.815523 0.420302 0.533133 -0.188451
C37   C     C_R   0.812354 0.578709 0.443388 -0.203556
C38   C     C_R   0.187589 0.421493 0.443297 -0.204148
C39   C     C_R   0.231942 0.500245 0.492624 -0.027721
C40   C     C_R   0.768061 0.499862 0.492547 -0.027803
H1    H     H_    0.201003 0.420025 0.116090 0.141000
H2    H     H_    0.799425 0.578454 0.884222 0.141035
H3    H     H_    0.200736 0.421041 0.883906 0.141166
H4    H     H_    0.799129 0.579467 0.116410 0.139899
H5    H     H_    0.663489 0.543563 0.231992 0.129637
H6    H     H_    0.336140 0.457814 0.768111 0.134419
H7    H     H_    0.663983 0.541880 0.768278 0.133956
H8    H     H_    0.336587 0.456086 0.231820 0.130561
H9    H     H_    0.056048 0.640760 0.561617 0.136154
H10   H     H_    0.944066 0.359471 0.561450 0.137344
H11   H     H_    0.938360 0.639210 0.397068 0.135809
H12   H     H_    0.061538 0.361149 0.396792 0.137130
H13   H     H_    0.218423 0.640937 0.571984 0.148182
H14   H     H_    0.781696 0.359148 0.571731 0.157581
H15   H     H_    0.775978 0.640024 0.409877 0.146352
H16   H     H_    0.223930 0.360180 0.409708 0.156074
H17   H     H_    0.411399 0.244591 0.346566 0.148795
H18   H     H_    0.625494 0.755487 0.411529 0.144779
H19   H     H_    0.588569 0.243837 0.653475 0.150140
H20   H     H_    0.374391 0.756111 0.588114 0.145851
N1    N     N_R   0.500000 0.252470 0.500000 -0.119132
N2    N     N_R   0.500000 0.747530 0.500000 -0.117135
O1    O     O_R   0.369060 0.579480 0.500010 -0.619654
O2    O     O_R   0.630940 0.420520 0.499990 -0.612010
O3    O     O_R   0.630940 0.579480 0.499990 -0.629870
O4    O     O_R   0.369060 0.420520 0.500010 -0.622305
O5    O     O_R   0.499990 0.579480 0.316780 -0.609450
O6    O     O_R   0.500010 0.420520 0.683220 -0.619434
O7    O     O_R   0.500010 0.579480 0.683220 -0.609442
O8    O     O_R   0.499990 0.420520 0.316780 -0.619891
Zn1   Zn    Zn3+2 0.500000 0.606140 0.500000 0.947189
Zn2   Zn    Zn3+2 0.500000 0.393860 0.500000 0.944079
O9    O     O_3   0.401010 0.055251 0.321362 -0.583231
C41   C     C_3   0.429564 0.077667 0.198519 0.094608
H21   H     H_    0.503819 0.079258 0.190887 0.129400
H22   H     H_    0.401840 0.147219 0.169035 0.144519
C42   C     C_3   0.395163 0.002594 0.108523 -0.836472
H23   H     H_    0.321287 0.998366 0.114235 0.267248
H24   H     H_    0.414405 0.020947 0.010938 0.203355
H25   H     H_    0.424177 0.932593 0.132843 0.251134
O10   O     O_3   0.643240 0.945254 0.397360 -0.585523
C43   C     C_3   0.658536 0.919831 0.270898 0.089011
H26   H     H_    0.595162 0.915798 0.216120 0.133945
H27   H     H_    0.694016 0.850815 0.265682 0.140261
C44   C     C_3   0.717534 0.994371 0.210221 -0.812904
H28   H     H_    0.781014 0.001180 0.263275 0.267287
H29   H     H_    0.733107 0.973550 0.112170 0.206914
H30   H     H_    0.682697 0.063795 0.209553 0.245728
O11   O     O_3   0.599112 0.054557 0.677420 -0.583052
C45   C     C_3   0.569448 0.075500 0.800216 0.094046
H31   H     H_    0.495136 0.076497 0.806819 0.129701
H32   H     H_    0.596297 0.144973 0.831283 0.142895
C46   C     C_3   0.603855 0.999750 0.889342 -0.835850
H33   H     H_    0.575616 0.929809 0.863344 0.251555
H34   H     H_    0.583784 0.016955 0.986989 0.203557
H35   H     H_    0.677799 0.996070 0.884567 0.267124
O12   O     O_3   0.356578 0.946053 0.600926 -0.585343
C47   C     C_3   0.340639 0.920883 0.727293 0.087967
H36   H     H_    0.403767 0.916029 0.782533 0.133132
H37   H     H_    0.304520 0.852334 0.732230 0.141104
C48   C     C_3   0.282104 0.996211 0.787523 -0.813393
H38   H     H_    0.218814 0.003705 0.734147 0.267358
H39   H     H_    0.266128 0.975721 0.885549 0.207151
H40   H     H_    0.317492 0.065226 0.788197 0.245405

loop_
_geom_bond_atom_site_label_1
_geom_bond_atom_site_label_2
_ccdc_geom_bond_type
C42   H23   S    
C46   H33   S    
C35   H13   S    
O9    C41   S    
C19   C23   A    
C2    O3    A    
O12   C47   S    
C44   H28   S    
C7    C11   A    
C48   H38   S    
C23   H2    S    
C41   H22   S    
C15   C30   S    
C9    N1    A    
C32   C36   A    
C28   C29   A    
C10   H18   S    
C17   H5    S    
C37   C40   A    
C38   C39   A    
C47   H36   S    
C19   H7    S    
C42   H25   S    
O5    Zn1   S    
C7    O11   S    
C1    O1    A    
O7    Zn1   S    
O4    Zn2   S    
C20   C24   A    
C41   C42   S    
C16   O6    A    
C5    C13   A    
O6    Zn2   S    
C44   H29   S    
C46   H34   S    
C6    O10   S    
C18   C22   A    
C13   C14   S    
C27   C30   A    
C24   H1    S    
C10   N2    A    
C31   H9    S    
C11   H19   S    
C18   H6    S    
C2    O2    A    
O10   C43   S    
C42   H24   S    
C25   C29   A    
C41   H21   S    
C17   C27   A    
C36   C40   A    
C18   C28   A    
C3    C34   A    
C16   C29   S    
O3    Zn1   S    
C33   C37   A    
C12   H20   S    
C35   C39   A    
C8    O12   S    
C5    C9    A    
C6    C14   A    
C21   H4    S    
C12   N2    A    
C45   H32   S    
C22   H3    S    
C8    C12   A    
C15   O5    A    
C1    O4    A    
C20   H8    S    
C3    C31   A    
C32   H10   S    
C4    C32   A    
N1    Zn2   S    
O1    Zn1   S    
C26   C30   A    
C46   H35   S    
C43   H27   S    
C21   C23   A    
C22   C24   A    
C33   H11   S    
C3    C4    S    
C47   C48   S    
C45   C46   S    
C44   H30   S    
C15   O8    A    
C4    C33   A    
C8    C14   A    
C34   C38   A    
C34   H12   S    
C16   O7    A    
C11   N1    A    
C6    C10   A    
C25   C27   A    
C43   C44   S    
C26   C28   A    
C45   H31   S    
C20   C26   A    
C31   C35   A    
N2    Zn1   S    
C9    H17   S    
O2    Zn2   S    
C5    O9    S    
C19   C25   A    
C47   H37   S    
C17   C21   A    
C36   H14   S    
C1    C39   S    
C37   H15   S    
C2    C40   S    
C7    C13   A    
C38   H16   S    
C48   H39   S    
C43   H26   S    
O8    Zn2   S    
C48   H40   S    
O11   C45   S    
