data_mof_unit_23837.cif
_audit_creation_date              2012-12-10T16:44:46-0500
_audit_creation_method            fapswitch 2.2
_symmetry_space_group_name_H-M    P1
_symmetry_Int_Tables_number       1
_space_group_crystal_system       triclinic
_cell_length_a                    15.21737
_cell_length_b                    8.799808
_cell_length_c                    7.720178
_cell_angle_alpha                 102.452937
_cell_angle_beta                  96.05827
_cell_angle_gamma                 97.197585
_cell_volume                      992.112047835

loop_
_atom_site_label
_atom_site_type_symbol
_atom_type_description
_atom_site_fract_x
_atom_site_fract_y
_atom_site_fract_z
_atom_type_partial_charge
C1    C     C_R   0.497913 0.201060 0.453968 0.891432
C2    C     C_R   0.502168 0.798964 0.546045 0.893139
C3    C     C_R   0.008532 0.220266 0.338824 0.032603
C4    C     C_R   0.991392 0.780178 0.660972 0.032470
C5    C     C_2   0.491710 0.032080 0.429997 -0.262489
C6    C     C_2   0.508434 0.967965 0.570044 -0.259599
C7    C     C_R   0.328977 0.490929 0.496846 0.933042
C8    C     C_R   0.671015 0.509167 0.503182 0.932919
C9    C     C_R   0.830523 0.654672 0.567619 0.348011
C10   C     C_R   0.169406 0.345630 0.432209 0.347819
C11   C     C_R   0.768841 0.512456 0.509727 -0.139455
C12   C     C_R   0.231144 0.487767 0.490412 -0.139669
C13   C     C_R   0.799644 0.368453 0.455299 -0.104609
C14   C     C_R   0.200392 0.631767 0.545431 -0.104660
C15   C     C_R   0.890573 0.366035 0.438750 0.031087
C16   C     C_R   0.109420 0.634262 0.561607 0.031034
C17   C     C_R   0.953678 0.503819 0.504750 0.046698
C18   C     C_R   0.046294 0.496538 0.495365 0.046803
C19   C     C_R   0.924565 0.648107 0.580865 -0.078171
C20   C     C_R   0.075380 0.352276 0.419060 -0.078242
C21   C     C_R   0.919146 0.227912 0.354542 -0.104241
C22   C     C_R   0.080805 0.772447 0.645580 -0.104524
Cu1   Cu    Cu3+1 0.510010 0.517380 0.684380 1.176170
Cu2   Cu    Cu3+1 0.489990 0.482620 0.315620 1.175818
H1    H     H_    0.870887 0.125839 0.287561 0.180698
H2    H     H_    0.129027 0.874603 0.712468 0.180759
H3    H     H_    0.469231 0.959682 0.296128 0.204325
H4    H     H_    0.530835 0.040371 0.703946 0.204165
N1    N     N_2   0.474890 0.456420 0.038520 0.053511
N2    N     N_2   0.525110 0.543580 0.961480 0.053809
O1    O     O_R   0.506510 0.286130 0.619770 -0.523600
O2    O     O_R   0.493490 0.713870 0.380230 -0.523908
O3    O     O_R   0.489600 0.256770 0.308360 -0.590035
O4    O     O_R   0.510400 0.743230 0.691640 -0.589872
O5    O     O_R   0.378710 0.514640 0.655720 -0.552491
O6    O     O_R   0.621290 0.485360 0.344280 -0.552539
O7    O     O_R   0.361800 0.485290 0.344300 -0.519735
O8    O     O_R   0.638200 0.514710 0.655700 -0.519485
S1    S     S_3+6 0.789946 0.838240 0.585635 0.032754
O9    O     O_2   0.790891 0.921145 0.777411 -0.312827
O10   O     O_2   0.846969 0.940824 0.495669 -0.253689
O11   O     O_3   0.685579 0.813435 0.486038 -0.505528
H5    H     H_    0.670452 0.920668 0.508483 0.398148
S2    S     S_3+6 0.209885 0.161943 0.413813 0.033178
O12   O     O_2   0.152832 0.059194 0.503557 -0.252468
O13   O     O_2   0.208883 0.079319 0.221914 -0.313520
O14   O     O_3   0.314248 0.186513 0.513362 -0.504924
H6    H     H_    0.329701 0.079509 0.488588 0.398039
C23   C     C_2   0.736305 0.220046 0.426569 0.403394
H7    H     H_    0.727970 0.130242 0.302929 0.105837
O15   O     O_2   0.693166 0.197978 0.545608 -0.557040
C24   C     C_2   0.263878 0.780162 0.575493 0.404672
H8    H     H_    0.272093 0.869367 0.699611 0.105964
O16   O     O_2   0.307271 0.802910 0.457064 -0.558136
C25   C     C_2   0.024873 0.079330 0.213013 0.496017
H9    H     H_    0.063016 0.093252 0.105796 0.114384
O17   O     O_2   0.994274 0.947750 0.226187 -0.489347
C26   C     C_2   0.974988 0.921339 0.786324 0.496428
H10   H     H_    0.936783 0.907704 0.893526 0.114467
O18   O     O_2   0.005623 0.052797 0.772822 -0.489332
S3    S     S_3+6 0.383024 0.314855 0.939246 0.174215
O19   O     O_2   0.307135 0.383304 0.861080 -0.215501
O20   O     O_2   0.407914 0.183001 0.806446 -0.333154
O21   O     O_3   0.342471 0.231706 0.096097 -0.447451
H11   H     H_    0.349660 0.119166 0.062462 0.364802
S4    S     S_3+6 0.616873 0.685379 0.060699 0.173924
O22   O     O_2   0.591740 0.817311 0.192996 -0.334969
O23   O     O_2   0.692770 0.617306 0.139414 -0.215188
O24   O     O_3   0.657540 0.768265 0.903744 -0.447330
H12   H     H_    0.650527 0.880891 0.937361 0.365193

loop_
_geom_bond_atom_site_label_1
_geom_bond_atom_site_label_2
_ccdc_geom_bond_type
C17   C18   A    
S3    O21   S    
S4    O23   D    
C25   H9    S    
Cu2   O2    S    
C14   C24   S    
N1    N2    D    
C14   C16   A    
Cu1   O8    S    
C4    C22   A    
C9    S1    S    
C18   C20   A    
Cu2   O3    S    
C1    C5    S    
S2    O14   S    
C15   C21   A    
Cu1   Cu2   S    
Cu1   O4    S    
O21   H11   S    
C2    O4    A    
C23   O15   D    
C13   C15   A    
S4    O22   D    
C7    O7    A    
C1    O3    A    
C3    C20   A    
S1    O10   D    
N2    S4    S    
C24   H8    S    
C9    C11   A    
C7    O5    A    
Cu2   O6    S    
C10   C12   A    
C8    O8    A    
C8    C11   S    
C13   C23   S    
C5    C6    D    
C16   C18   A    
C17   C19   A    
C24   O16   D    
Cu2   O7    S    
S1    O11   S    
Cu1   O5    S    
O24   H12   S    
C25   O17   D    
C8    O6    A    
S3    O19   D    
N1    S3    S    
C7    C12   S    
C3    C21   A    
C11   C13   A    
O11   H5    S    
C10   S2    S    
S4    O24   S    
Cu1   N2    S    
C1    O1    A    
S2    O12   D    
C2    O2    A    
C23   H7    S    
C22   H2    S    
C4    C26   S    
S1    O9    D    
C15   C17   A    
C21   H1    S    
Cu2   N1    S    
O14   H6    S    
C16   C22   A    
S2    O13   D    
C10   C20   A    
C26   H10   S    
C5    H3    S    
C4    C19   A    
C26   O18   D    
C9    C19   A    
S3    O20   D    
C6    H4    S    
C2    C6    S    
C12   C14   A    
C3    C25   S    
Cu1   O1    S    
