data_mof_unit_25405.cif
_audit_creation_date              2012-12-10T20:26:25-0500
_audit_creation_method            fapswitch 2.2
_symmetry_space_group_name_H-M    P1
_symmetry_Int_Tables_number       1
_space_group_crystal_system       triclinic
_cell_length_a                    10.720651
_cell_length_b                    10.70091
_cell_length_c                    9.913072
_cell_angle_alpha                 88.933528
_cell_angle_beta                  90.650025
_cell_angle_gamma                 90.830312
_cell_volume                      1136.8486153

loop_
_atom_site_label
_atom_site_type_symbol
_atom_type_description
_atom_site_fract_x
_atom_site_fract_y
_atom_site_fract_z
_atom_type_partial_charge
C1    C     C_R   0.506064 0.260140 0.500896 0.883554
C2    C     C_R   0.531852 0.129624 0.499919 -0.140980
C3    C     C_R   0.541150 0.069939 0.375692 -0.270765
C4    C     C_R   0.540737 0.940493 0.371648 0.091261
C5    C     C_R   0.531462 0.871852 0.494671 -0.110046
C6    C     C_R   0.551060 0.933617 0.615875 0.038739
C7    C     C_3   0.486933 0.920060 0.748620 -0.456396
C8    C     C_3   0.489676 0.061960 0.752411 -0.101134
C9    C     C_R   0.396453 0.463014 0.070393 0.133928
C10   C     C_R   0.594200 0.555855 0.073127 0.158579
C11   C     C_R   0.595426 0.554647 0.929433 0.045837
C12   C     C_R   0.262760 0.500779 0.499267 0.934912
C13   C     C_R   0.395495 0.465116 0.928464 0.179843
C14   C     C_3   0.326657 0.343143 0.924674 -0.120611
C15   C     C_3   0.329593 0.340248 0.078751 -0.543762
C16   C     C_R   0.506120 0.740124 0.498436 0.886369
C17   C     C_R   0.737120 0.494437 0.500885 0.925887
C18   C     C_2   0.931735 0.466680 0.390056 -0.153731
C19   C     C_2   0.868035 0.475448 0.504234 -0.337469
C20   C     C_2   0.066113 0.461851 0.392791 -0.169997
C21   C     C_2   0.130863 0.505697 0.497842 -0.313210
C22   C     C_R   0.553155 0.061460 0.618642 0.086257
H1    H     H_    0.380216 0.268673 0.878103 0.181046
H2    H     H_    0.236599 0.347553 0.125875 0.191771
H3    H     H_    0.910980 0.465558 0.603337 0.145861
H4    H     H_    0.538538 0.121988 0.280876 0.173374
H5    H     H_    0.546429 0.873413 0.826588 0.203448
H6    H     H_    0.395452 0.103672 0.748465 0.162287
N1    N     N_R   0.499170 0.499140 0.142800 -0.118892
N2    N     N_R   0.499170 0.499180 0.857150 -0.143248
O1    O     O_R   0.500020 0.316790 0.614690 -0.628136
O2    O     O_R   0.500000 0.316760 0.385350 -0.624660
O3    O     O_R   0.319080 0.500020 0.614640 -0.598577
O4    O     O_R   0.319070 0.499980 0.385300 -0.613776
O5    O     O_R   0.500000 0.683240 0.614650 -0.638624
O6    O     O_R   0.499980 0.683210 0.385310 -0.575689
O7    O     O_R   0.680930 0.500020 0.614700 -0.650920
O8    O     O_R   0.680920 0.499980 0.385360 -0.592785
Zn1   Zn    Zn3+2 0.500010 0.500020 0.653130 0.926599
Zn2   Zn    Zn3+2 0.499990 0.499980 0.346870 0.964489
H7    H     H_    0.885575 0.464650 0.292180 0.166932
N3    N     N_3   0.570758 0.110079 0.860324 -0.465310
H8    H     H_    0.658245 0.068072 0.857149 0.195238
H9    H     H_    0.586304 0.205464 0.841762 0.202578
N4    N     N_3   0.693219 0.616429 0.145572 -0.381111
H10   H     H_    0.697049 0.710087 0.114001 0.180338
H11   H     H_    0.777052 0.575473 0.118704 0.161871
N5    N     N_3   0.699978 0.611940 0.863574 -0.490057
H12   H     H_    0.669503 0.668626 0.783585 0.238809
H13   H     H_    0.758805 0.541948 0.831290 0.206046
N6    N     N_3   0.201261 0.356144 0.866513 -0.430458
H14   H     H_    0.152350 0.272502 0.885252 0.184454
H15   H     H_    0.153498 0.427009 0.914747 0.187531
H16   H     H_    0.389173 0.265014 0.122037 0.204606
H17   H     H_    0.112139 0.425478 0.305120 0.157634
H18   H     H_    0.088569 0.547523 0.584557 0.144907
N7    N     N_3   0.539908 0.881431 0.242986 -0.422254
H19   H     H_    0.461330 0.911389 0.188639 0.185739
H20   H     H_    0.618915 0.912423 0.190515 0.173899
H21   H     H_    0.390862 0.880350 0.738879 0.187978

loop_
_geom_bond_atom_site_label_1
_geom_bond_atom_site_label_2
_ccdc_geom_bond_type
C4    N7    S    
C2    C22   A    
C21   H18   S    
C8    C22   S    
C6    C7    S    
N6    H14   S    
C7    H21   S    
O5    Zn1   S    
C14   N6    S    
C9    N1    A    
C10   N4    S    
N5    H13   S    
C2    C3    A    
C11   N5    S    
C7    C8    S    
O7    Zn1   S    
C17   O7    A    
C13   C14   S    
C16   O6    A    
O8    Zn2   S    
C10   N1    A    
N7    H19   S    
O3    Zn1   S    
N3    H9    S    
C20   H17   S    
O4    Zn2   S    
N1    Zn2   S    
C15   H2    S    
C17   C19   S    
C14   H1    S    
O1    Zn1   S    
N2    Zn1   S    
C18   C19   D    
C18   C20   S    
C17   O8    A    
O2    Zn2   S    
C16   O5    A    
C9    C15   S    
C5    C6    A    
C8    H6    S    
N7    H20   S    
C10   C11   A    
C19   H3    S    
C12   O4    A    
C3    C4    A    
C6    C22   A    
C15   H16   S    
C13   N2    A    
C1    O1    A    
C7    H5    S    
C20   C21   D    
C1    C2    S    
N3    H8    S    
N4    H11   S    
C3    H4    S    
C9    C13   A    
C14   C15   S    
N5    H12   S    
O6    Zn2   S    
N6    H15   S    
C12   O3    A    
N4    H10   S    
C12   C21   S    
C1    O2    A    
C18   H7    S    
C11   N2    A    
C8    N3    S    
C4    C5    A    
C5    C16   S    
