data_mof_unit_67773.cif
_audit_creation_date              2013-03-05T15:40:34-0500
_audit_creation_method            fapswitch 2.2
_symmetry_space_group_name_H-M    P1
_symmetry_Int_Tables_number       1
_space_group_crystal_system       triclinic
_cell_length_a                    7.98369
_cell_length_b                    8.515382
_cell_length_c                    10.907832
_cell_angle_alpha                 98.193058
_cell_angle_beta                  83.273294
_cell_angle_gamma                 93.001488
_cell_volume                      728.458432255

loop_
_atom_site_label
_atom_site_type_symbol
_atom_site_description
_atom_site_fract_x
_atom_site_fract_y
_atom_site_fract_z
_atom_type_partial_charge
O1    O     O_R   0.389250 0.738570 0.508280 -0.538059
O2    O     O_R   0.610750 0.261430 0.491720 -0.565263
O3    O     O_R   0.678390 0.711630 0.486650 -0.542169
O4    O     O_R   0.321610 0.288370 0.513350 -0.535233
C1    C     C_R   0.543552 0.799288 0.511187 0.936286
C2    C     C_R   0.455052 0.204511 0.509636 0.951958
O5    O     O_R   0.355430 0.513480 0.694040 -0.625291
O6    O     O_R   0.644570 0.486520 0.305960 -0.622399
O7    O     O_R   0.644570 0.486540 0.672410 -0.622690
O8    O     O_R   0.355430 0.513460 0.327590 -0.626642
C3    C     C_R   0.501383 0.510093 0.741548 0.863319
C4    C     C_R   0.497054 0.478882 0.259336 0.918100
Zn1   Zn    Zn3+2 0.306940 0.517990 0.514440 1.143038
Zn2   Zn    Zn3+2 0.693060 0.482010 0.485560 1.127189
H1    H     H_    0.049007 0.387774 0.842784 0.191843
H2    H     H_    0.945991 0.554158 0.163361 0.195842
C5    C     C_R   0.219351 0.618688 0.936903 0.397296
C6    C     C_R   0.770192 0.330959 0.071904 0.445687
C7    C     C_R   0.050238 0.578916 0.982733 -0.201156
C8    C     C_R   0.939091 0.363829 0.022547 -0.186847
C9    C     C_R   0.026897 0.493898 0.084737 -0.217879
C10   C     C_R   0.965030 0.447748 0.919543 -0.253584
C11   C     C_R   0.171902 0.458513 0.135330 -0.088208
C12   C     C_R   0.822370 0.483025 0.865670 -0.152938
C13   C     C_R   0.336858 0.469633 0.071760 0.083431
C14   C     C_R   0.655158 0.472850 0.926737 0.064657
C15   C     C_R   0.349780 0.520359 0.954767 -0.049863
C16   C     C_R   0.639139 0.421290 0.043970 -0.060955
C17   C     C_R   0.487794 0.444122 0.123170 -0.094387
C18   C     C_R   0.505210 0.510824 0.877209 -0.110452
H3    H     H_    0.975540 0.684257 0.001954 0.206718
H4    H     H_    0.009957 0.255684 0.006659 0.245228
H5    H     H_    0.146008 0.417066 0.222053 0.228183
H6    H     H_    0.854845 0.535806 0.783362 0.241908
C19   C     C_2   0.562984 0.970983 0.559984 -0.115214
C20   C     C_2   0.429486 0.063796 0.571993 0.049691
N1    N     N_2   0.950330 0.457950 0.466250 0.084658
N2    N     N_2   0.049670 0.542050 0.533750 0.113707
S1    S     S_3+6 0.283102 0.821744 0.958200 0.071495
O9    O     O_2   0.327369 0.862652 0.089385 -0.214256
O10   O     O_2   0.439197 0.841651 0.870467 -0.301711
O11   O     O_3   0.136629 0.948102 0.937805 -0.522872
H7    H     H_    0.040973 0.883034 0.906103 0.357437
S2    S     S_3+6 0.712788 0.133616 0.097101 0.064523
O12   O     O_2   0.644244 0.052299 0.981535 -0.244282
O13   O     O_2   0.863286 0.046223 0.118068 -0.267976
O14   O     O_3   0.562359 0.129693 0.218193 -0.523980
H8    H     H_    0.558076 0.019255 0.237484 0.386244
C21   C     C_3   0.695525 0.024633 0.646639 -0.631777
H9    H     H_    0.670410 0.968224 0.732448 0.294701
H10   H     H_    0.819397 0.996822 0.599077 0.314520
H11   H     H_    0.699792 0.154956 0.676031 0.234993
C22   C     C_3   0.346603 0.113770 0.703392 -0.737560
H12   H     H_    0.423450 0.206364 0.755372 0.193851
H13   H     H_    0.219569 0.160448 0.703850 0.251645
H14   H     H_    0.336394 0.014429 0.756488 0.331733
S3    S     S_3+6 0.998393 0.258736 0.429107 0.130205
O15   O     O_2   0.156504 0.230590 0.341662 -0.273558
O16   O     O_2   0.015357 0.195421 0.548220 -0.362225
O17   O     O_3   0.848365 0.151748 0.357066 -0.469865
H15   H     H_    0.868936 0.039902 0.364160 0.398620
S4    S     S_3+6 0.998406 0.731695 0.584540 0.086434
O18   O     O_2   0.995189 0.816498 0.473075 -0.300762
O19   O     O_2   0.834965 0.736884 0.666667 -0.379429
O20   O     O_3   0.140538 0.820024 0.672412 -0.537354
H16   H     H_    0.085046 0.920081 0.707533 0.371696

loop_
_geom_bond_atom_site_label_1
_geom_bond_atom_site_label_2
_geom_bond_distance
_ccdc_geom_bond_type
C19   C21   1.510779 S    
S4    O19   1.492660 D    
O7    Zn2   2.024756 S    
H2    C9    1.093407 S    
C6    S2    1.769457 S    
C4    C17   1.482317 S    
C13   C15   1.395473 A    
C14   C16   1.400066 A    
C19   C20   1.343032 D    
S2    O14   1.680732 S    
O6    C4    1.331450 A    
C21   H11   1.110265 S    
C7    H3    1.085067 S    
S4    O18   1.503302 D    
C11   C13   1.419825 A    
Zn1   N2    2.058041 S    
S1    O10   1.497431 D    
C22   H12   1.105889 S    
C8    C9    1.412194 A    
Zn2   N1    2.058041 S    
O5    C3    1.332817 A    
O7    C3    1.301816 A    
S3    O15   1.498381 D    
O2    C2    1.313495 A    
O3    Zn2   1.963185 S    
O8    C4    1.301767 A    
O1    C1    1.312894 A    
C1    C19   1.489543 S    
C16   C17   1.405804 A    
C5    C7    1.424696 A    
N1    N2    1.269254 D    
C2    C20   1.454053 S    
C14   C18   1.439239 A    
S1    O11   1.683938 S    
C6    C8    1.421203 A    
C22   H13   1.107738 S    
C9    C11   1.403258 A    
C13   C17   1.426246 A    
O2    Zn2   1.964893 S    
C10   C12   1.405600 A    
S3    O16   1.498545 D    
O1    Zn1   1.964893 S    
O11   H7    0.986277 S    
C8    C10   1.405259 A    
C5    C15   1.417286 A    
O14   H8    0.990553 S    
O5    Zn1   2.046920 S    
C7    C10   1.412894 A    
C6    C16   1.415978 A    
S2    O12   1.497038 D    
C11   H5    1.050644 S    
O4    C2    1.306853 A    
O20   H16   0.987788 S    
C8    H4    1.088254 S    
C22   H14   1.085828 S    
S1    O9    1.502454 D    
C21   H9    1.105037 S    
C5    S1    1.767443 S    
C15   C18   1.416754 A    
S3    O17   1.668632 S    
O6    Zn2   2.046920 S    
C20   C22   1.518784 S    
S2    O13   1.502102 D    
S4    O20   1.652877 S    
O3    C1    1.321890 A    
C7    C9    1.401319 A    
N2    S4    1.686248 S    
H1    C10   1.092624 S    
N1    S3    1.739241 S    
O4    Zn1   1.963185 S    
C3    C18   1.482773 S    
C12   C14   1.424557 A    
O17   H15   0.990154 S    
C21   H10   1.082856 S    
O8    Zn1   2.024756 S    
C12   H6    1.059972 S    
