data_mof_unit_57044.cif
_audit_creation_date              2012-12-11T16:58:22-0500
_audit_creation_method            fapswitch 2.2
_symmetry_space_group_name_H-M    P1
_symmetry_Int_Tables_number       1
_space_group_crystal_system       triclinic
_cell_length_a                    16.721717
_cell_length_b                    7.253028
_cell_length_c                    16.959673
_cell_angle_alpha                 89.997739
_cell_angle_beta                  100.189412
_cell_angle_gamma                 90.005461
_cell_volume                      2024.48027961

loop_
_atom_site_label
_atom_site_type_symbol
_atom_type_description
_atom_site_fract_x
_atom_site_fract_y
_atom_site_fract_z
_atom_type_partial_charge
O1    O     O_R   0.413450 0.494370 0.415710 -0.538978
O2    O     O_R   0.586550 0.994370 0.584290 -0.538950
O3    O     O_R   0.578420 0.819350 0.429360 -0.530949
O4    O     O_R   0.421580 0.319350 0.570640 -0.530967
C1    C     C_R   0.606414 0.656866 0.415382 0.753892
C2    C     C_R   0.393595 0.156843 0.584625 0.753927
O5    O     O_R   0.413570 0.823780 0.406240 -0.528008
O6    O     O_R   0.586430 0.323780 0.593760 -0.528193
O7    O     O_R   0.420530 0.998740 0.561000 -0.528423
O8    O     O_R   0.579470 0.498740 0.439000 -0.528416
C3    C     C_R   0.385525 0.655801 0.384487 0.754997
C4    C     C_R   0.614476 0.155811 0.615513 0.754902
O9    O     O_3   0.502480 0.662320 0.550800 -0.381055
O10   O     O_3   0.497520 0.162320 0.449200 -0.380947
V1    V     V_3+5 0.499540 0.935370 0.490580 1.491825
V2    V     V_3+5 0.500460 0.435370 0.509420 1.491600
C5    C     C_R   0.691639 0.999191 0.735431 -0.067192
C6    C     C_R   0.308349 0.499175 0.264573 -0.067271
C7    C     C_R   0.685184 0.145845 0.681865 -0.145516
C8    C     C_R   0.314811 0.645811 0.318143 -0.145337
C9    C     C_R   0.749254 0.275651 0.691821 0.475532
C10   C     C_R   0.250762 0.775625 0.308188 0.475634
C11   C     C_R   0.814366 0.259985 0.757824 -0.235197
C12   C     C_R   0.185656 0.760010 0.242172 -0.235394
H1    H     H_    0.863000 0.360496 0.764548 0.133218
H2    H     H_    0.137048 0.860566 0.235433 0.133166
C13   C     C_R   0.816993 0.116478 0.814639 -0.165646
C14   C     C_R   0.183008 0.616497 0.185362 -0.165569
C15   C     C_R   0.756658 0.977884 0.798521 0.004598
C16   C     C_R   0.243333 0.477896 0.201477 0.004457
C17   C     C_3   0.699540 0.894256 0.849533 0.524741
C18   C     C_3   0.300455 0.394335 0.150451 0.524744
C19   C     C_3   0.629657 0.931425 0.780877 -0.395558
C20   C     C_3   0.370337 0.431472 0.219114 -0.395671
H3    H     H_    0.587838 0.042966 0.793005 0.148294
H4    H     H_    0.412163 0.543042 0.206999 0.148350
H5    H     H_    0.598287 0.805946 0.753227 0.184362
H6    H     H_    0.401700 0.305960 0.246750 0.184404
C21   C     C_R   0.327690 0.158058 0.633384 -0.162750
C22   C     C_R   0.672316 0.658149 0.366617 -0.162837
C23   C     C_R   0.167944 0.113195 0.863173 -0.122240
C24   C     C_R   0.832059 0.613123 0.136835 -0.122321
C25   C     C_R   0.289795 0.969345 0.828980 0.499707
C26   C     C_R   0.710318 0.468942 0.171156 0.499716
C27   C     C_R   0.232419 0.987072 0.879871 -0.204678
C28   C     C_R   0.767674 0.486713 0.120242 -0.204818
C29   C     C_R   0.160610 0.221222 0.793879 -0.166054
C30   C     C_R   0.839320 0.721409 0.206045 -0.165932
C31   C     C_R   0.214757 0.197745 0.739290 -0.035866
C32   C     C_R   0.785201 0.697906 0.260661 -0.035892
C33   C     C_R   0.280119 0.071152 0.756990 0.000383
C34   C     C_R   0.719931 0.571017 0.243067 0.000427
C35   C     C_R   0.335173 0.050674 0.703198 -0.218300
C36   C     C_R   0.664901 0.550515 0.296883 -0.218064
C37   C     C_R   0.261297 0.281852 0.615389 0.087378
C38   C     C_R   0.738628 0.782235 0.384513 0.087284
C39   C     C_R   0.203759 0.296631 0.666583 0.460798
C40   C     C_R   0.796143 0.797058 0.333295 0.460897
H7    H     H_    0.386353 0.957411 0.717251 0.170957
H8    H     H_    0.613785 0.457030 0.282903 0.171058
H9    H     H_    0.238150 0.900721 0.932671 0.157595
H10   H     H_    0.762004 0.400157 0.067511 0.157596
H11   H     H_    0.110336 0.317153 0.781029 0.163681
H12   H     H_    0.889526 0.817563 0.218817 0.163763
O11   O     O_R   0.920630 0.775410 0.061150 -0.531956
O12   O     O_R   0.079370 0.275410 0.938850 -0.531951
O13   O     O_R   0.086500 0.441450 0.093690 -0.546957
O14   O     O_R   0.913500 0.941450 0.906310 -0.546938
C41   C     C_R   0.115189 0.609169 0.115316 0.729525
C42   C     C_R   0.884810 0.109160 0.884686 0.729527
O15   O     O_R   0.921670 0.445960 0.070740 -0.532357
O16   O     O_R   0.078330 0.945960 0.929260 -0.532332
O17   O     O_R   0.913380 0.271130 0.915780 -0.541377
O18   O     O_R   0.086620 0.771130 0.084220 -0.541389
C43   C     C_R   0.896197 0.613324 0.086562 0.685352
C44   C     C_R   0.103802 0.113341 0.913438 0.685371
O19   O     O_3   0.997500 0.603030 0.949220 -0.379032
O20   O     O_3   0.002500 0.103030 0.050780 -0.379055
V3    V     V_3+5 0.000470 0.329940 0.009420 1.404128
V4    V     V_3+5 0.999530 0.829940 0.990580 1.404156
O21   O     O_3   0.750164 0.411307 0.634690 -0.550314
C45   C     C_3   0.737278 0.583788 0.668502 -0.147185
H13   H     H_    0.685157 0.580696 0.701278 0.147496
H14   H     H_    0.721884 0.685335 0.619442 0.175328
H15   H     H_    0.793300 0.632415 0.708304 0.129917
O22   O     O_3   0.249923 0.911320 0.365312 -0.550207
C46   C     C_3   0.262486 0.083908 0.331396 -0.148246
H16   H     H_    0.313965 0.080806 0.297768 0.147779
H17   H     H_    0.278722 0.185130 0.380449 0.175592
H18   H     H_    0.206070 0.132967 0.292375 0.130212
O23   O     O_3   0.139231 0.417566 0.647389 -0.541072
C47   C     C_3   0.071949 0.319381 0.605573 -0.194525
H19   H     H_    0.085465 0.257940 0.549234 0.158349
H20   H     H_    0.020672 0.416917 0.588859 0.177002
H21   H     H_    0.051618 0.209893 0.643501 0.123735
O24   O     O_3   0.860585 0.918293 0.352380 -0.541030
C48   C     C_3   0.927953 0.820473 0.394241 -0.194759
H22   H     H_    0.914543 0.759712 0.450741 0.158621
H23   H     H_    0.979263 0.918122 0.410644 0.176828
H24   H     H_    0.948215 0.710501 0.356485 0.123666
I1    I     I_    0.686476 0.044870 0.956326 -0.476002
I2    I     I_    0.313498 0.545034 0.043667 -0.475398
O25   O     O_3   0.705681 0.700367 0.859922 -0.561159
C49   C     C_3   0.782588 0.648622 0.901217 -0.144942
H25   H     H_    0.801826 0.736490 0.954310 0.152526
H26   H     H_    0.827771 0.651811 0.860548 0.135880
H27   H     H_    0.779063 0.504692 0.922374 0.155819
O26   O     O_3   0.294320 0.200443 0.140027 -0.561246
C50   C     C_3   0.217354 0.148679 0.098872 -0.145209
H28   H     H_    0.198041 0.236524 0.045784 0.152654
H29   H     H_    0.172269 0.151909 0.139642 0.135843
H30   H     H_    0.220820 0.004727 0.077728 0.155871
I3    I     I_    0.243185 0.451163 0.510721 -0.366227
I4    I     I_    0.756657 0.951963 0.489052 -0.366100
O27   O     O_3   0.351657 0.841416 0.846820 -0.548408
C51   C     C_3   0.414203 0.919348 0.903755 -0.189882
H31   H     H_    0.393306 0.947674 0.961343 0.166126
H32   H     H_    0.438453 0.047451 0.880440 0.133558
H33   H     H_    0.464989 0.819137 0.916285 0.191061
O28   O     O_3   0.648556 0.340708 0.153439 -0.548438
C52   C     C_3   0.586003 0.418037 0.096337 -0.189890
H34   H     H_    0.606929 0.445867 0.038723 0.166215
H35   H     H_    0.561670 0.546312 0.119401 0.133627
H36   H     H_    0.535268 0.317647 0.083956 0.190924

loop_
_geom_bond_atom_site_label_1
_geom_bond_atom_site_label_2
_ccdc_geom_bond_type
O14   V4    S    
O15   C43   A    
C46   H16   S    
C13   C15   A    
C5    C15   A    
C14   C41   S    
O1    C3    A    
O16   C44   A    
O2    C4    A    
C2    O7    A    
C49   H26   S    
C48   H22   S    
C35   H7    S    
C29   C31   A    
C36   H8    S    
C51   H31   S    
O5    C3    A    
O12   V3    S    
C24   C43   S    
C28   H10   S    
C17   I1    S    
C10   C12   A    
C7    C9    A    
C12   H2    S    
C30   C32   A    
C50   H29   S    
C29   H11   S    
C19   H3    S    
C30   H12   S    
C26   O28   S    
O27   C51   S    
C31   C39   A    
O26   C50   S    
C24   C28   A    
C40   O24   S    
C52   H36   S    
C25   O27   S    
C46   H18   S    
C21   C37   A    
C26   C28   A    
C14   C16   A    
C31   C33   A    
C32   C34   A    
C17   C19   S    
C6    C16   A    
C11   C13   A    
C6    C8    A    
C26   C34   A    
O5    V1    S    
O6    V2    S    
O11   V4    S    
O18   V4    S    
C5    C19   S    
O15   V3    S    
C49   H25   S    
C48   H23   S    
C34   C36   A    
O21   C45   S    
C38   C40   A    
C23   C29   A    
C3    C8    S    
C32   C40   A    
O13   V3    S    
O4    C2    A    
C50   H30   S    
O23   C47   S    
O22   C46   S    
C37   I3    S    
C22   C38   A    
C47   H21   S    
C19   H5    S    
C33   C35   A    
C18   C20   S    
O4    V2    S    
C6    C20   S    
O10   V1    S    
O6    C4    A    
O12   C44   A    
O24   C48   S    
C42   O17   A    
C47   H20   S    
O17   V3    S    
C41   O18   A    
O1    V2    S    
C24   C30   A    
O2    V1    S    
C25   C27   A    
C52   H34   S    
C13   C42   S    
O14   C42   A    
C9    O21   S    
C22   C36   A    
C9    C11   A    
C18   I2    S    
O9    V2    S    
C48   H24   S    
O3    V1    S    
O28   C52   S    
O19   V4    S    
C23   C27   A    
C39   O23   S    
C20   H6    S    
C12   C14   A    
C8    C10   A    
O3    C1    A    
C45   H15   S    
C45   H14   S    
O11   C43   A    
C51   H33   S    
C37   C39   A    
O7    V1    S    
C1    O8    A    
C15   C17   S    
O8    V2    S    
C50   H28   S    
C23   C44   S    
C16   C18   S    
O20   V3    S    
C25   C33   A    
C21   C35   A    
C4    C7    S    
C27   H9    S    
C47   H19   S    
C5    C7    A    
C51   H32   S    
C20   H4    S    
C10   O22   S    
C52   H35   S    
C11   H1    S    
O16   V4    S    
C45   H13   S    
C18   O26   S    
C1    C22   S    
O25   C49   S    
C46   H17   S    
C38   I4    S    
C2    C21   S    
O13   C41   A    
C49   H27   S    
C17   O25   S    
