data_mof_unit_13711.cif
_audit_creation_date              2012-12-11T18:13:25-0500
_audit_creation_method            fapswitch 2.2
_symmetry_space_group_name_H-M    P1
_symmetry_Int_Tables_number       1
_space_group_crystal_system       triclinic
_cell_length_a                    8.197045
_cell_length_b                    12.701814
_cell_length_c                    18.717404
_cell_angle_alpha                 98.921174
_cell_angle_beta                  91.197497
_cell_angle_gamma                 98.758749
_cell_volume                      1900.80096974

loop_
_atom_site_label
_atom_site_type_symbol
_atom_type_description
_atom_site_fract_x
_atom_site_fract_y
_atom_site_fract_z
_atom_type_partial_charge
Ba1   Ba    Ba6+2 0.852780 0.548340 0.465070 1.659905
Ba2   Ba    Ba6+2 0.337060 0.451750 0.534940 1.654230
C1    C     C_3   0.567207 0.899445 0.253800 -0.404624
C2    C     C_R   0.889201 0.398188 0.097008 0.026635
C3    C     C_R   0.723222 0.358370 0.075687 -0.084810
C4    C     C_3   0.103791 0.774884 0.267196 0.315928
C5    C     C_R   0.660914 0.367437 0.007167 -0.093063
C6    C     C_R   0.764721 0.413201 0.957661 0.037168
C7    C     C_R   0.931617 0.453035 0.978253 0.009868
C8    C     C_R   0.704621 0.418189 0.887737 -0.122309
C9    C     C_R   0.811089 0.455592 0.835716 -0.043580
C10   C     C_R   0.976074 0.502525 0.857590 0.006305
C11   C     C_R   0.035831 0.500468 0.929086 -0.017086
C12   C     C_3   0.613080 0.815588 0.297153 0.340613
C13   C     C_R   0.759588 0.444934 0.762016 -0.019894
C14   C     C_R   0.868218 0.486144 0.712748 -0.277342
C15   C     C_R   0.023910 0.545082 0.734800 0.002583
C16   C     C_3   0.070802 0.812463 0.195267 -0.039356
C17   C     C_R   0.081333 0.551373 0.808320 -0.053169
C18   C     C_R   0.157628 0.492277 0.070966 0.011674
C19   C     C_R   0.216291 0.492455 0.142889 0.006768
C20   C     C_R   0.110176 0.444662 0.192291 -0.047197
C21   C     C_R   0.950749 0.391884 0.166538 -0.048462
C22   C     C_R   0.241242 0.602191 0.834222 -0.053767
C23   C     C_3   0.459013 0.275525 0.314369 0.312845
C24   C     C_R   0.302701 0.596584 0.903728 0.039560
C25   C     C_R   0.200172 0.545171 0.951427 -0.002446
C26   C     C_R   0.261203 0.540996 0.022133 0.025838
C27   C     C_R   0.466619 0.641104 0.926022 -0.086097
C28   C     C_3   0.305718 0.802533 0.713980 0.261853
C29   C     C_R   0.527656 0.635808 0.995403 -0.095163
C30   C     C_R   0.425351 0.587084 0.044148 0.036945
C31   C     C_R   0.380356 0.541612 0.165374 -0.036575
C32   C     C_R   0.484282 0.585794 0.114771 -0.099575
C33   C     C_R   0.434002 0.547326 0.238336 0.004570
C34   C     C_3   0.432601 0.238117 0.233199 -0.403391
C35   C     C_R   0.325320 0.506778 0.287534 -0.298923
C36   C     C_R   0.166028 0.454000 0.266021 0.049978
C37   C     C_R   0.767884 0.182281 0.527767 -0.279874
C38   C     C_R   0.423434 0.810296 0.476802 -0.255487
C39   C     C_R   0.400737 0.985858 0.448242 -0.105598
C40   C     C_3   0.232178 0.852576 0.782700 -0.447364
C41   C     C_R   0.334399 0.878356 0.446884 0.014635
C42   C     C_R   0.577605 0.849490 0.511364 0.045937
C43   C     C_R   0.645973 0.960566 0.516216 -0.062626
C44   C     C_R   0.555207 0.029115 0.483649 -0.053224
C45   C     C_3   0.034937 0.240072 0.733204 0.403537
C46   C     C_R   0.619316 0.139721 0.488955 0.049366
C47   C     C_R   0.861801 0.115748 0.557081 -0.016284
C48   C     C_R   0.800513 0.005820 0.552539 -0.092895
C49   C     C_3   0.959518 0.211806 0.380487 0.274330
C50   C     C_3   0.948244 0.090024 0.363982 -0.354524
C51   C     C_3   0.733018 0.703494 0.682145 0.304108
C52   C     C_3   0.764701 0.742791 0.763096 -0.425209
C53   C     C_3   0.529620 0.111029 0.701937 -0.175501
C54   C     C_3   0.639573 0.027178 0.711010 -0.507316
C55   C     C_3   0.020801 0.754640 0.066065 -0.254552
C56   C     C_3   0.033591 0.216158 0.810471 -0.383680
C57   C     C_3   0.539199 0.199017 0.768554 0.384638
C58   C     C_3   0.477137 0.151231 0.835348 -0.351581
C59   C     C_R   0.993114 0.447593 0.048703 0.002054
H1    H     H_    0.698076 0.856534 0.343576 0.060434
H2    H     H_    0.846137 0.678042 0.659015 0.035737
H3    H     H_    0.630372 0.634360 0.673779 0.070173
H4    H     H_    0.510857 0.961222 0.289367 0.102060
H5    H     H_    0.869042 0.810712 0.772348 0.127703
H6    H     H_    0.794394 0.677118 0.791195 0.067106
H7    H     H_    0.654034 0.771748 0.787158 0.101003
H8    H     H_    0.497247 0.777356 0.318832 -0.060440
H9    H     H_    0.477043 0.859770 0.209017 0.114774
H10   H     H_    0.341851 0.297693 0.336026 0.019246
H11   H     H_    0.557595 0.347241 0.323855 0.056550
H12   H     H_    0.333014 0.891646 0.823040 0.081543
H13   H     H_    0.330174 0.168813 0.222110 0.126780
H14   H     H_    0.400759 0.304644 0.206254 0.053571
H15   H     H_    0.547236 0.212794 0.210482 0.116719
H16   H     H_    0.678587 0.939337 0.230173 0.119515
H17   H     H_    0.179722 0.870495 0.184263 0.080684
H18   H     H_    0.114596 0.319138 0.733070 0.084666
H19   H     H_    0.906729 0.245444 0.715312 -0.115788
H20   H     H_    0.161588 0.227563 0.833754 0.136089
H21   H     H_    0.964317 0.271668 0.844640 0.073159
H22   H     H_    0.973867 0.132026 0.811730 0.110216
H23   H     H_    0.158397 0.914437 0.770190 0.135852
H24   H     H_    0.669761 0.236819 0.781208 -0.020273
H25   H     H_    0.570779 0.108626 0.857224 0.075576
H26   H     H_    0.359621 0.094533 0.821895 0.113756
H27   H     H_    0.007915 0.706143 0.273878 0.108638
H28   H     H_    0.453593 0.215973 0.878944 0.096135
H29   H     H_    0.640513 0.322045 0.112551 0.061423
H30   H     H_    0.531626 0.337706 0.992759 0.064393
H31   H     H_    0.827042 0.477393 0.656546 0.062796
H32   H     H_    0.575037 0.390817 0.874005 0.094207
H33   H     H_    0.869924 0.348647 0.200657 0.100725
H34   H     H_    0.150870 0.790285 0.806337 0.095785
H35   H     H_    0.322982 0.644037 0.800479 0.083165
H36   H     H_    0.548026 0.679802 0.889694 0.064155
H37   H     H_    0.654573 0.670861 0.011181 0.067180
H38   H     H_    0.611117 0.621147 0.129788 0.103546
H39   H     H_    0.227202 0.748989 0.267443 -0.048298
H40   H     H_    0.367391 0.513670 0.343494 0.071191
H41   H     H_    0.327717 0.034579 0.422666 0.101277
H42   H     H_    0.873805 0.958075 0.578809 0.118078
H43   H     H_    0.815460 0.267358 0.531610 0.060956
H44   H     H_    0.369677 0.726588 0.475036 0.080459
H45   H     H_    0.838370 0.232692 0.395919 0.006119
H46   H     H_    0.961859 0.855394 0.199816 0.124750
H47   H     H_    0.402709 0.755750 0.725953 0.039733
H48   H     H_    0.369146 0.869228 0.688433 0.052351
H49   H     H_    0.771397 0.063643 0.716107 0.146243
H50   H     H_    0.607113 0.986137 0.758066 0.138548
H51   H     H_    0.619602 0.965530 0.662291 0.156980
H52   H     H_    0.399739 0.070180 0.690450 0.149156
H53   H     H_    0.568664 0.149098 0.654201 0.095560
H54   H     H_    0.944553 0.663321 0.145324 0.224460
H55   H     H_    0.985932 0.682321 0.024345 0.114951
H56   H     H_    0.052180 0.242655 0.425788 0.075988
H57   H     H_    0.139272 0.799945 0.051795 0.122620
H58   H     H_    0.921744 0.805440 0.065907 0.101853
H59   H     H_    0.856163 0.056779 0.318865 0.114075
H60   H     H_    0.910225 0.053184 0.411993 0.088415
H61   H     H_    0.070680 0.069188 0.348324 0.146856
N1    N     N_2   0.039141 0.722604 0.136289 -0.437297
O1    O     O_2   0.873090 0.425890 0.325140 -0.468771
O2    O     O_2   0.206519 0.123775 0.558034 -0.472948
O3    O     O_3   0.097631 0.157770 0.688105 -0.590723
O4    O     O_3   0.122420 0.434370 0.414380 -0.494071
O5    O     O_3   0.578370 0.633800 0.536380 -0.484806
O6    O     O_2   0.341510 0.231850 0.465510 -0.472399
O7    O     O_3   0.505405 0.191211 0.346391 -0.650608
O8    O     O_2   0.442460 0.473335 0.753521 -0.483339
O9    O     O_3   0.436074 0.273219 0.754641 -0.581815
O10   O     O_3   0.659500 0.627100 0.368810 -0.475835
O11   O     O_2   0.777444 0.550594 0.243732 -0.510358
O12   O     O_3   0.691965 0.788941 0.650403 -0.653181
O13   O     O_3   0.003384 0.253796 0.317805 -0.641599
O14   O     O_3   0.694395 0.742379 0.252267 -0.612638
O15   O     O_2   0.848200 0.768190 0.534530 -0.442457
O16   O     O_3   0.081160 0.685950 0.404810 -0.483414
O17   O     O_2   0.000097 0.878686 0.453152 -0.476762
O18   O     O_3   0.097082 0.862154 0.322307 -0.638734
O19   O     O_2   0.316610 0.574140 0.674900 -0.477076
O20   O     O_3   0.067290 0.565720 0.585630 -0.454326
O21   O     O_3   0.530210 0.372990 0.631200 -0.456818
O22   O     O_3   0.180413 0.745807 0.664183 -0.607664
O23   O     O_3   0.611340 0.366290 0.463630 -0.478190
O24   O     O_3   0.108550 0.314140 0.595200 -0.484829
P1    P     P_3+3 0.041040 0.394770 0.336330 0.969140
P2    P     P_3+3 0.672880 0.754030 0.556100 0.985130
P3    P     P_3+3 0.127894 0.825216 0.407097 0.961186
P4    P     P_3+3 0.148670 0.605320 0.663680 0.990731
P5    P     P_3+3 0.068371 0.175746 0.598147 0.974511
P6    P     P_3+3 0.641279 0.613461 0.274974 0.931072
P7    P     P_3+3 0.522366 0.230641 0.440386 0.934245
P8    P     P_3+3 0.547786 0.386995 0.725792 0.944430

loop_
_geom_bond_atom_site_label_1
_geom_bond_atom_site_label_2
_ccdc_geom_bond_type
C53   C54   S    
C53   C57   S    
Ba2   O21   S    
C51   O12   S    
Ba1   O5    S    
C45   H18   S    
O9    P8    S    
C5    C6    A    
C15   P4    S    
C51   C52   S    
O1    P1    D    
C24   C25   A    
C45   O3    S    
O10   P6    S    
O2    P5    D    
C22   C24   A    
C22   H35   S    
O6    P7    D    
C51   H3    S    
O11   P6    D    
C19   C31   A    
C13   C14   A    
C20   C36   A    
Ba2   O6    S    
C4    H27   S    
C39   H41   S    
Ba1   Ba2   S    
C50   H60   S    
C29   H37   S    
C18   C59   A    
C7    C11   A    
C16   H46   S    
C34   H15   S    
C12   H1    S    
C15   C17   A    
C50   H61   S    
C38   C41   A    
C6    C7    A    
C48   H42   S    
C39   C44   A    
Ba1   P2    S    
C23   H10   S    
C54   H50   S    
C13   P8    S    
C3    H29   S    
Ba1   O16   S    
O4    P1    S    
C55   H58   S    
C28   H47   S    
Ba2   O4    S    
O20   P4    S    
C57   C58   S    
C19   C20   A    
Ba2   O20   S    
C39   C41   A    
Ba1   O23   S    
C1    H4    S    
O3    P5    S    
C45   H19   S    
Ba1   O10   S    
C23   O7    S    
C54   H49   S    
C58   H26   S    
O18   P3    S    
C32   H38   S    
C55   H55   S    
O15   P2    D    
C4    C16   S    
C44   C46   A    
C57   O9    S    
H54   N1    S    
C28   H48   S    
C40   H34   S    
C33   P6    S    
C37   H43   S    
C1    H9    S    
C40   H23   S    
C56   H20   S    
C3    C5    A    
C2    C21   A    
C58   H25   S    
C14   C15   A    
C52   H6    S    
C53   H52   S    
C8    H32   S    
Ba2   O24   S    
C43   C44   A    
C2    C59   A    
C49   C50   S    
C4    H39   S    
O19   P4    D    
C57   H24   S    
C35   C36   A    
Ba1   O20   S    
C34   H14   S    
C55   N1    S    
C49   O13   S    
C29   C30   A    
O23   P7    S    
C12   O14   S    
C26   C30   A    
C16   H17   S    
C5    H30   S    
C31   C32   A    
O14   P6    S    
O7    P7    S    
C23   H11   S    
O13   P1    S    
C10   C11   A    
C4    O18   S    
C1    C12   S    
C36   P1    S    
O22   P4    S    
C41   P3    S    
C34   H13   S    
C50   H59   S    
C37   C47   A    
C14   H31   S    
C9    C13   A    
Ba2   O19   S    
C12   H8    S    
C7    C59   A    
C38   H44   S    
C1    H16   S    
O17   P3    D    
C42   C43   A    
C28   O22   S    
Ba2   P4    S    
C46   P7    S    
C40   H12   S    
C47   P5    S    
C33   C35   A    
C28   C40   S    
Ba1   O4    S    
C2    C3    A    
C9    C10   A    
C52   H5    S    
C53   H53   S    
Ba2   O23   S    
C18   C26   A    
C16   N1    S    
O16   P3    S    
C42   P2    S    
C21   H33   S    
C27   H36   S    
O21   P8    S    
C56   H21   S    
C17   C22   A    
Ba1   O1    S    
C27   C29   A    
O12   P2    S    
C56   H22   S    
C45   C56   S    
C35   H40   S    
C51   H2    S    
C43   C48   A    
C49   H45   S    
C58   H28   S    
C10   C17   A    
O8    P8    D    
C31   C33   A    
O24   P5    S    
C8    C9    A    
C23   C34   S    
O5    P2    S    
C38   C42   A    
C52   H7    S    
C18   C19   A    
C55   H57   S    
C24   C27   A    
C6    C8    A    
C47   C48   A    
C25   C26   A    
C49   H56   S    
C20   C21   A    
C11   C25   A    
Ba1   P1    S    
C54   H51   S    
Ba1   O15   S    
C30   C32   A    
C37   C46   A    
Ba2   O5    S    
