data_mof_unit_14841.cif
_audit_creation_date              2012-12-10T18:24:47-0500
_audit_creation_method            fapswitch 2.2
_symmetry_space_group_name_H-M    P1
_symmetry_Int_Tables_number       1
_space_group_crystal_system       triclinic
_cell_length_a                    14.569367
_cell_length_b                    15.849179
_cell_length_c                    17.205941
_cell_angle_alpha                 89.58378
_cell_angle_beta                  85.916341
_cell_angle_gamma                 89.707617
_cell_volume                      3962.83341224

loop_
_atom_site_label
_atom_site_type_symbol
_atom_type_description
_atom_site_fract_x
_atom_site_fract_y
_atom_site_fract_z
_atom_type_partial_charge
C1    C     C_R   0.499872 0.660533 0.499266 0.844307
C2    C     C_R   0.500290 0.339582 0.501383 0.811043
C3    C     C_3   0.491831 0.032029 0.428716 0.242832
C4    C     C_3   0.527892 0.967638 0.568321 0.260265
C5    C     C_3   0.572724 0.971303 0.444079 0.279568
C6    C     C_3   0.446257 0.027201 0.554085 0.200527
C7    C     C_1   0.499866 0.749934 0.497491 -0.086117
C8    C     C_1   0.502235 0.250409 0.502780 -0.101222
C9    C     C_3   0.425719 0.976651 0.481604 0.308283
C10   C     C_3   0.593951 0.023542 0.516582 0.296120
C11   C     C_3   0.506059 0.916718 0.496431 -0.170244
C12   C     C_3   0.512024 0.083974 0.501542 -0.279068
C13   C     C_1   0.501572 0.825301 0.496302 0.216269
C14   C     C_1   0.506627 0.175216 0.502986 0.095926
C15   C     C_3   0.029176 0.418540 0.514250 0.258883
C16   C     C_3   0.971755 0.577762 0.481964 0.247594
C17   C     C_3   0.963594 0.473121 0.568340 0.233230
C18   C     C_3   0.037585 0.522995 0.427538 0.265267
C19   C     C_3   0.975525 0.444800 0.443391 0.276290
C20   C     C_3   0.025072 0.551464 0.552904 0.262696
C21   C     C_3   0.909009 0.499190 0.497604 -0.277173
C22   C     C_3   0.091648 0.497312 0.498973 -0.282464
C23   C     C_R   0.488037 0.503514 0.651204 0.941267
C24   C     C_R   0.511435 0.495428 0.349097 0.967650
C25   C     C_1   0.806071 0.499457 0.498811 0.464822
C26   C     C_1   0.194151 0.498918 0.499731 0.504230
C27   C     C_R   0.478950 0.498895 0.737542 -0.389508
C28   C     C_R   0.517248 0.480480 0.263918 -0.405689
C29   C     C_R   0.549911 0.462419 0.778940 0.251918
C30   C     C_R   0.453075 0.425917 0.229845 0.232069
C31   C     C_R   0.527736 0.427412 0.852698 0.367486
C32   C     C_R   0.466093 0.407640 0.149740 0.343701
C33   C     C_R   0.444577 0.449742 0.894541 -0.282461
C34   C     C_R   0.531859 0.453100 0.102603 -0.293480
C35   C     C_R   0.371333 0.478990 0.852052 0.272867
C36   C     C_R   0.606479 0.487640 0.138675 0.311734
C37   C     C_R   0.391476 0.513602 0.777139 0.301158
C38   C     C_R   0.593520 0.512527 0.216878 0.283561
C39   C     C_2   0.442076 0.456641 0.981975 0.435943
C40   C     C_2   0.521703 0.470390 0.017510 0.445662
Cu1   Cu    Cu3+1 0.409780 0.500000 0.499990 1.140072
Cu2   Cu    Cu3+1 0.590220 0.500000 0.500010 1.104062
N1    N     N_1   0.725810 0.500000 0.500030 -0.129041
N2    N     N_1   0.274190 0.500000 0.499970 -0.122597
O1    O     O_R   0.423830 0.620920 0.499990 -0.581672
O2    O     O_R   0.576170 0.379080 0.500010 -0.619521
O3    O     O_R   0.576200 0.620920 0.500000 -0.545900
O4    O     O_R   0.423800 0.379080 0.500000 -0.512178
O5    O     O_R   0.414980 0.500010 0.613590 -0.535223
O6    O     O_R   0.585020 0.499990 0.386410 -0.540042
O7    O     O_R   0.567350 0.500010 0.613600 -0.520520
O8    O     O_R   0.432650 0.499990 0.386400 -0.524039
S1    S     S_3+6 0.668867 0.471240 0.748012 0.031892
O9    O     O_2   0.696077 0.401344 0.692536 -0.319135
O10   O     O_2   0.687188 0.555063 0.708526 -0.279155
O11   O     O_3   0.733222 0.464902 0.825245 -0.453151
H1    H     H_    0.795681 0.482318 0.805204 0.360067
S2    S     S_3+6 0.352783 0.384361 0.283403 0.025072
O12   O     O_2   0.382601 0.332231 0.350414 -0.305963
O13   O     O_2   0.292734 0.455934 0.313842 -0.254591
O14   O     O_3   0.287516 0.323786 0.229732 -0.505978
H2    H     H_    0.241534 0.297867 0.267769 0.367157
S3    S     S_3+6 0.078962 0.316826 0.531262 -0.014835
O15   O     O_2   0.151123 0.297960 0.466831 -0.295200
O16   O     O_2   0.123973 0.315738 0.607111 -0.268751
O17   O     O_3   0.996492 0.242918 0.532999 -0.579167
H3    H     H_    0.027038 0.190101 0.548605 0.377496
S4    S     S_3+6 0.922399 0.680186 0.467911 0.002810
O18   O     O_2   0.870051 0.680296 0.395755 -0.274655
O19   O     O_2   0.857039 0.701706 0.536458 -0.280874
O20   O     O_3   0.006662 0.752432 0.458871 -0.552952
H4    H     H_    0.974571 0.807010 0.452393 0.381232
O21   O     O_3   0.061907 0.606949 0.606464 -0.564501
C41   C     C_3   0.993718 0.635116 0.662951 0.155641
H5    H     H_    0.005255 0.603222 0.719019 0.145683
H6    H     H_    0.921874 0.621782 0.648475 0.188988
C42   C     C_3   0.004505 0.730003 0.674437 -0.277858
H7    H     H_    0.073650 0.742800 0.695081 0.241896
H8    H     H_    0.999142 0.763514 0.618053 0.273334
C43   C     C_3   0.930898 0.764260 0.733672 -0.862487
H9    H     H_    0.861232 0.754077 0.713142 0.281725
H10   H     H_    0.941049 0.833040 0.741107 0.262109
H11   H     H_    0.935670 0.732409 0.790978 0.262858
O22   O     O_3   0.935695 0.393844 0.387809 -0.598819
C44   C     C_3   0.002810 0.344485 0.346105 0.123157
H12   H     H_    0.020525 0.289221 0.381855 0.223057
H13   H     H_    0.065997 0.381085 0.328411 0.199495
C45   C     C_3   0.962009 0.310611 0.273242 -0.366997
H14   H     H_    0.901689 0.270274 0.290706 0.241968
H15   H     H_    0.938057 0.363994 0.237843 0.239695
C46   C     C_3   0.032447 0.258950 0.223690 -0.867763
H16   H     H_    0.090909 0.299475 0.202079 0.282255
H17   H     H_    0.999630 0.233049 0.172732 0.272757
H18   H     H_    0.058613 0.205632 0.258250 0.256480
S5    S     S_3+6 0.665186 0.593226 0.251028 0.071101
O23   O     O_2   0.740945 0.553399 0.293696 -0.246277
O24   O     O_2   0.706419 0.645257 0.184202 -0.249434
O25   O     O_3   0.603019 0.657829 0.311767 -0.534629
H19   H     H_    0.649006 0.692230 0.336891 0.411718
S6    S     S_3+6 0.313512 0.588429 0.740005 0.053412
O26   O     O_2   0.244872 0.544157 0.693601 -0.254232
O27   O     O_2   0.263365 0.635122 0.805948 -0.257689
O28   O     O_3   0.371943 0.659000 0.682386 -0.548068
H20   H     H_    0.324055 0.692973 0.658380 0.377319
O29   O     O_3   0.592360 0.513428 0.975600 -0.517786
C47   C     C_3   0.578137 0.602080 0.981873 0.074895
H21   H     H_    0.641888 0.630736 0.000981 0.235032
H22   H     H_    0.522115 0.621185 0.025896 0.086880
C48   C     C_3   0.559887 0.640259 0.902459 -0.354544
H23   H     H_    0.615623 0.621071 0.858670 0.281813
H24   H     H_    0.493441 0.616928 0.883780 0.200743
C49   C     C_3   0.555495 0.736398 0.905485 -0.843672
H25   H     H_    0.499350 0.757153 0.948270 0.257072
H26   H     H_    0.541584 0.761850 0.847147 0.272762
H27   H     H_    0.621973 0.762258 0.922178 0.258669
O30   O     O_3   0.357947 0.461359 0.025324 -0.521226
C50   C     C_3   0.329497 0.546722 0.035626 0.102665
H28   H     H_    0.255374 0.550035 0.025577 0.238622
H29   H     H_    0.364927 0.591917 0.993581 0.101677
C51   C     C_3   0.338622 0.575342 0.119566 -0.383030
H30   H     H_    0.305318 0.528352 0.160515 0.287242
H31   H     H_    0.412157 0.580558 0.131211 0.195844
C52   C     C_3   0.293141 0.661150 0.134710 -0.852719
H32   H     H_    0.325594 0.709527 0.094734 0.260316
H33   H     H_    0.301758 0.680240 0.195727 0.273109
H34   H     H_    0.218378 0.657903 0.126148 0.252058
S7    S     S_3+6 0.257998 0.440289 0.874585 0.077815
O31   O     O_2   0.257252 0.370770 0.934488 -0.200262
O32   O     O_2   0.194676 0.510025 0.903818 -0.288417
O33   O     O_3   0.218861 0.400487 0.792867 -0.480484
H35   H     H_    0.158672 0.428355 0.787367 0.372221
S8    S     S_3+6 0.720278 0.468282 0.097440 0.070919
O34   O     O_2   0.719182 0.399986 0.037293 -0.240981
O35   O     O_2   0.761343 0.546602 0.060024 -0.252128
O36   O     O_3   0.786557 0.436007 0.168052 -0.523324
H36   H     H_    0.849032 0.430475 0.141857 0.358353
O37   O     O_3   0.411900 0.348378 0.116372 -0.496513
C53   C     C_3   0.444704 0.265871 0.130982 0.181468
H37   H     H_    0.384278 0.223195 0.134591 0.202402
H38   H     H_    0.477031 0.259225 0.187566 0.117815
C54   C     C_3   0.511158 0.237072 0.063745 -0.426196
H39   H     H_    0.480841 0.252504 0.008029 0.254590
H40   H     H_    0.577037 0.271565 0.066112 0.241008
C55   C     C_3   0.529278 0.142104 0.066974 -0.913564
H41   H     H_    0.564024 0.124992 0.120106 0.256263
H42   H     H_    0.574508 0.122707 0.015578 0.258940
H43   H     H_    0.463732 0.106710 0.066393 0.268999
O38   O     O_3   0.589104 0.373167 0.885647 -0.488909
C56   C     C_3   0.577298 0.291935 0.854299 0.121550
H44   H     H_    0.583480 0.292614 0.789294 0.152171
H45   H     H_    0.507745 0.267508 0.873394 0.108918
C57   C     C_3   0.649079 0.230714 0.883245 -0.347282
H46   H     H_    0.654364 0.238479 0.946661 0.248271
H47   H     H_    0.626937 0.165113 0.872668 0.169473
C58   C     C_3   0.743979 0.244321 0.842238 -0.715365
H48   H     H_    0.740971 0.239247 0.778106 0.228361
H49   H     H_    0.792251 0.195465 0.861863 0.221991
H50   H     H_    0.770423 0.307167 0.857279 0.315318
S9    S     S_3+6 0.661000 0.923605 0.381042 0.030132
O39   O     O_2   0.713679 0.861477 0.427269 -0.208537
O40   O     O_2   0.618080 0.878138 0.316493 -0.301260
O41   O     O_3   0.733536 0.997956 0.343638 -0.546209
H51   H     H_    0.777681 0.967330 0.307464 0.376333
S10   S     S_3+6 0.361575 0.064108 0.626510 0.046264
O42   O     O_2   0.407093 0.109587 0.689604 -0.312599
O43   O     O_2   0.296653 0.123953 0.589989 -0.213989
O44   O     O_3   0.301719 0.981742 0.665246 -0.477968
H52   H     H_    0.348713 0.942804 0.684224 0.355045
O45   O     O_3   0.460745 0.070400 0.360516 -0.610171
C59   C     C_3   0.532362 0.087998 0.303082 0.126695
H53   H     H_    0.498970 0.107795 0.249897 0.150593
H54   H     H_    0.572493 0.030839 0.286447 0.209184
C60   C     C_3   0.594209 0.160559 0.325885 -0.369453
H55   H     H_    0.551176 0.216676 0.341938 0.234220
H56   H     H_    0.632133 0.140664 0.376373 0.245441
C61   C     C_3   0.664787 0.185164 0.259918 -0.846891
H57   H     H_    0.704756 0.129092 0.238554 0.278920
H58   H     H_    0.713197 0.232009 0.281522 0.267487
H59   H     H_    0.630301 0.214450 0.211028 0.247785
O46   O     O_3   0.544742 0.922591 0.637082 -0.584901
C62   C     C_3   0.568184 0.976545 0.697334 0.135923
H60   H     H_    0.514402 0.970578 0.746154 0.174727
H61   H     H_    0.571650 0.044348 0.680905 0.139429
C63   C     C_3   0.660422 0.947951 0.725884 -0.326392
H62   H     H_    0.654329 0.882044 0.748171 0.236667
H63   H     H_    0.713847 0.949115 0.676462 0.255197
C64   C     C_3   0.690508 0.004659 0.790547 -0.948274
H64   H     H_    0.699682 0.070385 0.768711 0.252399
H65   H     H_    0.757117 0.981641 0.810356 0.273536
H66   H     H_    0.638419 0.003788 0.840934 0.263143
O47   O     O_3   0.686977 0.039945 0.530041 -0.534288
C65   C     C_3   0.697949 0.114382 0.573086 0.046946
H67   H     H_    0.738355 0.097867 0.623406 0.161176
H68   H     H_    0.632808 0.143181 0.597966 0.122033
C66   C     C_3   0.752892 0.178905 0.522471 -0.345781
H69   H     H_    0.820778 0.151408 0.502483 0.260383
H70   H     H_    0.715392 0.194944 0.470517 0.215518
C67   C     C_3   0.767862 0.259773 0.567159 -0.741004
H71   H     H_    0.700482 0.289583 0.584317 0.268111
H72   H     H_    0.809460 0.304642 0.529564 0.287821
H73   H     H_    0.804732 0.245961 0.620123 0.248772
O48   O     O_3   0.338416 0.944426 0.466896 -0.579105
C68   C     C_3   0.284599 0.006762 0.432323 0.180705
H74   H     H_    0.295924 0.002168 0.367903 0.172264
H75   H     H_    0.301325 0.072129 0.449979 0.201438
C69   C     C_3   0.183042 0.990723 0.455847 -0.330909
H76   H     H_    0.163960 0.926728 0.436644 0.237124
H77   H     H_    0.171583 0.993470 0.520358 0.272238
C70   C     C_3   0.121425 0.056161 0.419592 -0.877926
H78   H     H_    0.130197 0.053318 0.355000 0.252785
H79   H     H_    0.138643 0.120567 0.438791 0.300142
H80   H     H_    0.048294 0.043238 0.438280 0.268092
O49   O     O_3   0.912379 0.450146 0.637969 -0.572908
C71   C     C_3   0.969555 0.425827 0.697107 0.131497
H81   H     H_    0.955854 0.469221 0.746903 0.124951
H82   H     H_    0.044572 0.429582 0.680207 0.182084
C72   C     C_3   0.942506 0.337066 0.724992 -0.333733
H83   H     H_    0.868211 0.337291 0.743782 0.241191
H84   H     H_    0.953295 0.291771 0.676432 0.275308
C73   C     C_3   0.997002 0.307598 0.792650 -0.815733
H85   H     H_    0.070633 0.299530 0.772831 0.310753
H86   H     H_    0.970204 0.245762 0.814564 0.254600
H87   H     H_    0.990231 0.353694 0.841075 0.264940
O50   O     O_3   0.092675 0.536753 0.357354 -0.581871
C74   C     C_3   0.054760 0.596206 0.307532 0.107293
H88   H     H_    0.111080 0.615859 0.264358 0.168014
H89   H     H_    0.032746 0.654660 0.337971 0.212676
C75   C     C_3   0.978475 0.557573 0.262681 -0.367186
H90   H     H_    0.006091 0.501117 0.230952 0.221376
H91   H     H_    0.920378 0.537953 0.303874 0.288947
C76   C     C_3   0.943388 0.620289 0.203874 -0.704690
H92   H     H_    0.912948 0.676531 0.234196 0.291567
H93   H     H_    0.889750 0.589959 0.171128 0.313574
H94   H     H_    0.000436 0.640513 0.161679 0.222145

loop_
_geom_bond_atom_site_label_1
_geom_bond_atom_site_label_2
_ccdc_geom_bond_type
C24   O8    A    
C7    C13   T    
C68   H74   S    
S3    O16   D    
C16   C21   S    
C27   C29   A    
C50   H28   S    
Cu1   Cu2   S    
S5    O23   D    
O50   C74   S    
C25   N1    T    
C6    C9    S    
C73   H86   S    
S5    O25   S    
C26   N2    T    
C52   H32   S    
C15   C22   S    
C42   H7    S    
O11   H1    S    
C72   C73   S    
C15   C19   S    
C68   H75   S    
C33   C39   S    
C41   H6    S    
O37   C53   S    
C34   C40   S    
S10   O42   D    
C35   C37   A    
C5    C11   S    
C56   H45   S    
C6    C12   S    
C69   H77   S    
C52   H33   S    
C58   H49   S    
C59   H53   S    
S2    O13   D    
C30   S2    S    
C17   C20   S    
C3    O45   S    
C63   H62   S    
C49   H27   S    
C18   C19   S    
Cu2   O2    S    
Cu1   O5    S    
C73   H85   S    
C64   H66   S    
C3    C12   S    
C48   H24   S    
C33   C35   A    
C61   H59   S    
C63   H63   S    
S4    O18   D    
C5    S9    S    
C41   C42   S    
C38   S5    S    
C20   O21   S    
S9    O40   D    
C67   H71   S    
C16   S4    S    
C23   C27   S    
C18   O50   S    
Cu1   O8    S    
C51   C52   S    
Cu2   O7    S    
C66   C67   S    
C47   H22   S    
S2    O14   S    
C61   H58   S    
O17   H3    S    
S3    O17   S    
C60   H55   S    
C58   H50   S    
C4    O46   S    
C55   H43   S    
C17   O49   S    
C49   H26   S    
C49   H25   S    
C51   H31   S    
C74   H88   S    
C58   H48   S    
S1    O10   D    
O21   C41   S    
C24   O6    A    
C74   H89   S    
C68   C69   S    
S9    O41   S    
O48   C68   S    
C44   H13   S    
O47   C65   S    
C65   C66   S    
O36   H36   S    
O22   C44   S    
C43   H10   S    
C71   H82   S    
C50   C51   S    
C46   H16   S    
C50   H29   S    
C69   H76   S    
C1    O3    A    
C52   H34   S    
C2    O4    A    
C72   H83   S    
C62   H60   S    
C71   C72   S    
S6    O28   S    
C17   C21   S    
C66   H69   S    
C54   H40   S    
C65   H68   S    
S7    O32   D    
C3    C9    S    
C46   H17   S    
C23   O7    A    
S9    O39   D    
C57   C58   S    
O49   C71   S    
C16   C20   S    
C67   H73   S    
S6    O27   D    
C70   H78   S    
C42   H8    S    
C76   H93   S    
O45   C59   S    
O38   C56   S    
C4    C11   S    
C35   S7    S    
C9    C11   S    
C44   H12   S    
C60   H56   S    
C10   C12   S    
Cu2   O6    S    
S4    O20   S    
C31   O38   S    
C56   C57   S    
C55   H42   S    
C61   H57   S    
C76   H92   S    
C12   C14   S    
C39   O30   S    
C2    O2    A    
C22   C26   S    
C75   H91   S    
Cu1   N2    S    
C48   C49   S    
C4    C6    S    
Cu2   N1    S    
C20   C22   S    
C4    C10   S    
C74   C75   S    
C41   H5    S    
O44   H52   S    
O46   C62   S    
C44   C45   S    
C43   H11   S    
O41   H51   S    
C57   H47   S    
S1    O11   S    
C15   C17   S    
C21   C25   S    
C54   C55   S    
C31   C33   A    
C8    C14   T    
C62   C63   S    
C36   S8    S    
C19   C21   S    
C73   H87   S    
C18   C22   S    
C9    O48   S    
S10   O44   S    
C2    C8    S    
C24   C28   S    
C45   H15   S    
C43   H9    S    
C3    C5    S    
C53   C54   S    
C16   C18   S    
C60   C61   S    
S5    O24   D    
S1    O9    D    
S7    O31   D    
C53   H38   S    
C72   H84   S    
O29   C47   S    
C6    S10   S    
C42   C43   S    
C10   O47   S    
C63   C64   S    
C15   S3    S    
C55   H41   S    
C65   H67   S    
S10   O43   D    
O33   H35   S    
S2    O12   D    
S7    O33   S    
C5    C10   S    
C29   C31   A    
C32   O37   S    
C56   H44   S    
C46   H18   S    
C30   C32   A    
C11   C13   S    
C69   C70   S    
C1    O1    A    
C45   C46   S    
C29   S1    S    
C27   C37   A    
S8    O36   S    
C71   H81   S    
C36   C38   A    
S6    O26   D    
C70   H79   S    
Cu1   O4    S    
C28   C30   A    
O30   C50   S    
S8    O34   D    
C76   H94   S    
C34   C36   A    
Cu2   O3    S    
C75   C76   S    
O14   H2    S    
C64   H65   S    
C23   O5    A    
C53   H37   S    
C75   H90   S    
S3    O15   D    
C39   C40   D    
C62   H61   S    
O20   H4    S    
C45   H14   S    
C64   H64   S    
S8    O35   D    
O25   H19   S    
C47   H21   S    
C48   H23   S    
O28   H20   S    
S4    O19   D    
Cu1   O1    S    
C51   H30   S    
C1    C7    S    
C67   H72   S    
C57   H46   S    
C59   H54   S    
C28   C38   A    
C54   H39   S    
C70   H80   S    
C47   C48   S    
C37   S6    S    
C19   O22   S    
C32   C34   A    
C40   O29   S    
C66   H70   S    
C59   C60   S    
