data_mof_unit_61532.cif
_audit_creation_date              2012-10-26T17:33:51-0400
_audit_creation_method            fapswitch 2.2
_symmetry_space_group_name_H-M    P1
_symmetry_Int_Tables_number       1
_space_group_crystal_system       triclinic
_cell_length_a                    18.887096
_cell_length_b                    19.129899
_cell_length_c                    18.928478
_cell_angle_alpha                 109.93916
_cell_angle_beta                  109.004241
_cell_angle_gamma                 109.360989
_cell_volume                      5271.49556528

loop_
_atom_site_label
_atom_site_type_symbol
_atom_type_description
_atom_site_fract_x
_atom_site_fract_y
_atom_site_fract_z
_atom_type_partial_charge
C1    C     C_R   0.382625 0.382904 0.500686 0.603445
C2    C     C_2   0.319230 0.318293 0.506066 0.261795
C3    C     C_2   0.487979 0.172489 0.246161 -0.105887
C4    C     C_R   0.497280 0.615265 0.618320 0.639339
C5    C     C_2   0.507192 0.183346 0.187106 -0.160420
C6    C     C_2   0.500220 0.244992 0.319979 0.357156
C7    C     C_2   0.489936 0.308605 0.311942 -0.068082
C8    C     C_2   0.821290 0.744346 0.497204 0.264286
C9    C     C_2   0.825889 0.820595 0.513495 0.335314
C10   C     C_2   0.762366 0.687278 0.514545 0.376123
C11   C     C_2   0.681029 0.672432 0.486627 -0.054955
C12   C     C_R   0.414467 0.674928 0.675063 -0.102360
C13   C     C_R   0.382110 0.997161 0.880255 0.568828
C14   C     C_R   0.499112 0.879350 0.877444 0.580431
C15   C     C_R   0.617949 0.999174 0.116047 0.620544
C16   C     C_R   0.617386 0.614598 0.497060 0.568814
C17   C     C_R   0.501608 0.115007 0.116675 0.541352
C18   C     C_R   0.879970 0.997559 0.382850 0.544180
C19   C     C_R   0.113629 0.116357 0.495819 0.554584
C20   C     C_R   0.121325 0.003543 0.616739 0.575435
C21   C     C_R   0.885420 0.883205 0.503443 0.605314
C22   C     C_2   0.241658 0.975141 0.668833 0.303946
C23   C     C_R   0.493814 0.678602 0.685108 -0.007323
C24   C     C_2   0.197531 0.015775 0.683972 -0.049336
C25   C     C_2   0.317236 0.993166 0.744164 0.336091
C26   C     C_2   0.311931 0.993049 0.813333 0.231095
C27   C     C_2   0.752317 0.012941 0.325834 -0.074101
C28   C     C_R   0.497284 0.379566 0.381357 0.554678
C29   C     C_2   0.807763 0.987997 0.313661 -0.097150
C30   C     C_2   0.678724 0.998335 0.251814 0.353547
C31   C     C_2   0.687573 0.008102 0.187490 0.366758
C32   C     C_R   0.332818 0.601782 0.609797 0.362543
C33   C     C_R   0.256324 0.604308 0.595642 0.339077
C34   C     C_R   0.572498 0.748093 0.756818 0.359450
C35   C     C_R   0.259889 0.677892 0.649576 0.346312
C36   C     C_R   0.338929 0.747855 0.718303 -0.121509
C37   C     C_R   0.416687 0.746052 0.734115 -0.151214
C38   C     C_3   0.371223 0.224151 0.493747 -0.094350
C39   C     C_3   0.839487 0.639367 0.412895 -0.068447
C40   C     C_3   0.221927 0.847591 0.573409 -0.051447
C41   C     C_3   0.242849 0.026108 0.888707 -0.109630
C42   C     C_3   0.158539 0.529441 0.452923 -0.021800
C43   C     C_3   0.696832 0.938895 0.869882 -0.031588
C44   C     C_R   0.574382 0.815997 0.817547 0.271127
C45   C     C_R   0.496537 0.813696 0.807653 -0.016062
C46   C     C_2   0.183793 0.256789 0.508419 -0.071154
C47   C     C_2   0.170369 0.177145 0.482902 -0.106467
C48   C     C_2   0.242625 0.313882 0.492140 0.403113
Cu1   Cu    Cu3+1 0.561020 0.499620 0.560640 1.168587
Cu2   Cu    Cu3+1 0.438980 0.500380 0.439360 1.035778
Cu3   Cu    Cu3+1 0.561070 0.057880 0.996780 1.051756
Cu4   Cu    Cu3+1 0.439050 0.935860 0.996810 1.057638
Cu5   Cu    Cu3+1 0.000000 0.061410 0.561410 1.040555
Cu6   Cu    Cu3+1 0.000000 0.938590 0.438590 1.046433
F1    F     F_    0.648247 0.750464 0.767863 -0.590192
F2    F     F_    0.218299 0.363665 0.465252 -0.560797
F3    F     F_    0.516260 0.242981 0.394529 -0.611541
F4    F     F_    0.780954 0.846478 0.549622 -0.647654
F5    F     F_    0.791100 0.648150 0.555655 -0.584044
F6    F     F_    0.325609 0.525645 0.563555 -0.566539
F7    F     F_    0.390072 0.003787 0.739179 -0.630767
F8    F     F_    0.603428 0.980948 0.253231 -0.619213
F9    F     F_    0.766871 0.040381 0.193851 -0.646899
F10   F     F_    0.186149 0.680747 0.636710 -0.598794
H1    H     H_    0.468123 0.111048 0.243519 0.189864
H2    H     H_    0.197349 0.152582 0.444403 0.129165
H3    H     H_    0.438892 0.263387 0.510778 0.204487
H4    H     H_    0.327384 0.192336 0.422812 0.097855
H5    H     H_    0.368472 0.172659 0.509177 0.172767
H6    H     H_    0.775991 0.617779 0.358735 0.082532
H7    H     H_    0.832151 0.597849 0.442124 0.198013
H8    H     H_    0.881574 0.631681 0.384989 0.152011
H9    H     H_    0.185820 0.816529 0.600327 0.171874
H10   H     H_    0.289061 0.859306 0.602339 0.172538
H11   H     H_    0.189363 0.801753 0.503144 0.140228
H12   H     H_    0.535769 0.246797 0.194807 0.103555
H13   H     H_    0.282983 0.094223 0.908325 0.087106
H14   H     H_    0.270548 0.013809 0.941616 0.156217
H15   H     H_    0.178211 0.016038 0.878541 0.169903
H16   H     H_    0.206177 0.521818 0.433188 0.157635
H17   H     H_    0.155891 0.587432 0.455184 0.098945
H18   H     H_    0.094051 0.472842 0.402497 0.167369
H19   H     H_    0.754059 0.995801 0.930522 0.160317
H20   H     H_    0.656493 0.961922 0.838112 0.116675
H21   H     H_    0.720568 0.909620 0.828125 0.186778
H22   H     H_    0.467182 0.304701 0.249381 0.041647
H23   H     H_    0.657855 0.699474 0.448384 0.099870
H24   H     H_    0.219653 0.062643 0.749753 0.079742
H25   H     H_    0.757949 0.039798 0.389344 0.169721
H26   H     H_    0.795850 0.952291 0.248511 0.171352
H27   H     H_    0.338437 0.803532 0.758363 0.175735
H28   H     H_    0.149007 0.278982 0.537651 0.169257
O1    O     O_R   0.462500 0.410660 0.551220 -0.513350
O2    O     O_R   0.910970 0.948690 0.359670 -0.511557
O3    O     O_R   0.089030 0.140870 0.551850 -0.505945
O4    O     O_R   0.359440 0.411300 0.448810 -0.447345
O5    O     O_R   0.089030 0.037160 0.448130 -0.505417
O6    O     O_R   0.089030 0.051310 0.640330 -0.523427
O7    O     O_R   0.089030 0.947590 0.536610 -0.444590
O8    O     O_R   0.910970 0.962840 0.551870 -0.466319
O9    O     O_R   0.910970 0.859130 0.448150 -0.506473
O10   O     O_R   0.551530 0.589280 0.640810 -0.449750
O11   O     O_R   0.448470 0.589920 0.538390 -0.482851
O12   O     O_R   0.359500 0.945890 0.908340 -0.507759
O13   O     O_R   0.640560 0.588700 0.551190 -0.422607
O14   O     O_R   0.537500 0.589340 0.448780 -0.539133
O15   O     O_R   0.551530 0.410080 0.461610 -0.452826
O16   O     O_R   0.448470 0.410720 0.359190 -0.543881
O17   O     O_R   0.462540 0.048930 0.908310 -0.480135
O18   O     O_3   0.346050 0.273923 0.543517 -0.607035
O19   O     O_3   0.879744 0.726357 0.476207 -0.548281
O20   O     O_3   0.221122 0.924084 0.584448 -0.528926
O21   O     O_3   0.232588 0.968225 0.810816 -0.594627
O22   O     O_3   0.177146 0.532392 0.532642 -0.456916
O23   O     O_R   0.551580 0.958790 0.907180 -0.489168
O24   O     O_3   0.651979 0.881364 0.891030 -0.511295
O25   O     O_R   0.448540 0.855750 0.907210 -0.513789
O26   O     O_R   0.640630 0.047850 0.085250 -0.470440
O27   O     O_R   0.537580 0.944800 0.085280 -0.480462
O28   O     O_R   0.551590 0.137990 0.086380 -0.514837
O29   O     O_R   0.448540 0.034950 0.086410 -0.507647
O30   O     O_R   0.910970 0.052410 0.463390 -0.502074

loop_
_geom_bond_atom_site_label_1
_geom_bond_atom_site_label_2
_ccdc_geom_bond_type
C42   H16   S    
Cu5   O3    S    
C43   H19   S    
Cu6   O9    S    
C35   C36   A    
C42   H18   S    
C3    C6    S    
C9    C21   S    
C19   O5    A    
C40   O20   S    
Cu5   Cu6   S    
C12   C23   A    
C33   O22   S    
C36   C37   A    
C1    C2    S    
Cu5   O30   S    
C41   H13   S    
C30   C31   D    
C19   C47   S    
C7    H22   S    
C27   C29   D    
C28   O15   A    
C14   O23   A    
C4    O11   A    
Cu3   O26   S    
C40   H9    S    
C9    F4    S    
C11   C16   S    
C12   C37   A    
C13   O17   A    
C17   O28   A    
C42   O22   S    
Cu4   O12   S    
C20   C24   S    
C11   H23   S    
C8    C9    D    
C22   C25   S    
C4    O10   A    
C39   H8    S    
C15   O27   A    
Cu6   O5    S    
C35   F10   S    
C38   O18   S    
C47   H2    S    
C16   O14   A    
C21   O9    A    
Cu4   O25   S    
C14   O25   A    
C39   O19   S    
C38   H5    S    
C34   F1    S    
Cu3   O17   S    
C12   C32   A    
C27   C30   S    
Cu2   O16   S    
C43   H20   S    
C6    F3    S    
C3    H1    S    
C42   H17   S    
C29   H26   S    
C14   C45   S    
Cu5   O8    S    
C46   C48   S    
Cu3   Cu4   S    
C43   H21   S    
C31   F9    S    
C34   C44   A    
Cu1   O15   S    
C8    O19   S    
Cu1   O10   S    
C4    C23   S    
Cu1   O13   S    
C2    C48   D    
C25   C26   D    
Cu3   O23   S    
C7    C28   S    
C43   O24   S    
Cu4   O29   S    
C23   C34   A    
Cu3   O28   S    
C20   O6    A    
C18   C29   S    
C25   F7    S    
C13   O12   A    
C24   H24   S    
C16   O13   A    
C18   O30   A    
C36   H27   S    
C17   O29   A    
C38   H4    S    
C22   O20   S    
C30   F8    S    
C18   O2    A    
C22   C24   D    
Cu6   O7    S    
C32   F6    S    
C37   C45   A    
C41   H14   S    
C19   O3    A    
C44   C45   A    
C48   F2    S    
C46   C47   D    
C2    O18   S    
C46   H28   S    
C21   O8    A    
C8    C10   S    
C41   O21   S    
C3    C5    D    
C41   H15   S    
C15   O26   A    
C15   C31   S    
C6    C7    D    
Cu5   O6    S    
C40   H11   S    
C32   C33   A    
C5    H12   S    
C10   F5    S    
C26   O21   S    
Cu2   O4    S    
C20   O7    A    
C28   O16   A    
C1    O4    A    
C33   C35   A    
C39   H6    S    
C40   H10   S    
C27   H25   S    
C13   C26   S    
Cu6   O2    S    
C10   C11   D    
Cu4   O27   S    
Cu2   O11   S    
C5    C17   S    
C38   H3    S    
C44   O24   S    
C1    O1    A    
Cu1   Cu2   S    
Cu2   O14   S    
C39   H7    S    
Cu1   O1    S    
