data_mof_unit_57742.cif
_audit_creation_date              2012-12-11T15:41:22-0500
_audit_creation_method            fapswitch 2.2
_symmetry_space_group_name_H-M    P1
_symmetry_Int_Tables_number       1
_space_group_crystal_system       triclinic
_cell_length_a                    14.842915
_cell_length_b                    14.815059
_cell_length_c                    14.854643
_cell_angle_alpha                 109.124205
_cell_angle_beta                  109.893984
_cell_angle_gamma                 109.350069
_cell_volume                      2515.88318976

loop_
_atom_site_label
_atom_site_type_symbol
_atom_type_description
_atom_site_fract_x
_atom_site_fract_y
_atom_site_fract_z
_atom_type_partial_charge
C1    C     C_R   0.194820 0.995480 0.903621 -0.117501
C2    C     C_R   0.813548 0.914548 0.420380 -0.115739
C3    C     C_R   0.193660 0.314021 0.974777 -0.173552
C4    C     C_R   0.713203 0.817402 0.340547 -0.150495
C5    C     C_R   0.299165 0.349054 0.058504 0.110280
C6    C     C_R   0.709742 0.731255 0.259935 0.112233
C7    C     C_R   0.307502 0.305496 0.130293 -0.138347
C8    C     C_R   0.808359 0.743860 0.260976 -0.177090
C9    C     C_R   0.212465 0.229922 0.119551 -0.096909
C10   C     C_R   0.908474 0.841061 0.341124 -0.114530
C11   C     C_R   0.108260 0.197528 0.037684 -0.083845
C12   C     C_R   0.748297 0.933101 0.025696 -0.119830
C13   C     C_R   0.911122 0.926113 0.420941 -0.083534
C14   C     C_R   0.403807 0.530205 0.075375 -0.229285
C15   C     C_R   0.600274 0.528934 0.167953 -0.230347
C16   C     C_R   0.804485 0.206585 0.299939 -0.145574
C17   C     C_R   0.250801 0.778372 0.684861 -0.126913
C18   C     C_R   0.504551 0.622082 0.113969 0.053950
C19   C     C_R   0.499363 0.430102 0.104329 0.052673
C20   C     C_R   0.603800 0.627024 0.177956 0.031491
C21   C     C_R   0.400891 0.435197 0.076144 0.032050
C22   C     C_R   0.042970 0.469556 0.372998 -0.241366
C23   C     C_R   0.872236 0.298186 0.301773 0.073534
C24   C     C_R   0.140166 0.472260 0.570826 -0.241380
C25   C     C_R   0.136450 0.565300 0.464438 0.073170
C26   C     C_R   0.050543 0.374816 0.478126 0.080541
C27   C     C_R   0.173502 0.571116 0.568340 0.057403
C28   C     C_R   0.990848 0.377993 0.382844 0.052507
C29   C     C_R   0.599426 0.161407 0.623197 -0.173067
C30   C     C_R   0.399427 0.059409 0.428715 -0.167978
C31   C     C_R   0.599478 0.159413 0.529457 -0.169967
C32   C     C_R   0.399265 0.061142 0.522348 -0.162256
C33   C     C_R   0.499559 0.097123 0.428974 0.142316
C34   C     C_R   0.228147 0.674945 0.672605 0.065363
C35   C     C_R   0.499354 0.102002 0.616515 0.140378
C36   C     C_R   0.962669 0.838544 0.939500 -0.175655
C37   C     C_R   0.866218 0.935672 0.836693 -0.186145
C38   C     C_R   0.870839 0.840376 0.941527 -0.165949
C39   C     C_R   0.958182 0.933706 0.834446 -0.165592
C40   C     C_R   0.407513 0.974106 0.222303 -0.126126
C41   C     C_R   0.591328 0.096148 0.791399 -0.139918
C42   C     C_R   0.830995 0.900915 0.901849 0.141613
C43   C     C_R   0.013780 0.896088 0.896547 0.139211
C44   C     C_R   0.591603 0.314593 0.068145 -0.121895
C45   C     C_R   0.499808 0.052063 0.325712 0.038155
C46   C     C_R   0.410448 0.701836 0.009027 -0.133945
C47   C     C_R   0.592267 0.066548 0.314945 -0.128372
C48   C     C_R   0.408113 0.004599 0.699620 -0.126040
C49   C     C_R   0.407100 0.222627 0.973290 -0.132633
C50   C     C_R   0.593046 0.792313 0.096896 -0.149398
C51   C     C_R   0.806928 0.298056 0.208630 -0.138702
C52   C     C_R   0.253816 0.685512 0.776625 -0.123934
C53   C     C_R   0.195265 0.903582 0.995054 -0.149762
C54   C     C_R   0.748418 0.025722 0.933495 -0.131276
C55   C     C_R   0.130300 0.932158 0.931940 0.047117
C56   C     C_R   0.499533 0.067365 0.697960 0.050008
C57   C     C_R   0.773578 0.947303 0.947683 0.033941
C58   C     C_1   0.191110 0.653633 0.447545 0.007848
C59   C     C_1   0.024551 0.276040 0.486235 -0.006742
C60   C     C_R   0.498829 0.325835 0.053904 0.054840
C61   C     C_R   0.503171 0.701320 0.074002 0.065665
C62   C     C_R   0.098789 0.238495 0.964576 -0.124579
H1    H     H_    0.166940 0.019509 0.842859 0.086906
H2    H     H_    0.984116 0.850311 0.341583 0.107606
H3    H     H_    0.327435 0.531643 0.043797 0.118895
H4    H     H_    0.676860 0.529930 0.207864 0.123655
H5    H     H_    0.008436 0.469844 0.296271 0.124616
H6    H     H_    0.178728 0.471171 0.646466 0.126668
H7    H     H_    0.678333 0.200007 0.696653 0.105910
H8    H     H_    0.320636 0.017797 0.354164 0.106976
H9    H     H_    0.678322 0.196484 0.534260 0.109427
H10   H     H_    0.320347 0.020577 0.516270 0.107594
H11   H     H_    0.998969 0.801952 0.981860 0.107247
H12   H     H_    0.758346 0.879562 0.057944 0.095072
H13   H     H_    0.831971 0.975942 0.798183 0.110435
H14   H     H_    0.827035 0.170930 0.349999 0.113259
H15   H     H_    0.237831 0.802807 0.623190 0.112535
H16   H     H_    0.840170 0.805070 0.985209 0.109528
H17   H     H_    0.991481 0.972532 0.794293 0.113780
H18   H     H_    0.321757 0.941560 0.199654 0.093586
H19   H     H_    0.675817 0.157203 0.825047 0.083421
H20   H     H_    0.677324 0.377405 0.123223 0.094791
H21   H     H_    0.326207 0.651259 0.986428 0.085680
H22   H     H_    0.677917 0.119794 0.378542 0.094208
H23   H     H_    0.017826 0.212267 0.900436 0.104288
H24   H     H_    0.323468 0.981272 0.648404 0.084274
H25   H     H_    0.321206 0.199818 0.937701 0.116151
H26   H     H_    0.678922 0.825963 0.153126 0.118888
H27   H     H_    0.834753 0.348812 0.175030 0.086698
H28   H     H_    0.246120 0.622335 0.799200 0.095559
H29   H     H_    0.168101 0.842097 0.018163 0.087646
H30   H     H_    0.758656 0.058330 0.880368 0.092657
H31   H     H_    0.034902 0.140704 0.031072 0.120730
H32   H     H_    0.988918 0.000820 0.483416 0.111006
H33   H     H_    0.815757 0.980618 0.482196 0.110610
H34   H     H_    0.184648 0.344978 0.917462 0.108434
H35   H     H_    0.638343 0.809092 0.341667 0.120304
H36   H     H_    0.387597 0.331495 0.195858 0.117464
H37   H     H_    0.807642 0.678776 0.199529 0.109642
H38   H     H_    0.219601 0.197411 0.175551 0.113926
N1    N     N_R   0.293810 0.002730 0.945950 -0.040444
N2    N     N_R   0.443210 0.997250 0.791090 -0.038860
N3    N     N_R   0.443180 0.152110 0.945950 -0.043249
N4    N     N_R   0.556820 0.847890 0.054050 -0.039946
N5    N     N_R   0.706170 0.208950 0.152090 -0.040107
N6    N     N_R   0.293830 0.791050 0.847910 -0.041262
N7    N     N_R   0.293800 0.945910 0.002760 -0.037654
N8    N     N_R   0.706200 0.054090 0.997240 -0.038701
N9    N     N_1   0.234759 0.723784 0.433098 -0.095072
N10   N     N_1   0.005332 0.197532 0.494082 -0.111568
N11   N     N_R   0.706190 0.997270 0.054050 -0.038941
N12   N     N_R   0.706160 0.152130 0.208910 -0.040998
N13   N     N_R   0.293840 0.847870 0.791090 -0.044012
N14   N     N_R   0.443140 0.945920 0.152090 -0.039674
N15   N     N_R   0.556860 0.054080 0.847910 -0.036681
N16   N     N_R   0.556830 0.208940 0.002760 -0.041329
N17   N     N_R   0.443170 0.791060 0.997240 -0.039127
N18   N     N_R   0.556790 0.002750 0.208910 -0.039151
Ni1   Ni    Ni4+2 0.369690 0.999990 0.869700 0.209545
Ni2   Ni    Ni4+2 0.630310 0.000010 0.130300 0.218192
Ni3   Ni    Ni4+2 0.369670 0.869670 0.000000 0.209634
Ni4   Ni    Ni4+2 0.630330 0.130330 0.000000 0.209214

loop_
_geom_bond_atom_site_label_1
_geom_bond_atom_site_label_2
_ccdc_geom_bond_type
N1    N7    A    
C50   N4    A    
C7    H36   S    
C12   H12   S    
C58   N9    T    
C33   C45   S    
C49   H25   S    
C52   H28   S    
C24   C27   A    
C11   C62   A    
C9    H38   S    
C17   N13   A    
C32   H10   S    
C15   C19   A    
C49   C60   A    
N16   Ni4   S    
C14   C21   A    
C2    H33   S    
C19   C21   A    
C8    H37   S    
C24   C26   A    
C38   C42   A    
C44   H20   S    
C59   N10   T    
C48   C56   A    
C45   C47   A    
C37   C42   A    
C2    C13   A    
N17   Ni3   S    
N2    N15   A    
N13   Ni1   S    
N14   Ni3   S    
C47   N18   A    
C40   N14   A    
C22   C25   A    
C53   H29   S    
C40   H18   S    
C3    H34   S    
C26   C59   S    
C50   H26   S    
C11   H31   S    
C31   H9    S    
C37   H13   S    
C48   N2    A    
N15   Ni4   S    
C22   C28   A    
C4    H35   S    
C40   C45   A    
C41   N15   A    
C1    H1    S    
C42   C57   S    
C30   H8    S    
C29   H7    S    
C53   C55   A    
C27   C34   S    
C15   C20   A    
C62   H23   S    
N3    Ni1   S    
C31   C33   A    
N6    N13   A    
N1    Ni1   S    
C32   C35   A    
C4    C6    A    
C5    C7    A    
C39   C43   A    
C46   C61   A    
C47   H22   S    
C15   H4    S    
C46   N17   A    
N11   Ni2   S    
C39   H17   S    
C2    C4    A    
C41   C56   A    
C54   H30   S    
C53   N7    A    
C23   C51   A    
C51   N5    A    
C41   H19   S    
C17   H15   S    
C23   C28   S    
C9    C11   A    
N14   N18   A    
C12   C57   A    
C43   C55   S    
N5    N12   A    
C16   C23   A    
C48   H24   S    
C25   C58   S    
N7    Ni3   S    
C1    N1    A    
C16   N12   A    
N12   Ni2   S    
N4    N17   A    
C3    C62   A    
C7    C9    A    
C30   C33   A    
C35   C56   S    
C16   H14   S    
C34   C52   A    
C14   C18   A    
C8    C10   A    
C10   H2    S    
N8    Ni4   S    
C3    C5    A    
C10   C13   A    
C49   N3    A    
C6    C8    A    
C18   C61   S    
C19   C60   S    
C25   C27   A    
C38   H16   S    
C6    C20   S    
C29   C35   A    
C26   C28   A    
N8    N11   A    
C54   N8    A    
C13   H32   S    
C36   C38   A    
N3    N16   A    
C1    C55   A    
C29   C31   A    
C51   H27   S    
C30   C32   A    
C44   C60   A    
N6    Ni3   S    
C14   H3    S    
N5    Ni4   S    
C18   C20   A    
N18   Ni2   S    
C22   H5    S    
C36   H11   S    
C24   H6    S    
C52   N6    A    
C46   H21   S    
C5    C21   S    
C44   N16   A    
C37   C39   A    
C17   C34   A    
C50   C61   A    
C36   C43   A    
C12   N11   A    
N2    Ni1   S    
N4    Ni2   S    
C54   C57   A    
