data_mof_unit_54642.cif
_audit_creation_date              2013-03-05T16:18:42-0500
_audit_creation_method            fapswitch 2.2
_symmetry_space_group_name_H-M    P1
_symmetry_Int_Tables_number       1
_space_group_crystal_system       triclinic
_cell_length_a                    15.662761
_cell_length_b                    10.772637
_cell_length_c                    9.917762
_cell_angle_alpha                 88.905691
_cell_angle_beta                  88.667677
_cell_angle_gamma                 89.75247
_cell_volume                      1672.64632363

loop_
_atom_site_label
_atom_site_type_symbol
_atom_site_description
_atom_site_fract_x
_atom_site_fract_y
_atom_site_fract_z
_atom_type_partial_charge
O1    O     O_R   0.499980 0.314910 0.616040 -0.575758
O2    O     O_R   0.500040 0.314680 0.383960 -0.583738
C1    C     C_R   0.502182 0.257854 0.499932 0.984553
O3    O     O_R   0.376750 0.500100 0.616020 -0.616321
O4    O     O_R   0.376810 0.499870 0.383940 -0.609604
C2    C     C_R   0.338365 0.500161 0.501346 0.947146
Zn1   Zn    Zn3+2 0.499960 0.500150 0.654960 0.988323
Zn2   Zn    Zn3+2 0.500040 0.499850 0.345040 1.069540
O5    O     O_R   0.499960 0.685320 0.616040 -0.675019
O6    O     O_R   0.500020 0.685090 0.383960 -0.570345
O7    O     O_R   0.623190 0.500130 0.616060 -0.658963
O8    O     O_R   0.623250 0.499900 0.383980 -0.533786
C3    C     C_R   0.502776 0.741119 0.499651 0.886476
C4    C     C_R   0.661615 0.500791 0.498694 0.957716
C5    C     C_3   0.969414 0.398178 0.569096 -0.195024
C6    C     C_3   0.029947 0.397059 0.443186 -0.139932
H1    H     H_    0.056749 0.313095 0.394385 0.185538
H2    H     H_    0.942655 0.315516 0.623390 0.180334
H3    H     H_    0.953346 0.498022 0.268143 0.176936
C7    C     C_1   0.249326 0.499774 0.504486 -0.060002
C8    C     C_1   0.750627 0.500885 0.496147 -0.029586
C9    C     C_3   0.023552 0.500868 0.630463 0.010986
C10   C     C_3   0.082807 0.499549 0.506182 0.147255
C11   C     C_3   0.969286 0.602863 0.562769 -0.226960
C12   C     C_3   0.916929 0.500171 0.499506 0.149934
C13   C     C_3   0.029799 0.601311 0.436880 -0.168304
C14   C     C_3   0.975447 0.498831 0.373680 -0.110191
C15   C     C_1   0.173856 0.499509 0.506094 0.047002
C16   C     C_1   0.826054 0.500632 0.496475 0.013352
H4    H     H_    0.056460 0.684185 0.382899 0.175238
H5    H     H_    0.942438 0.686643 0.611921 0.171045
C17   C     C_3   0.560275 0.068900 0.618815 -0.322672
H6    H     H_    0.528258 0.093196 0.714582 0.244167
C18   C     C_3   0.564097 0.923791 0.615643 -0.238488
H7    H     H_    0.536722 0.890260 0.714439 0.156468
H8    H     H_    0.394369 0.894352 0.635602 0.203420
C19   C     C_3   0.408079 0.068488 0.513602 0.444177
C20   C     C_3   0.551185 0.066127 0.367457 0.138931
C21   C     C_3   0.504013 0.120194 0.498249 -0.223084
H9    H     H_    0.620892 0.077451 0.380351 0.218941
C22   C     C_3   0.505333 0.876864 0.501805 -0.026256
C23   C     C_3   0.413512 0.923936 0.531190 -0.485795
C24   C     C_3   0.536759 0.927182 0.363222 -0.385462
H10   H     H_    0.597495 0.882082 0.331528 0.244890
H11   H     H_    0.488453 0.905883 0.287382 0.256682
H12   H     H_    0.367834 0.873701 0.468390 0.227952
C25   C     C_3   0.429487 0.417393 0.088157 -0.424311
H13   H     H_    0.365698 0.443689 0.129303 0.183016
H14   H     H_    0.436017 0.322978 0.131820 0.266761
C26   C     C_3   0.431804 0.410917 0.927357 -0.162948
H15   H     H_    0.445219 0.314144 0.900684 0.258677
H16   H     H_    0.412671 0.650709 0.875470 0.146599
C27   C     C_3   0.478001 0.627107 0.074950 -0.025662
C28   C     C_3   0.579131 0.443339 0.073750 0.175122
N1    N     N_3   0.498170 0.499750 0.138610 -0.141804
H17   H     H_    0.569801 0.342556 0.086282 0.194257
N2    N     N_3   0.498850 0.496730 0.861320 -0.143647
C29   C     C_3   0.475672 0.621562 0.913933 -0.449921
C30   C     C_3   0.586774 0.462748 0.914388 0.172577
H18   H     H_    0.514371 0.694908 0.863382 0.207178
N3    N     N_R   0.362244 0.119529 0.633307 0.199565
O9    O     O_R   0.383970 0.088942 0.755410 -0.377489
O10   O     O_R   0.290523 0.179399 0.618933 -0.287039
N4    N     N_R   0.534451 0.120891 0.233930 0.208256
O11   O     O_R   0.460752 0.107269 0.178720 -0.330508
O12   O     O_R   0.600280 0.137737 0.153421 -0.330118
N5    N     N_R   0.358314 0.103164 0.392511 0.243441
O13   O     O_R   0.319153 0.020708 0.322404 -0.308822
O14   O     O_R   0.343051 0.219562 0.364332 -0.365447
C31   C     C_2   0.342026 0.431639 0.877472 0.557561
H19   H     H_    0.309243 0.519462 0.889518 0.051107
O15   O     O_2   0.302894 0.346732 0.828040 -0.438837
C32   C     C_2   0.389983 0.674380 0.124139 0.399963
H20   H     H_    0.332251 0.637330 0.082584 0.058629
O16   O     O_2   0.381402 0.756282 0.206791 -0.552690
N6    N     N_R   0.660892 0.456216 0.144302 0.239255
O17   O     O_R   0.710419 0.552055 0.128442 -0.305032
O18   O     O_R   0.694649 0.357144 0.199107 -0.326760
N7    N     N_R   0.617848 0.342790 0.856918 0.193467
O19   O     O_R   0.576758 0.240005 0.881178 -0.417413
O20   O     O_R   0.696508 0.330693 0.813286 -0.410772
C33   C     C_2   0.655046 0.562526 0.872973 0.495339
H21   H     H_    0.709109 0.540605 0.807698 0.127423
O21   O     O_2   0.654359 0.668462 0.913307 -0.615735
C34   C     C_2   0.541282 0.727161 0.108894 0.606588
H22   H     H_    0.533514 0.819731 0.065270 0.070728
O22   O     O_2   0.600694 0.708219 0.183072 -0.492250
C35   C     C_2   0.048574 0.502063 0.775244 0.443344
H23   H     H_    0.999385 0.502401 0.854027 0.073248
O23   O     O_2   0.123630 0.502720 0.805423 -0.540836
C36   C     C_2   0.648582 0.126733 0.630974 0.614838
H24   H     H_    0.688147 0.097217 0.714192 0.131837
O24   O     O_2   0.676193 0.205729 0.551714 -0.573499
C37   C     C_2   0.653292 0.866946 0.607684 0.343791
H25   H     H_    0.673086 0.802142 0.685942 0.121881
O25   O     O_2   0.702988 0.891338 0.514362 -0.554623

loop_
_geom_bond_atom_site_label_1
_geom_bond_atom_site_label_2
_geom_bond_distance
_ccdc_geom_bond_type
C5    H2    1.110408 S    
C22   C23   1.546043 S    
C32   O16   1.220637 D    
C32   H20   1.083304 S    
C35   O23   1.219893 D    
H8    C23   1.112465 S    
C30   C33   1.562106 S    
C3    C22   1.463631 S    
C25   H14   1.103088 S    
C34   H22   1.086907 S    
Zn1   O7    1.959486 S    
C13   C14   1.547822 S    
C4    C8    1.393820 S    
C11   C13   1.550183 S    
C20   C21   1.596357 S    
O7    C4    1.297808 A    
N2    C30   1.526274 S    
C17   C36   1.527694 S    
C29   H18   1.103602 S    
C5    C6    1.550444 S    
C18   H7    1.114755 S    
C23   H12   1.108864 S    
C10   C13   1.534071 S    
C19   C23   1.565801 S    
N3    O10   1.302258 A    
O5    C3    1.291156 A    
C5    C9    1.539825 S    
C6    H1    1.110235 S    
C31   H19   1.081787 S    
C9    C35   1.497502 S    
H3    C14   1.110266 S    
C6    C14   1.547993 S    
C34   O22   1.213783 D    
C1    C21   1.483525 S    
C22   C24   1.538682 S    
C37   H25   1.083745 S    
C18   C22   1.565736 S    
O3    Zn1   1.976864 S    
Zn2   N1    2.048235 S    
C25   C26   1.597203 S    
C20   N4    1.468143 S    
C28   C30   1.592127 S    
C27   N1    1.534005 S    
C12   C16   1.424342 S    
C28   H17   1.100416 S    
C31   O15   1.220085 D    
N5    O13   1.302616 A    
N6    O17   1.299026 A    
O3    C2    1.298728 A    
C30   N7    1.497158 S    
C36   H24   1.085519 S    
N7    O20   1.303117 A    
C7    C15   1.181816 T    
C8    C16   1.181474 T    
N5    O14   1.301806 A    
N4    O12   1.300522 A    
C24   H10   1.108035 S    
C36   O24   1.221045 D    
C25   H13   1.108158 S    
Zn2   O8    1.976864 S    
C26   H15   1.098627 S    
C10   C15   1.426063 S    
C11   C12   1.532415 S    
C37   O25   1.220878 D    
C24   H11   1.106979 S    
H16   C29   1.108182 S    
C28   N6    1.481786 S    
O8    C4    1.299162 A    
C13   H4    1.110227 S    
C6    C10   1.533993 S    
C33   O21   1.216391 D    
C9    C11   1.539717 S    
C25   N1    1.498338 S    
Zn1   O5    2.024522 S    
C28   N1    1.536699 S    
O1    Zn1   2.039735 S    
C26   N2    1.529559 S    
C27   C32   1.539488 S    
O2    Zn2   2.024523 S    
C18   C37   1.523897 S    
N6    O18   1.303993 A    
O6    C3    1.308307 A    
O4    Zn2   1.959486 S    
C19   N3    1.486302 S    
C27   C29   1.600450 S    
C12   C14   1.531323 S    
C2    C7    1.394246 S    
C17   H6    1.099227 S    
O2    C1    1.293640 A    
C26   C31   1.515693 S    
C11   H5    1.110410 S    
C20   C24   1.516248 S    
C19   C21   1.607659 S    
N4    O11   1.299140 A    
C20   H9    1.109744 S    
N2    C29   1.492067 S    
O4    C2    1.298439 A    
C19   N5    1.487703 S    
N3    O9    1.301467 A    
C5    C12   1.532629 S    
N7    O19   1.298812 A    
C35   H23   1.084515 S    
Zn2   O6    2.039735 S    
C33   H21   1.081912 S    
C17   C21   1.590982 S    
C9    C10   1.525836 S    
C27   C34   1.515279 S    
O1    C1    1.315297 A    
Zn1   N2    2.045927 S    
C17   C18   1.564979 S    
