data_mof_unit_59563.cif
_audit_creation_date              2012-12-10T18:10:52-0500
_audit_creation_method            fapswitch 2.2
_symmetry_space_group_name_H-M    P1
_symmetry_Int_Tables_number       1
_space_group_crystal_system       triclinic
_cell_length_a                    12.742729
_cell_length_b                    13.157744
_cell_length_c                    15.712479
_cell_angle_alpha                 93.712894
_cell_angle_beta                  101.776758
_cell_angle_gamma                 81.76721
_cell_volume                      2550.69254034

loop_
_atom_site_label
_atom_site_type_symbol
_atom_type_description
_atom_site_fract_x
_atom_site_fract_y
_atom_site_fract_z
_atom_type_partial_charge
C1    C     C_R   0.439322 0.690558 0.486719 0.829003
C2    C     C_3   0.452134 0.618063 0.046090 -0.395517
C3    C     C_3   0.495706 0.509995 0.082763 0.201814
C4    C     C_3   0.421548 0.431447 0.033798 0.367557
C5    C     C_3   0.416721 0.434507 0.933933 -0.105980
C6    C     C_1   0.493844 0.510624 0.174299 -0.049533
C7    C     C_1   0.499255 0.506887 0.825512 -0.054097
C8    C     C_1   0.500766 0.504697 0.750263 -0.186709
C9    C     C_R   0.724116 0.051626 0.504877 0.477466
C10   C     C_R   0.596646 0.200325 0.527083 -0.138885
C11   C     C_R   0.297040 0.837813 0.492018 -0.192537
C12   C     C_R   0.500404 0.501351 0.661092 0.883461
C13   C     C_R   0.267905 0.942514 0.503881 -0.151898
C14   C     C_R   0.343682 0.009505 0.506552 -0.191319
C15   C     C_R   0.449231 0.972772 0.491829 0.112121
C16   C     C_R   0.472097 0.868569 0.466779 0.088970
C17   C     C_R   0.533734 0.034651 0.502562 0.022980
C18   C     C_R   0.637267 0.992545 0.485900 0.044906
C19   C     C_R   0.650594 0.894452 0.447285 -0.235530
C20   C     C_R   0.567390 0.834853 0.434648 -0.209425
C21   C     C_R   0.517527 0.138136 0.526989 -0.258844
C22   C     C_R   0.703058 0.155925 0.526808 -0.312762
C23   C     C_R   0.560562 0.309650 0.514821 0.900384
C24   C     C_R   0.400589 0.799953 0.477031 -0.111204
C25   C     C_R   0.084122 0.392139 0.344788 -0.280888
C26   C     C_R   0.796525 0.630194 0.605721 0.028730
C27   C     C_R   0.894144 0.669392 0.621324 -0.290393
C28   C     C_R   0.973363 0.628150 0.575293 -0.136346
C29   C     C_R   0.957015 0.544626 0.515054 -0.031771
C30   C     C_R   0.852946 0.511861 0.495493 0.112035
C31   C     C_R   0.038842 0.494631 0.471300 -0.004810
C32   C     C_R   0.008077 0.438216 0.392926 0.086696
C33   C     C_R   0.902853 0.420009 0.366479 -0.390671
C34   C     C_R   0.498358 0.501932 0.338874 0.917097
C35   C     C_R   0.831204 0.438264 0.424342 0.476001
C36   C     C_R   0.150372 0.493004 0.503570 0.185160
C37   C     C_R   0.192026 0.396821 0.377654 -0.009038
C38   C     C_3   0.463005 0.618550 0.950080 -0.482578
C39   C     C_3   0.613738 0.471589 0.968307 -0.088087
C40   C     C_3   0.613727 0.474919 0.067653 -0.184782
C41   C     C_1   0.494451 0.507558 0.249642 -0.195006
C42   C     C_3   0.497127 0.507318 0.916914 0.214066
H1    H     H_    0.495720 0.678428 0.084807 0.164549
H2    H     H_    0.385977 0.654020 0.909819 0.180401
H3    H     H_    0.365568 0.638565 0.050519 0.215059
H4    H     H_    0.461430 0.353335 0.054920 -0.016426
H5    H     H_    0.767492 0.203283 0.534471 0.177416
H6    H     H_    0.725208 0.863292 0.426715 0.180390
H7    H     H_    0.440935 0.174560 0.539535 0.167835
H8    H     H_    0.240071 0.786372 0.498335 0.154799
H9    H     H_    0.316346 0.088876 0.520464 0.130011
H10   H     H_    0.188074 0.971415 0.515823 0.147025
H11   H     H_    0.524920 0.668254 0.944684 0.178561
H12   H     H_    0.579544 0.760940 0.401149 0.171240
H13   H     H_    0.252252 0.363889 0.340607 0.144792
H14   H     H_    0.882055 0.378834 0.305083 0.159017
H15   H     H_    0.060508 0.350429 0.283717 0.154689
H16   H     H_    0.733626 0.663252 0.640101 0.136640
H17   H     H_    0.044341 0.666586 0.584432 0.156316
H18   H     H_    0.907561 0.733079 0.667599 0.147105
H19   H     H_    0.667233 0.526552 0.955382 0.179448
H20   H     H_    0.640409 0.396333 0.092764 0.153080
H21   H     H_    0.443148 0.355284 0.910373 0.117921
N1    N     N_R   0.222200 0.444690 0.455710 -0.120632
N2    N     N_R   0.776960 0.554780 0.543830 -0.114774
O1    O     O_R   0.366740 0.627160 0.478850 -0.622025
O2    O     O_R   0.544830 0.662520 0.507140 -0.625347
O3    O     O_R   0.410920 0.482310 0.608710 -0.640782
O4    O     O_R   0.589010 0.517670 0.637000 -0.614217
O5    O     O_R   0.455170 0.337480 0.492860 -0.622077
O6    O     O_R   0.633260 0.372840 0.521150 -0.557925
O7    O     O_R   0.410990 0.482330 0.363000 -0.621229
O8    O     O_R   0.589080 0.517690 0.391290 -0.559964
Zn1   Zn    Zn3+2 0.381090 0.476390 0.481110 0.921913
Zn2   Zn    Zn3+2 0.618910 0.523610 0.518890 0.974459
O9    O     O_3   0.825701 0.012846 0.489578 -0.664055
C43   C     C_3   0.882661 0.949229 0.557916 0.065110
H22   H     H_    0.928154 0.882425 0.528378 0.167695
H23   H     H_    0.829674 0.916941 0.594939 0.125446
C44   C     C_3   0.963361 0.008283 0.620243 -0.340837
H24   H     H_    0.015357 0.040579 0.582894 0.226013
H25   H     H_    0.918639 0.072959 0.652844 0.218504
C45   C     C_3   0.034949 0.938675 0.689137 -0.979700
H26   H     H_    0.984803 0.907167 0.728528 0.262416
H27   H     H_    0.092779 0.983589 0.733054 0.268901
H28   H     H_    0.081630 0.874206 0.657910 0.259127
N3    N     N_3   0.188979 0.533820 0.588755 -0.485978
H29   H     H_    0.231235 0.473689 0.627326 0.210837
H30   H     H_    0.238330 0.589306 0.584286 0.215708
O10   O     O_3   0.741006 0.386993 0.411492 -0.582051
C46   C     C_3   0.750360 0.290019 0.365687 0.103249
H31   H     H_    0.701272 0.241208 0.390495 0.185583
H32   H     H_    0.833955 0.247818 0.379480 0.108365
C47   C     C_3   0.705518 0.298661 0.267255 -0.402550
H33   H     H_    0.688839 0.380455 0.249976 0.238923
H34   H     H_    0.767310 0.260060 0.230912 0.188474
C48   C     C_3   0.602523 0.248273 0.237319 -0.915081
H35   H     H_    0.618889 0.165261 0.251599 0.262652
H36   H     H_    0.574401 0.255428 0.166163 0.239213
H37   H     H_    0.537643 0.285773 0.270883 0.264771
N4    N     N_3   0.657406 0.369345 0.937688 -0.465629
H38   H     H_    0.740022 0.356380 0.964885 0.197353
H39   H     H_    0.621802 0.312282 0.960211 0.167187
N5    N     N_3   0.692664 0.540527 0.114602 -0.465424
H40   H     H_    0.694797 0.540747 0.181438 0.195395
H41   H     H_    0.671679 0.616154 0.094602 0.198195
N6    N     N_3   0.305219 0.462669 0.886245 -0.428632
H42   H     H_    0.274396 0.537024 0.904117 0.226312
H43   H     H_    0.303582 0.459671 0.819358 0.181254
O11   O     O_3   0.316544 0.454912 0.054017 -0.628653
C49   C     C_3   0.276600 0.364788 0.070137 0.099257
H44   H     H_    0.328489 0.327566 0.128750 0.134087
H45   H     H_    0.274485 0.310017 0.012843 0.143983
C50   C     C_3   0.162002 0.393424 0.087053 -0.302159
H46   H     H_    0.163591 0.447638 0.144473 0.227603
H47   H     H_    0.109689 0.432255 0.029641 0.229618
C51   C     C_3   0.114087 0.298639 0.104104 -1.004675
H48   H     H_    0.110471 0.243853 0.047067 0.270402
H49   H     H_    0.030728 0.321986 0.115610 0.265167
H50   H     H_    0.163876 0.259888 0.162485 0.261519

loop_
_geom_bond_atom_site_label_1
_geom_bond_atom_site_label_2
_ccdc_geom_bond_type
C12   O4    A    
C20   H12   S    
N4    H38   S    
N6    H43   S    
C19   C20   A    
N3    H29   S    
C3    C6    S    
C37   N1    A    
N5    H41   S    
C50   H46   S    
C7    C8    T    
C4    H4    S    
C43   H22   S    
C10   C22   A    
C12   O3    A    
C26   C27   A    
C30   C35   A    
C28   C29   A    
C38   C42   S    
C27   H18   S    
C51   H49   S    
C14   H9    S    
C9    C22   A    
C28   H17   S    
C46   H32   S    
O3    Zn1   S    
C15   C16   A    
O1    Zn1   S    
C48   H35   S    
C11   C24   A    
C40   H20   S    
C5    H21   S    
C18   C19   A    
C7    C42   S    
O11   C49   S    
C25   C37   A    
C31   C32   A    
C6    C41   T    
O5    Zn1   S    
N6    H42   S    
C9    O9    S    
C16   C20   A    
C33   H14   S    
C22   H5    S    
C16   C24   A    
C13   C14   A    
O8    Zn2   S    
C23   O5    A    
C34   C41   S    
C25   H15   S    
C44   C45   S    
C21   H7    S    
N5    H40   S    
C48   H36   S    
C39   N4    S    
C39   C42   S    
C43   H23   S    
C36   N3    S    
C39   H19   S    
C50   C51   S    
C23   O6    A    
O9    C43   S    
O7    Zn1   S    
C51   H50   S    
C39   C40   S    
C19   H6    S    
C4    C5    S    
C47   C48   S    
C17   C21   A    
C1    O1    A    
C38   H2    S    
C29   C30   A    
C40   N5    S    
C13   H10   S    
C2    C38   S    
C45   H26   S    
C2    H1    S    
C8    C12   S    
C17   C18   A    
C49   H45   S    
C47   H34   S    
C26   H16   S    
C44   H25   S    
C45   H27   S    
C3    C40   S    
N3    H30   S    
O2    Zn2   S    
C3    C4    S    
C34   O7    A    
C46   H31   S    
C48   H37   S    
C5    C42   S    
C5    N6    S    
C43   C44   S    
C15   C17   A    
C4    O11   S    
C49   H44   S    
C14   C15   A    
C26   N2    A    
C44   H24   S    
C10   C21   A    
C50   H47   S    
C1    O2    A    
C10   C23   S    
N2    Zn2   S    
C32   C33   A    
C2    C3    S    
C29   C31   A    
C11   H8    S    
C51   H48   S    
C46   C47   S    
O6    Zn2   S    
C11   C13   A    
O10   C46   S    
C38   H11   S    
C25   C32   A    
C33   C35   A    
O4    Zn2   S    
C49   C50   S    
C47   H33   S    
C30   N2    A    
C2    H3    S    
C34   O8    A    
C37   H13   S    
C35   O10   S    
C9    C18   A    
C45   H28   S    
C1    C24   S    
N4    H39   S    
C27   C28   A    
N1    Zn1   S    
C31   C36   A    
C36   N1    A    
