data_mof_unit_64877.cif
_audit_creation_date              2012-12-10T18:40:28-0500
_audit_creation_method            fapswitch 2.2
_symmetry_space_group_name_H-M    P1
_symmetry_Int_Tables_number       1
_space_group_crystal_system       triclinic
_cell_length_a                    10.779922
_cell_length_b                    11.574782
_cell_length_c                    16.73619
_cell_angle_alpha                 90.01445
_cell_angle_beta                  84.44059
_cell_angle_gamma                 90.022109
_cell_volume                      2078.43944087

loop_
_atom_site_label
_atom_site_type_symbol
_atom_type_description
_atom_site_fract_x
_atom_site_fract_y
_atom_site_fract_z
_atom_type_partial_charge
C1    C     C_R   0.500015 0.718834 0.499989 0.893374
C2    C     C_R   0.499982 0.281162 0.499997 0.909023
C3    C     C_1   0.500016 0.838944 0.500037 -0.178668
C4    C     C_1   0.499946 0.161034 0.500016 -0.182499
C5    C     C_1   0.499983 0.940829 0.500053 0.014615
C6    C     C_1   0.499950 0.059144 0.500039 0.012807
C7    C     C_1   0.930236 0.500005 0.500005 0.055482
C8    C     C_1   0.069764 0.500007 0.499997 0.057662
C9    C     C_R   0.482076 0.505536 0.653648 0.857426
C10   C     C_R   0.518065 0.500926 0.346088 0.848178
C11   C     C_R   0.470485 0.533108 0.738759 -0.152896
C12   C     C_R   0.532431 0.529787 0.261312 -0.157976
C13   C     C_R   0.559126 0.486944 0.785427 -0.245763
C14   C     C_R   0.453164 0.615031 0.235367 -0.238463
C15   C     C_R   0.559640 0.519192 0.864950 -0.141354
C16   C     C_R   0.472183 0.658161 0.158088 -0.152017
C17   C     C_R   0.471206 0.598329 0.898971 0.094356
C18   C     C_R   0.569933 0.615335 0.105316 0.096463
C19   C     C_R   0.378755 0.640618 0.854029 -0.162516
C20   C     C_R   0.652687 0.533865 0.131651 -0.156711
C21   C     C_R   0.379634 0.612238 0.773188 0.436791
C22   C     C_R   0.633933 0.488580 0.208932 0.444786
C23   C     C_2   0.469036 0.630703 0.983277 -0.197148
C24   C     C_2   0.574324 0.637263 0.019347 -0.201582
H1    H     H_    0.628880 0.426448 0.760013 0.172753
H2    H     H_    0.377763 0.650322 0.275594 0.175908
H3    H     H_    0.664281 0.632157 0.984060 0.155760
H4    H     H_    0.378349 0.634730 0.017685 0.157345
H5    H     H_    0.309333 0.700422 0.880813 0.159053
H6    H     H_    0.727208 0.499413 0.090303 0.153415
H7    H     H_    0.408809 0.722849 0.138931 0.148613
H8    H     H_    0.628181 0.480736 0.899990 0.147088
N1    N     N_1   0.819370 0.500000 0.500010 -0.073045
N2    N     N_1   0.180630 0.500000 0.499990 -0.072463
O1    O     O_R   0.397470 0.665550 0.500010 -0.615080
O2    O     O_R   0.602530 0.334450 0.499990 -0.607423
O3    O     O_R   0.602530 0.665550 0.499990 -0.601528
O4    O     O_R   0.397470 0.334450 0.500010 -0.602421
O5    O     O_R   0.385350 0.500000 0.615800 -0.596649
O6    O     O_R   0.614650 0.500000 0.384200 -0.595283
O7    O     O_R   0.590410 0.500000 0.615800 -0.607561
O8    O     O_R   0.409590 0.500000 0.384200 -0.606117
Zn1   Zn    Zn3+2 0.363080 0.500000 0.500000 0.995308
Zn2   Zn    Zn3+2 0.636920 0.500000 0.500000 0.997710
O9    O     O_3   0.714040 0.402874 0.229509 -0.756818
H9    H     H_    0.674681 0.359623 0.276287 0.332102
O10   O     O_3   0.294405 0.667345 0.730026 -0.753914
H10   H     H_    0.333850 0.682104 0.675134 0.339877

loop_
_geom_bond_atom_site_label_1
_geom_bond_atom_site_label_2
_ccdc_geom_bond_type
C2    C4    S    
C23   C24   D    
C10   O8    A    
O1    Zn1   S    
C2    O4    A    
C9    O7    A    
O10   H10   S    
C24   H3    S    
C1    O3    A    
C9    C11   S    
O3    Zn2   S    
O4    Zn1   S    
C8    N2    T    
C23   H4    S    
C14   H2    S    
C16   H7    S    
C11   C13   A    
C13   H1    S    
C17   C23   S    
C10   C12   S    
C18   C24   S    
C16   C18   A    
C19   C21   A    
C12   C14   A    
C18   C20   A    
C13   C15   A    
O5    Zn1   S    
C5    C6    S    
O7    Zn2   S    
C14   C16   A    
O2    Zn2   S    
C7    C8    S    
O8    Zn1   S    
C7    N1    T    
C19   H5    S    
C12   C22   A    
O6    Zn2   S    
C22   O9    S    
C1    O1    A    
C4    C6    T    
C2    O2    A    
C1    C3    S    
C15   C17   A    
C17   C19   A    
C10   O6    A    
C20   H6    S    
C21   O10   S    
O9    H9    S    
N1    Zn2   S    
C11   C21   A    
C9    O5    A    
N2    Zn1   S    
C20   C22   A    
C3    C5    T    
C15   H8    S    
