data_mof_unit_68197.cif
_audit_creation_date              2012-12-11T16:32:26-0500
_audit_creation_method            fapswitch 2.2
_symmetry_space_group_name_H-M    P1
_symmetry_Int_Tables_number       1
_space_group_crystal_system       triclinic
_cell_length_a                    6.993346
_cell_length_b                    14.326051
_cell_length_c                    15.985547
_cell_angle_alpha                 90.174143
_cell_angle_beta                  89.50744
_cell_angle_gamma                 89.962255
_cell_volume                      1601.47754683

loop_
_atom_site_label
_atom_site_type_symbol
_atom_type_description
_atom_site_fract_x
_atom_site_fract_y
_atom_site_fract_z
_atom_type_partial_charge
O1    O     O_R   0.361630 0.167340 0.164570 -0.520420
O2    O     O_R   0.638370 0.832660 0.835430 -0.520420
O3    O     O_R   0.690860 0.157560 0.338690 -0.544720
O4    O     O_R   0.309140 0.842440 0.661310 -0.544720
O5    O     O_R   0.861260 0.336420 0.339380 -0.541912
O6    O     O_R   0.138740 0.663580 0.660620 -0.541912
C1    C     C_R   0.521454 0.134673 0.367809 0.645470
C2    C     C_R   0.478546 0.865327 0.632191 0.645470
O7    O     O_R   0.691330 0.156310 0.165190 -0.523862
O8    O     O_R   0.308670 0.843690 0.834810 -0.523862
O9    O     O_R   0.861730 0.335160 0.164640 -0.521199
O10   O     O_R   0.138270 0.664840 0.835360 -0.521199
C3    C     C_R   0.523493 0.137926 0.133654 0.767792
C4    C     C_R   0.476506 0.862074 0.866346 0.767791
O11   O     O_R   0.361150 0.168600 0.339320 -0.543626
O12   O     O_R   0.638850 0.831400 0.660680 -0.543625
O13   O     O_3   0.527950 0.310560 0.252000 -0.353519
O14   O     O_3   0.472050 0.689440 0.748000 -0.353519
V1    V     V_3+5 0.802770 0.240990 0.251980 1.476371
V2    V     V_3+5 0.197230 0.759010 0.748020 1.476371
O15   O     O_R   0.191450 0.346190 0.165260 -0.518945
O16   O     O_R   0.808550 0.653810 0.834740 -0.518945
C5    C     C_R   0.022743 0.365713 0.134907 0.767109
C6    C     C_R   0.977256 0.634287 0.865093 0.767109
O17   O     O_R   0.190980 0.347440 0.338770 -0.541444
O18   O     O_R   0.809020 0.652560 0.661230 -0.541443
C7    C     C_R   0.021270 0.370366 0.366758 0.669044
C8    C     C_R   0.978730 0.629634 0.633242 0.669045
V3    V     V_3+5 0.302780 0.262760 0.251980 1.494911
V4    V     V_3+5 0.697220 0.737240 0.748020 1.494910
O19   O     O_3   0.027730 0.193200 0.251960 -0.366564
O20   O     O_3   0.972270 0.806800 0.748040 -0.366565
C9    C     C_3   0.826134 0.462900 0.487926 -0.101326
C10   C     C_3   0.173866 0.537100 0.512074 -0.101326
C11   C     C_3   0.942301 0.455241 0.569593 -0.124994
C12   C     C_3   0.057699 0.544759 0.430407 -0.124994
H1    H     H_    0.895230 0.418893 0.627448 0.142646
H2    H     H_    0.104770 0.581107 0.372552 0.142646
H3    H     H_    0.682350 0.432424 0.477393 0.129013
H4    H     H_    0.317649 0.567576 0.522607 0.129013
C13   C     C_3   0.991446 0.559662 0.563167 -0.028175
C14   C     C_3   0.008553 0.440338 0.436833 -0.028175
C15   C     C_3   0.875464 0.568086 0.482446 -0.114478
C16   C     C_3   0.124536 0.431914 0.517553 -0.114477
H5    H     H_    0.771811 0.625281 0.471911 0.145924
H6    H     H_    0.228189 0.374720 0.528089 0.145924
C17   C     C_R   0.919193 0.691409 0.045160 0.037603
C18   C     C_R   0.080806 0.308591 0.954840 0.037602
C19   C     C_R   0.855096 0.711474 0.126954 0.467492
C20   C     C_R   0.144904 0.288526 0.873046 0.467491
C21   C     C_R   0.824782 0.639181 0.183396 0.104589
C22   C     C_R   0.175217 0.360819 0.816604 0.104590
C23   C     C_R   0.884617 0.549611 0.163937 -0.247602
C24   C     C_R   0.115382 0.450389 0.836063 -0.247602
C25   C     C_R   0.951335 0.525791 0.082828 0.023438
C26   C     C_R   0.048664 0.474209 0.917171 0.023439
C27   C     C_R   0.953995 0.596008 0.019681 -0.005623
C28   C     C_R   0.046005 0.403991 0.980318 -0.005623
C29   C     C_R   0.007848 0.432266 0.064555 -0.068280
C30   C     C_R   0.992152 0.567734 0.935445 -0.068280
H7    H     H_    0.867983 0.498261 0.212740 0.156475
H8    H     H_    0.132016 0.501739 0.787259 0.156475
C31   C     C_3   0.323073 0.028481 0.480637 -0.115395
C32   C     C_3   0.676927 0.971519 0.519363 -0.115395
C33   C     C_3   0.396259 0.926365 0.475094 -0.131604
C34   C     C_3   0.603741 0.073635 0.524906 -0.131604
H9    H     H_    0.310343 0.865618 0.454171 0.109910
H10   H     H_    0.689657 0.134381 0.545829 0.109909
H11   H     H_    0.176160 0.051656 0.464977 0.108784
H12   H     H_    0.823840 0.948344 0.535023 0.108784
C35   C     C_3   0.490267 0.937237 0.561611 -0.013946
C36   C     C_3   0.509733 0.062763 0.438389 -0.013946
C37   C     C_3   0.417157 0.038732 0.567747 -0.136276
C38   C     C_3   0.582843 0.961268 0.432253 -0.136275
H13   H     H_    0.348955 0.071124 0.623673 0.116198
H14   H     H_    0.651044 0.928876 0.376327 0.116197
H15   H     H_    0.364936 0.841934 0.256545 0.132522
H16   H     H_    0.635064 0.158066 0.743455 0.132523
C39   C     C_R   0.574468 0.190576 0.952566 0.159768
C40   C     C_R   0.425533 0.809424 0.047434 0.159768
C41   C     C_R   0.616889 0.210059 0.868861 -0.050349
C42   C     C_R   0.383111 0.789941 0.131138 -0.050348
C43   C     C_R   0.608703 0.141035 0.808486 -0.130455
C44   C     C_R   0.391297 0.858965 0.191514 -0.130457
C45   C     C_R   0.564242 0.050441 0.830857 -0.130143
C46   C     C_R   0.435758 0.949559 0.169143 -0.130141
C47   C     C_R   0.531082 0.025293 0.915476 0.076751
C48   C     C_R   0.468918 0.974707 0.084524 0.076751
C49   C     C_R   0.539712 0.095947 0.978923 0.069844
C50   C     C_R   0.460288 0.904053 0.021076 0.069843
C51   C     C_R   0.488032 0.930916 0.935823 -0.151282
C52   C     C_R   0.511968 0.069084 0.064177 -0.151282
H17   H     H_    0.647783 0.280792 0.849255 0.148169
H18   H     H_    0.352217 0.719208 0.150745 0.148168
H19   H     H_    0.557398 0.000436 0.780204 0.086663
H20   H     H_    0.442601 0.999564 0.219796 0.086662
I1    I     I_    0.548888 0.317164 0.022645 -0.357116
I2    I     I_    0.451112 0.682836 0.977355 -0.357116
I3    I     I_    0.328646 0.338206 0.703811 -0.546988
I4    I     I_    0.671353 0.661793 0.296188 -0.546989
I5    I     I_    0.961433 0.815751 0.972666 -0.344556
I6    I     I_    0.038568 0.184249 0.027334 -0.344558
O21   O     O_3   0.792483 0.800411 0.147115 -0.531531
C53   C     C_3   0.924820 0.845906 0.199235 -0.173635
H21   H     H_    0.009699 0.798000 0.239323 0.117879
H22   H     H_    0.845100 0.893816 0.241555 0.155022
H23   H     H_    0.020793 0.889531 0.160154 0.170584
O22   O     O_3   0.207519 0.199589 0.852885 -0.531530
C54   C     C_3   0.075179 0.154092 0.800767 -0.173639
H24   H     H_    0.154897 0.106179 0.758450 0.155023
H25   H     H_    0.990305 0.201997 0.760676 0.117881
H26   H     H_    0.979203 0.110472 0.839850 0.170584

loop_
_geom_bond_atom_site_label_1
_geom_bond_atom_site_label_2
_ccdc_geom_bond_type
C34   H10   S    
C31   C33   S    
C42   H18   S    
C25   C29   A    
O13   V3    S    
C12   C14   S    
O4    C2    A    
V1    O19   S    
C53   H22   S    
C17   C19   A    
C5    C29   S    
O9    V1    S    
C9    H3    S    
C38   H14   S    
C10   H4    S    
C9    C14   S    
C11   H1    S    
C44   C46   A    
O3    C1    A    
C54   H25   S    
C46   C48   A    
O12   V4    S    
C8    C13   S    
O22   C54   S    
C32   C35   S    
O7    C3    A    
C9    C11   S    
O5    C7    A    
C23   H7    S    
H16   C43   S    
O7    V1    S    
C34   C36   S    
C48   C52   A    
O8    V2    S    
C19   C21   A    
C20   C22   A    
O3    V1    S    
O14   V4    S    
C32   H12   S    
C10   C12   S    
C22   C24   A    
C18   C20   A    
C2    O12   A    
C20   O22   S    
C13   C15   S    
C10   C13   S    
C14   C16   S    
C11   C13   S    
C53   H21   S    
C41   C43   A    
C16   H6    S    
O11   V3    S    
C23   C25   A    
O17   V3    S    
C24   C26   A    
C47   C51   A    
C45   C47   A    
C9    C15   S    
C31   H11   S    
C10   C16   S    
C36   C38   S    
O8    C4    A    
C54   H26   S    
C1    C36   S    
C39   C41   A    
C27   C30   A    
C1    O11   A    
C31   C37   S    
H15   C44   S    
C33   H9    S    
C28   C29   A    
C33   C35   S    
C34   C37   S    
O15   V3    S    
C33   C38   S    
C26   C30   A    
C21   C23   A    
C32   C34   S    
C17   C27   A    
C41   H17   S    
C6    C30   S    
C18   I6    S    
O10   V2    S    
O1    V3    S    
C49   C52   A    
C11   C16   S    
C15   H5    S    
C46   H20   S    
C40   C42   A    
C43   C45   A    
C48   C50   A    
O18   V4    S    
C42   C44   A    
C25   C27   A    
C3    C52   S    
O16   C6    A    
O1    C3    A    
C37   H13   S    
C12   H2    S    
O6    V2    S    
C35   C37   S    
V2    O20   S    
C21   I4    S    
C2    C35   S    
O16   V4    S    
C40   I2    S    
C39   I1    S    
C19   O21   S    
C18   C28   A    
O5    V1    S    
O17   C7    A    
C24   H8    S    
O10   C6    A    
C22   I3    S    
O18   C8    A    
O2    V4    S    
O15   C5    A    
V3    O19   S    
C54   H24   S    
V4    O20   S    
C45   H19   S    
C7    C14   S    
C50   C51   A    
O9    C5    A    
O13   V1    S    
C26   C28   A    
O14   V2    S    
C17   I5    S    
C40   C50   A    
O2    C4    A    
C4    C51   S    
C39   C49   A    
O4    V2    S    
O6    C8    A    
C31   C36   S    
O21   C53   S    
C47   C49   A    
C32   C38   S    
C12   C15   S    
C53   H23   S    
