data_mof_unit_54522.cif
_audit_creation_date              2012-12-11T14:40:19-0500
_audit_creation_method            fapswitch 2.2
_symmetry_space_group_name_H-M    P1
_symmetry_Int_Tables_number       1
_space_group_crystal_system       triclinic
_cell_length_a                    19.574038
_cell_length_b                    10.853058
_cell_length_c                    19.440179
_cell_angle_alpha                 89.955039
_cell_angle_beta                  97.739419
_cell_angle_gamma                 89.292453
_cell_volume                      4091.89196605

loop_
_atom_site_label
_atom_site_type_symbol
_atom_type_description
_atom_site_fract_x
_atom_site_fract_y
_atom_site_fract_z
_atom_type_partial_charge
C1    C     C_R   0.725974 0.950710 0.360615 0.537827
C2    C     C_3   0.248002 0.414040 0.568844 0.058832
C3    C     C_1   0.058154 0.441953 0.941854 0.216761
C4    C     C_3   0.253842 0.921088 0.428919 0.056047
C5    C     C_3   0.769235 0.839346 0.560121 0.049349
C6    C     C_3   0.707396 0.465116 0.469819 -0.116162
C7    C     C_3   0.211570 0.533528 0.542357 -0.143428
C8    C     C_3   0.234119 0.045415 0.457703 -0.137739
C9    C     C_3   0.745078 0.968331 0.536074 -0.115770
C10   C     C_3   0.778803 0.477438 0.513661 -0.114503
C11   C     C_3   0.167205 0.457557 0.486058 -0.130698
C12   C     C_3   0.306729 0.049422 0.501560 -0.147468
C13   C     C_R   0.293432 0.003197 0.633753 0.564352
C14   C     C_3   0.692025 0.909367 0.480884 -0.110249
C15   C     C_3   0.804068 0.356732 0.484110 -0.095258
C16   C     C_3   0.204007 0.337861 0.513159 -0.104837
C17   C     C_3   0.325931 0.924240 0.471091 -0.111071
C18   C     C_3   0.716216 0.779601 0.505539 -0.116899
C19   C     C_3   0.777963 0.282520 0.542523 -0.126461
C20   C     C_3   0.259565 0.354369 0.465074 -0.111103
C21   C     C_3   0.297175 0.855131 0.529864 -0.112766
C22   C     C_3   0.770594 0.777814 0.454660 -0.141701
C23   C     C_3   0.752526 0.402876 0.571539 0.056497
C24   C     C_R   0.206809 0.501461 0.365853 0.536793
C25   C     C_3   0.222749 0.473184 0.438710 0.050964
C26   C     C_3   0.278052 0.979060 0.559606 0.050842
C27   C     C_3   0.746513 0.907209 0.430925 0.055810
C28   C     C_3   0.557550 0.260424 0.964898 -0.131155
C29   C     C_3   0.508449 0.282041 0.019732 -0.103243
C30   C     C_3   0.057540 0.760443 0.964901 -0.130844
C31   C     C_3   0.008436 0.782030 0.019734 -0.103327
C32   C     C_3   0.593347 0.151728 0.008402 -0.170892
C33   C     C_3   0.456328 0.190513 0.982608 -0.124114
C34   C     C_3   0.093350 0.651754 0.008401 -0.170951
C35   C     C_R   0.772619 0.446167 0.641565 0.547604
C36   C     C_3   0.956327 0.690486 0.982608 -0.124050
C37   C     C_3   0.543564 0.173685 0.062329 0.020144
C38   C     C_3   0.505633 0.169038 0.928177 0.032006
C39   C     C_3   0.043565 0.673684 0.062329 0.020046
C40   C     C_3   0.005634 0.669040 0.928176 0.032115
C41   C     C_R   0.564059 0.183171 0.348526 0.535522
C42   C     C_R   0.466070 0.179550 0.662831 0.534223
C43   C     C_R   0.064549 0.683496 0.348532 0.536873
C44   C     C_R   0.966299 0.679578 0.662973 0.532098
C45   C     C_3   0.492005 0.082974 0.025000 -0.008063
C46   C     C_3   0.706403 0.269554 0.498383 -0.153414
C47   C     C_3   0.540397 0.061457 0.970399 -0.017875
C48   C     C_3   0.992017 0.582956 0.024997 -0.008140
C49   C     C_3   0.040411 0.561467 0.970395 -0.017983
C50   C     C_1   0.774837 0.454636 0.911148 0.004843
C51   C     C_1   0.237236 0.424532 0.095962 0.002182
C52   C     C_1   0.274867 0.954721 0.911163 0.003906
C53   C     C_1   0.737236 0.924532 0.095960 0.004121
C54   C     C_1   0.743931 0.391165 0.031871 -0.020124
C55   C     C_1   0.252553 0.407643 0.965482 -0.029248
C56   C     C_1   0.243962 0.891270 0.031890 -0.020046
C57   C     C_3   0.303898 0.429175 0.521310 -0.117028
C58   C     C_1   0.752553 0.907642 0.965481 -0.029914
C59   C     C_1   0.759807 0.425434 0.966550 -0.027330
C60   C     C_1   0.245845 0.414486 0.036287 -0.035227
C61   C     C_1   0.259842 0.925539 0.966570 -0.027254
C62   C     C_1   0.745846 0.914484 0.036285 -0.034699
C63   C     C_1   0.732953 0.359398 0.088312 0.009917
C64   C     C_1   0.257350 0.394813 0.905042 0.012122
C65   C     C_1   0.232976 0.859480 0.088324 0.011052
C66   C     C_1   0.757350 0.894814 0.905040 0.010041
C67   C     C_R   0.724992 0.309973 0.367960 0.545884
C68   C     C_3   0.224937 0.852271 0.487297 -0.121407
C69   C     C_R   0.259731 0.365679 0.638869 0.541398
C70   C     C_R   0.240897 0.868819 0.359862 0.549013
C71   C     C_R   0.776064 0.807350 0.633085 0.559761
C72   C     C_R   0.721985 0.952342 0.163825 0.536338
C73   C     C_R   0.293046 0.991719 0.845927 0.552094
C74   C     C_R   0.221987 0.452338 0.163828 0.543112
C75   C     C_R   0.793031 0.491679 0.845927 0.549852
C76   C     C_R   0.563752 0.182212 0.136974 0.543595
C77   C     C_R   0.473263 0.177953 0.857031 0.542569
C78   C     C_R   0.063752 0.682212 0.136974 0.544414
C79   C     C_3   0.824176 0.836862 0.510912 -0.134910
C80   C     C_R   0.973264 0.677954 0.857031 0.542044
C81   C     C_R   0.723765 0.316571 0.155510 0.534656
C82   C     C_R   0.264038 0.360482 0.835609 0.541997
C83   C     C_R   0.223775 0.816607 0.155508 0.531799
C84   C     C_R   0.764037 0.860487 0.835605 0.549797
C85   C     C_1   0.495015 0.171041 0.599355 -0.013654
C86   C     C_1   0.544489 0.175343 0.416584 -0.021351
C87   C     C_1   0.996017 0.671449 0.599845 -0.015048
C88   C     C_1   0.045805 0.677066 0.417042 -0.025429
C89   C     C_1   0.530153 0.170637 0.474739 -0.059905
C90   C     C_3   0.732838 0.344506 0.440867 0.048005
C91   C     C_1   0.513137 0.168666 0.542710 -0.054527
C92   C     C_1   0.031757 0.673114 0.475373 -0.060540
C93   C     C_1   0.014620 0.670160 0.543358 -0.054956
C94   C     C_3   0.681149 0.391241 0.528946 -0.122639
C95   C     C_3   0.267271 0.549374 0.493231 -0.137498
C96   C     C_3   0.205757 0.976818 0.517504 -0.105736
C97   C     C_3   0.799597 0.967345 0.485547 -0.114799
C98   C     C_1   0.454689 0.986406 0.056925 0.236139
C99   C     C_1   0.558127 0.941931 0.941864 0.217170
C100  C     C_1   0.954711 0.486366 0.056916 0.236557
Cr1   Cr    Cr6+3 0.765830 0.160660 0.268180 1.027309
Cr2   Cr    Cr6+3 0.384070 0.324050 0.751550 1.027112
Cr3   Cr    Cr6+3 0.115930 0.824050 0.248450 1.029320
Cr4   Cr    Cr6+3 0.884070 0.824050 0.751550 1.031198
Cr5   Cr    Cr6+3 0.234170 0.160660 0.731820 1.035444
Cr6   Cr    Cr6+3 0.265830 0.660660 0.268180 1.029745
Cr7   Cr    Cr6+3 0.734170 0.660660 0.731820 1.031041
Cr8   Cr    Cr6+3 0.612110 0.009150 0.248770 1.042311
Cr9   Cr    Cr6+3 0.387890 0.009150 0.751230 1.039885
Cr10  Cr    Cr6+3 0.112110 0.509150 0.248770 1.043864
Cr11  Cr    Cr6+3 0.887890 0.509150 0.751230 1.037680
Cr12  Cr    Cr6+3 0.615930 0.324050 0.248450 1.033963
H1    H     H_    0.676424 0.184047 0.489329 0.095989
H2    H     H_    0.192677 0.606035 0.575620 0.122591
H3    H     H_    0.206353 0.118211 0.424590 0.123343
H4    H     H_    0.733804 0.041285 0.572931 0.124841
H5    H     H_    0.341169 0.130023 0.510044 0.106377
H6    H     H_    0.637492 0.940010 0.467624 0.124924
H7    H     H_    0.810415 0.561375 0.522809 0.106732
H8    H     H_    0.110883 0.464033 0.469701 0.126585
H9    H     H_    0.854810 0.343315 0.465442 0.138965
H10   H     H_    0.177115 0.251165 0.522291 0.131242
H11   H     H_    0.375026 0.902674 0.450692 0.135254
H12   H     H_    0.360173 0.417230 0.537598 0.129944
H13   H     H_    0.681421 0.704479 0.516697 0.126546
H14   H     H_    0.808000 0.210455 0.574364 0.123268
H15   H     H_    0.279966 0.286356 0.430267 0.126195
H16   H     H_    0.323574 0.778530 0.561154 0.135685
H17   H     H_    0.780747 0.701807 0.419086 0.126444
H18   H     H_    0.649794 0.135856 0.020597 0.103856
H19   H     H_    0.399707 0.206106 0.971113 0.113507
H20   H     H_    0.149799 0.635905 0.020596 0.103850
H21   H     H_    0.899704 0.706058 0.971113 0.113462
H22   H     H_    0.584346 0.332796 0.938718 0.139331
H23   H     H_    0.189678 0.772820 0.479381 0.099409
H24   H     H_    0.494846 0.373328 0.040160 0.154620
H25   H     H_    0.084327 0.832830 0.938724 0.139802
H26   H     H_    0.994821 0.873309 0.040165 0.154524
H27   H     H_    0.878486 0.806378 0.525235 0.124058
H28   H     H_    0.631303 0.405237 0.549300 0.125553
H29   H     H_    0.295122 0.630996 0.478510 0.129130
H30   H     H_    0.156648 0.998468 0.537840 0.130075
H31   H     H_    0.833393 0.045004 0.475683 0.126754
H32   H     H_    0.678397 0.537759 0.437488 0.127760
N1    N     N_1   0.425304 0.910307 0.082070 -0.266422
N2    N     N_1   0.572092 0.847674 0.919355 -0.276290
N3    N     N_1   0.925333 0.410251 0.082055 -0.265416
N4    N     N_1   0.072130 0.347706 0.919341 -0.276680
O1    O     O_R   0.783230 0.287800 0.346510 -0.503161
O2    O     O_R   0.454570 0.285140 0.836900 -0.505685
O3    O     O_R   0.045430 0.785140 0.163100 -0.504672
O4    O     O_R   0.954570 0.785140 0.836900 -0.506382
O5    O     O_R   0.677850 0.374730 0.185500 -0.492997
O6    O     O_R   0.322150 0.374730 0.814500 -0.493164
O7    O     O_R   0.177850 0.874730 0.185500 -0.499279
O8    O     O_R   0.822150 0.874730 0.814500 -0.490922
O9    O     O_3   0.664630 0.164620 0.255130 -0.338525
O10   O     O_3   0.335370 0.164620 0.744870 -0.296492
O11   O     O_3   0.164630 0.664620 0.255130 -0.338620
O12   O     O_R   0.216770 0.287800 0.653490 -0.527797
O13   O     O_3   0.835370 0.664620 0.744870 -0.297400
O14   O     O_R   0.760130 0.037060 0.338610 -0.520330
O15   O     O_R   0.239870 0.037060 0.661390 -0.496992
O16   O     O_R   0.260130 0.537060 0.338610 -0.491707
O17   O     O_R   0.739870 0.537060 0.661390 -0.520007
O18   O     O_R   0.666620 0.921370 0.332440 -0.517782
O19   O     O_R   0.333380 0.921370 0.667560 -0.508317
O20   O     O_R   0.166620 0.421370 0.332440 -0.511393
O21   O     O_R   0.833380 0.421370 0.667560 -0.509204
O22   O     O_R   0.557170 0.082420 0.312350 -0.476182
O23   O     O_R   0.283230 0.787800 0.346510 -0.522278
O24   O     O_R   0.442830 0.082420 0.687650 -0.510648
O25   O     O_R   0.057170 0.582420 0.312350 -0.488838
O26   O     O_R   0.942830 0.582420 0.687650 -0.495215
O27   O     O_R   0.548310 0.285980 0.316250 -0.492463
O28   O     O_R   0.451690 0.285980 0.683750 -0.509834
O29   O     O_R   0.048310 0.785980 0.316250 -0.484109
O30   O     O_R   0.951690 0.785980 0.683750 -0.514960
O31   O     O_R   0.680520 0.375500 0.327470 -0.499924
O32   O     O_R   0.319480 0.375500 0.672530 -0.501617
O33   O     O_R   0.180520 0.875500 0.327470 -0.510177
O34   O     O_R   0.716770 0.787800 0.653490 -0.510499
O35   O     O_R   0.819480 0.875500 0.672530 -0.495699
O36   O     O_R   0.780350 0.286970 0.193350 -0.469416
O37   O     O_R   0.219650 0.286970 0.806650 -0.499222
O38   O     O_R   0.280350 0.786970 0.193350 -0.476786
O39   O     O_R   0.719650 0.786970 0.806650 -0.495032
O40   O     O_R   0.757460 0.036290 0.196640 -0.508498
O41   O     O_R   0.242540 0.036290 0.803360 -0.482148
O42   O     O_R   0.257460 0.536290 0.196640 -0.503504
O43   O     O_R   0.742540 0.536290 0.803360 -0.490824
O44   O     O_R   0.663740 0.920540 0.179290 -0.501737
O45   O     O_R   0.554500 0.081650 0.170370 -0.472428
O46   O     O_R   0.336260 0.920540 0.820710 -0.488438
O47   O     O_R   0.163740 0.420540 0.179290 -0.500127
O48   O     O_R   0.836260 0.420540 0.820710 -0.494355
O49   O     O_R   0.445500 0.081650 0.829630 -0.508453
O50   O     O_R   0.054500 0.581650 0.170370 -0.473281
O51   O     O_R   0.945500 0.581650 0.829630 -0.507165
O52   O     O_R   0.545430 0.285140 0.163100 -0.505643

loop_
_geom_bond_atom_site_label_1
_geom_bond_atom_site_label_2
_ccdc_geom_bond_type
C58   C62   S    
C79   H27   S    
C21   C26   S    
Cr7   O17   S    
C37   C45   S    
Cr8   O22   S    
C67   O1    A    
Cr11  O26   S    
C94   H28   S    
Cr6   O23   S    
C14   C18   S    
Cr9   O49   S    
C2    C7    S    
Cr11  O13   S    
C51   C74   S    
C4    C8    S    
C36   H21   S    
Cr2   O10   S    
C32   H18   S    
C85   C91   T    
C19   C46   S    
C47   C99   S    
Cr1   O1    S    
Cr8   O45   S    
C7    C11   S    
C41   C86   S    
C68   C96   S    
C63   C81   S    
C28   H22   S    
C50   C59   T    
C7    H2    S    
C28   C29   S    
C24   O20   A    
C2    C69   S    
C44   O26   A    
C22   C79   S    
C81   O5    A    
C52   C61   T    
C18   H13   S    
C30   C31   S    
C13   O19   A    
Cr5   O12   S    
C83   O7    A    
C54   C63   T    
C11   C25   S    
C100  N3    T    
Cr2   O28   S    
Cr6   O11   S    
Cr7   O39   S    
C69   O12   A    
C33   C45   S    
C11   C16   S    
Cr5   O37   S    
C76   O45   A    
C16   H10   S    
C72   O40   A    
C10   H7    S    
Cr9   O19   S    
C8    H3    S    
Cr11  O51   S    
C15   C19   S    
Cr10  O20   S    
C58   C66   T    
Cr4   O30   S    
C88   C92   T    
C29   C33   S    
C14   H6    S    
C8    C96   S    
C12   C17   S    
C40   C80   S    
C83   O38   A    
Cr6   O16   S    
C14   C27   S    
C89   C91   S    
Cr1   O40   S    
C2    C16   S    
Cr2   O6    S    
Cr9   O24   S    
Cr3   O3    S    
Cr11  O48   S    
C75   O48   A    
C33   H19   S    
C41   O27   A    
Cr1   O9    S    
C3    N4    T    
C30   H25   S    
C74   O42   A    
C55   C60   S    
Cr10  O50   S    
C71   O34   A    
C24   O16   A    
C11   H8    S    
C4    C70   S    
C17   H11   S    
C78   O3    A    
C13   O15   A    
C54   C59   S    
C45   C47   S    
C26   C96   S    
C48   C100  S    
C2    C57   S    
Cr12  O9    S    
C30   C34   S    
C82   O37   A    
C34   C39   S    
C3    C49   S    
C39   C78   S    
Cr5   O41   S    
C36   C40   S    
C24   C25   S    
Cr6   O38   S    
C20   H15   S    
C43   O29   A    
C52   C73   S    
C76   O52   A    
C44   O30   A    
Cr4   O13   S    
C4    C68   S    
C19   C23   S    
Cr8   O9    S    
Cr7   O34   S    
C6    C94   S    
C6    C90   S    
C80   O51   A    
C66   C84   S    
C67   C90   S    
C17   C21   S    
C12   C26   S    
Cr11  O21   S    
C82   O6    A    
C75   O43   A    
C9    C14   S    
C5    C9    S    
C71   O35   A    
C53   C62   T    
C70   O33   A    
Cr5   O10   S    
C46   C94   S    
C28   C32   S    
C8    C12   S    
C72   O44   A    
C55   C64   T    
Cr4   O35   S    
Cr5   O15   S    
C30   C40   S    
Cr9   O46   S    
C56   C61   S    
C42   C85   S    
C16   C20   S    
C32   C37   S    
Cr4   O8    S    
C21   H16   S    
C64   C82   S    
C38   C47   S    
Cr1   O36   S    
C42   O24   A    
Cr2   O2    S    
Cr12  O31   S    
C4    C17   S    
Cr3   O7    S    
C48   C49   S    
C98   N1    T    
C37   C76   S    
C1    O14   A    
C25   C95   S    
C23   C35   S    
C22   C27   S    
C21   C68   S    
C57   C95   S    
C35   O21   A    
C32   C47   S    
Cr9   O10   S    
C13   C26   S    
Cr7   O43   S    
C5    C79   S    
C43   C88   S    
C6    H32   S    
C44   C87   S    
C79   C97   S    
Cr7   O13   S    
Cr10  O47   S    
Cr10  O25   S    
C56   C65   T    
C80   O4    A    
Cr8   O18   S    
C74   O47   A    
Cr1   O14   S    
C34   C49   S    
C9    C97   S    
C15   H9    S    
C46   H1    S    
Cr3   O33   S    
C9    H4    S    
C99   N2    T    
C68   H23   S    
Cr12  O5    S    
C86   C89   T    
C77   O2    A    
C6    C10   S    
C95   H29   S    
C46   C90   S    
C38   C77   S    
C10   C23   S    
C7    C95   S    
C41   O22   A    
C19   H14   S    
C33   C38   S    
C23   C94   S    
Cr2   O32   S    
C10   C15   S    
C31   H26   S    
Cr4   O4    S    
C18   C22   S    
C45   C98   S    
C20   C57   S    
C69   O32   A    
C67   O31   A    
C50   C75   S    
C15   C90   S    
C84   O8    A    
Cr3   O11   S    
C43   O25   A    
C1    O18   A    
C5    C18   S    
C87   C93   T    
C97   H31   S    
C92   C93   S    
C35   O17   A    
C31   C39   S    
C36   C48   S    
C70   O23   A    
C65   C83   S    
C27   C97   S    
C96   H30   S    
C12   H5    S    
C34   H20   S    
Cr12  O27   S    
C29   H24   S    
C5    C71   S    
C20   C25   S    
C29   C37   S    
C22   H17   S    
C1    C27   S    
Cr6   O42   S    
C31   C36   S    
Cr8   O44   S    
C84   O39   A    
C42   O28   A    
C51   C60   T    
C78   O50   A    
C81   O36   A    
Cr3   O29   S    
C28   C38   S    
C73   O46   A    
C53   C72   S    
C77   O49   A    
Cr12  O52   S    
C73   O41   A    
Cr10  O11   S    
C40   C49   S    
C39   C48   S    
C57   H12   S    
