data_mof_unit_5434.cif
_audit_creation_date              2012-12-10T18:47:40-0500
_audit_creation_method            fapswitch 2.2
_symmetry_space_group_name_H-M    P1
_symmetry_Int_Tables_number       1
_space_group_crystal_system       triclinic
_cell_length_a                    9.91522
_cell_length_b                    10.679872
_cell_length_c                    15.490141
_cell_angle_alpha                 91.015927
_cell_angle_beta                  68.173209
_cell_angle_gamma                 90.70415
_cell_volume                      1522.44396881

loop_
_atom_site_label
_atom_site_type_symbol
_atom_type_description
_atom_site_fract_x
_atom_site_fract_y
_atom_site_fract_z
_atom_type_partial_charge
C1    C     C_R   0.500316 0.739838 0.500460 0.873722
C2    C     C_R   0.499667 0.260158 0.499571 0.875996
C3    C     C_R   0.358747 0.635308 0.091655 -0.215622
C4    C     C_R   0.684614 0.528317 0.892326 -0.208535
C5    C     C_R   0.258211 0.650080 0.049563 -0.231211
C6    C     C_R   0.785551 0.513195 0.933772 -0.245592
C7    C     C_R   0.632601 0.936456 0.464643 -0.179858
C8    C     C_R   0.367365 0.063522 0.535437 -0.180221
C9    C     C_R   0.632158 0.064779 0.463860 -0.171936
C10   C     C_R   0.367810 0.935196 0.536235 -0.171739
C11   C     C_R   0.499491 0.127614 0.499203 -0.023504
C12   C     C_R   0.500477 0.872369 0.500868 -0.021954
C13   C     C_R   0.948142 0.403319 0.460851 -0.142475
C14   C     C_R   0.051819 0.596637 0.539220 -0.148389
C15   C     C_R   0.091667 0.402853 0.459870 0.039090
C16   C     C_R   0.908284 0.597094 0.540217 0.035754
C17   C     C_R   0.409254 0.501849 0.675776 0.883772
C18   C     C_R   0.590903 0.501970 0.324293 0.890848
C19   C     C_R   0.355789 0.523075 0.776040 -0.052744
C20   C     C_R   0.647846 0.512931 0.223417 -0.053913
C21   C     C_R   0.187445 0.619221 0.916610 -0.218681
C22   C     C_R   0.839608 0.489817 0.072485 -0.212654
C23   C     C_R   0.220920 0.578373 0.824924 -0.208317
C24   C     C_R   0.792904 0.486482 0.169025 -0.199001
C25   C     C_R   0.454286 0.506626 0.819451 -0.201828
C26   C     C_R   0.552583 0.549572 0.181487 -0.230104
C27   C     C_R   0.429162 0.557647 0.907347 0.097623
C28   C     C_R   0.596993 0.554930 0.084979 0.089465
C29   C     C_R   0.290763 0.609074 0.958268 0.170728
C30   C     C_R   0.741797 0.520532 0.030061 0.176683
C31   C     C_R   0.537428 0.555486 0.946304 0.070610
C32   C     C_R   0.497388 0.582908 0.042092 0.066959
H1    H     H_    0.153553 0.691225 0.089271 0.153420
H2    H     H_    0.896653 0.490157 0.890591 0.150332
H3    H     H_    0.441155 0.566936 0.225462 0.167766
H4    H     H_    0.552212 0.454910 0.782403 0.154185
H5    H     H_    0.868413 0.459163 0.200832 0.161998
H6    H     H_    0.144021 0.593498 0.791591 0.155689
H7    H     H_    0.082763 0.661727 0.953989 0.147776
H8    H     H_    0.950405 0.463721 0.031101 0.150950
H9    H     H_    0.326780 0.669684 0.162305 0.151015
H10   H     H_    0.725383 0.520981 0.817399 0.165159
H11   H     H_    0.735234 0.887582 0.435907 0.182163
H12   H     H_    0.264732 0.112396 0.564159 0.182607
H13   H     H_    0.734765 0.114594 0.435011 0.165100
H14   H     H_    0.265208 0.885373 0.565097 0.164987
H15   H     H_    0.910017 0.326847 0.428876 0.156599
H16   H     H_    0.089916 0.673070 0.571249 0.156430
N1    N     N_R   0.142780 0.500030 0.500020 -0.124629
N2    N     N_R   0.857220 0.499970 0.499980 -0.124522
O1    O     O_R   0.385370 0.683250 0.500010 -0.633416
O2    O     O_R   0.614630 0.316750 0.499990 -0.631543
O3    O     O_R   0.614700 0.683220 0.500000 -0.606324
O4    O     O_R   0.385300 0.316780 0.500000 -0.606247
O5    O     O_R   0.319830 0.500020 0.632250 -0.630253
O6    O     O_R   0.680170 0.499980 0.367750 -0.630797
O7    O     O_R   0.549160 0.499990 0.632240 -0.569889
O8    O     O_R   0.450840 0.500010 0.367760 -0.570537
Zn1   Zn    Zn3+2 0.346870 0.500020 0.500000 0.974860
Zn2   Zn    Zn3+2 0.653130 0.499980 0.500000 0.976015
C33   C     C_2   0.181845 0.294555 0.413928 0.918150
O9    O     O_2   0.297660 0.309654 0.349540 -0.605224
O10   O     O_R   0.128604 0.173577 0.439986 -0.828533
H17   H     H_    0.198121 0.106412 0.402340 0.347913
C34   C     C_2   0.818073 0.705336 0.586258 0.915203
O11   O     O_2   0.702444 0.690189 0.650788 -0.611171
O12   O     O_R   0.871145 0.826338 0.560142 -0.827232
H18   H     H_    0.801656 0.893461 0.597881 0.349025

loop_
_geom_bond_atom_site_label_1
_geom_bond_atom_site_label_2
_ccdc_geom_bond_type
C10   H14   S    
C19   C23   A    
O12   H18   S    
C9    H13   S    
C14   C16   A    
O5    Zn1   S    
C27   C29   A    
C23   H6    S    
C9    C11   A    
C17   O5    A    
C26   C28   A    
C31   C32   A    
N1    Zn1   S    
C13   C15   A    
C18   O6    A    
N2    Zn2   S    
C4    H10   S    
C28   C30   A    
C24   H5    S    
C15   C33   S    
C22   H8    S    
C6    C30   A    
C20   C24   A    
C1    O1    A    
C34   O12   S    
C7    C12   A    
C1    C12   S    
C2    O2    A    
O2    Zn2   S    
C8    C11   A    
C2    C11   S    
C10   C12   A    
C8    C10   A    
C17   C19   S    
O3    Zn2   S    
C16   N2    A    
C34   O11   D    
C5    C29   A    
O4    Zn1   S    
C15   N1    A    
C21   C23   A    
C3    C32   A    
C19   C25   A    
C22   C24   A    
C4    C31   A    
O1    Zn1   S    
C33   O9    D    
C25   H4    S    
C27   C31   A    
C13   N2    A    
C14   N1    A    
C8    H12   S    
C26   H3    S    
C28   C32   A    
O6    Zn2   S    
C18   C20   S    
C13   H15   S    
C4    C6    A    
C2    O4    A    
C7    H11   S    
C7    C9    A    
C1    O3    A    
C3    H9    S    
O7    Zn2   S    
C14   H16   S    
C16   C34   S    
C22   C30   A    
C3    C5    A    
O8    Zn1   S    
C21   C29   A    
C21   H7    S    
C18   O8    A    
C33   O10   S    
C6    H2    S    
C17   O7    A    
O10   H17   S    
C20   C26   A    
C25   C27   A    
C5    H1    S    
