data_mof_unit_52647.cif
_audit_creation_date              2012-12-10T17:33:45-0500
_audit_creation_method            fapswitch 2.2
_symmetry_space_group_name_H-M    P1
_symmetry_Int_Tables_number       1
_space_group_crystal_system       triclinic
_cell_length_a                    11.692473
_cell_length_b                    12.333646
_cell_length_c                    13.136163
_cell_angle_alpha                 116.527051
_cell_angle_beta                  77.931207
_cell_angle_gamma                 101.05005
_cell_volume                      1646.99021499

loop_
_atom_site_label
_atom_site_type_symbol
_atom_type_description
_atom_site_fract_x
_atom_site_fract_y
_atom_site_fract_z
_atom_type_partial_charge
C1    C     C_R   0.511774 0.854797 0.285921 0.811563
C2    C     C_R   0.458167 0.227749 0.835102 -0.044006
C3    C     C_R   0.592881 0.813659 0.081738 0.417823
C4    C     C_R   0.612652 0.731889 0.966033 -0.241962
C5    C     C_R   0.568739 0.609956 0.930234 -0.218160
C6    C     C_R   0.499269 0.565584 0.008516 0.078620
C7    C     C_R   0.465271 0.650569 0.122261 -0.035406
C8    C     C_R   0.460720 0.439659 0.976529 0.015520
C9    C     C_R   0.378879 0.401382 0.053939 0.117256
C10   C     C_R   0.334018 0.488177 0.161118 0.374582
C11   C     C_R   0.375592 0.611591 0.193082 -0.278171
C12   C     C_R   0.715729 0.999530 0.499794 0.819749
C13   C     C_R   0.502552 0.350131 0.869571 -0.225522
C14   C     C_R   0.379380 0.190276 0.912173 -0.228581
C15   C     C_R   0.520297 0.772949 0.161539 -0.124447
C16   C     C_R   0.685471 0.345244 0.327163 -0.294679
C17   C     C_R   0.342998 0.760397 0.646230 0.079132
C18   C     C_R   0.308544 0.664371 0.678378 -0.250515
C19   C     C_R   0.367465 0.560509 0.623110 -0.182090
C20   C     C_R   0.462373 0.551555 0.534566 0.000295
C21   C     C_R   0.494852 0.652742 0.504914 0.288229
C22   C     C_R   0.526491 0.446818 0.474837 -0.030710
C23   C     C_R   0.482827 0.145010 0.713588 0.793552
C24   C     C_R   0.621019 0.445723 0.387066 0.170585
C25   C     C_R   0.651387 0.545128 0.359850 -0.271834
C26   C     C_R   0.590260 0.646458 0.417850 -0.174997
C27   C     C_R   0.501617 0.342345 0.498035 0.024417
C28   C     C_R   0.656750 0.245917 0.354356 0.107281
C29   C     C_R   0.284280 0.000356 0.500054 0.808563
C30   C     C_1   0.837373 0.998997 0.499795 -0.176721
C31   C     C_1   0.939999 0.999318 0.499722 0.002485
C32   C     C_1   0.060023 0.000123 0.499677 0.001939
C33   C     C_1   0.162648 0.000615 0.499757 -0.177278
C34   C     C_R   0.340894 0.276364 0.021357 -0.132616
Cu1   Cu    Cu3+1 0.526510 0.098270 0.475420 0.965902
Cu2   Cu    Cu3+1 0.473490 0.901730 0.524580 0.923930
H1    H     H_    0.343971 0.095460 0.886569 0.152785
H2    H     H_    0.723984 0.545056 0.293174 0.155784
H3    H     H_    0.431357 0.335108 0.563067 0.124876
H4    H     H_    0.296787 0.840693 0.689652 0.126696
H5    H     H_    0.337049 0.489024 0.651541 0.137766
H6    H     H_    0.621798 0.718263 0.391662 0.205543
H7    H     H_    0.569486 0.372901 0.810024 0.147990
H8    H     H_    0.588374 0.553571 0.839635 0.147888
H9    H     H_    0.665719 0.761929 0.903238 0.140229
H10   H     H_    0.333761 0.676828 0.272691 0.168579
H11   H     H_    0.706248 0.168081 0.308595 0.160235
N1    N     N_R   0.566700 0.246290 0.438210 -0.186325
N2    N     N_R   0.434010 0.754320 0.561170 -0.207197
O1    O     O_R   0.533340 0.972510 0.318140 -0.514751
O2    O     O_R   0.488570 0.806530 0.359650 -0.617086
O3    O     O_R   0.685190 0.083000 0.479260 -0.572284
O4    O     O_R   0.640410 0.917020 0.520770 -0.593056
O5    O     O_R   0.511430 0.193470 0.640350 -0.591228
O6    O     O_R   0.466660 0.027490 0.681860 -0.585126
O7    O     O_R   0.359590 0.082980 0.479230 -0.573188
O8    O     O_R   0.314810 0.917000 0.520740 -0.588401
H12   H     H_    0.757824 0.343713 0.259929 0.146155
H13   H     H_    0.235914 0.670466 0.746374 0.147594
O9    O     O_3   0.249516 0.450784 0.233345 -0.744803
H14   H     H_    0.229396 0.522613 0.306123 0.328315
H15   H     H_    0.278560 0.244933 0.078754 0.190481
O10   O     O_3   0.645397 0.932731 0.118362 -0.735414
H16   H     H_    0.693028 0.945390 0.051796 0.314212

loop_
_geom_bond_atom_site_label_1
_geom_bond_atom_site_label_2
_ccdc_geom_bond_type
C27   N1    A    
C16   C28   A    
C10   O9    S    
C21   C26   A    
C28   H11   S    
C14   C34   A    
C6    C7    A    
C1    C15   S    
C29   O7    A    
C3    O10   S    
C25   H2    S    
C12   O4    A    
C9    C10   A    
C19   C20   A    
C34   H15   S    
C30   C31   T    
C4    H9    S    
C32   C33   T    
C2    C23   S    
Cu1   O1    S    
C7    C15   A    
C17   C18   A    
Cu1   O7    S    
C23   O6    A    
C16   C24   A    
Cu2   O6    S    
C16   H12   S    
C24   C25   A    
Cu1   O5    S    
C7    C11   A    
C1    O2    A    
C8    C13   A    
Cu2   O2    S    
Cu1   Cu2   S    
Cu1   N1    S    
C21   N2    A    
C12   O3    A    
C5    H8    S    
C29   O8    A    
C9    C34   A    
C18   C19   A    
C22   C27   A    
C5    C6    A    
C2    C14   A    
C22   C24   A    
C10   C11   A    
C27   H3    S    
C3    C4    A    
C29   C33   S    
C18   H13   S    
C13   H7    S    
C3    C15   A    
C20   C21   A    
C26   H6    S    
C23   O5    A    
Cu2   O8    S    
C1    O1    A    
C17   N2    A    
Cu1   O3    S    
C2    C13   A    
O9    H14   S    
C11   H10   S    
C6    C8    A    
Cu2   O4    S    
C8    C9    A    
C12   C30   S    
C25   C26   A    
O10   H16   S    
C31   C32   S    
C28   N1    A    
Cu2   N2    S    
C19   H5    S    
C20   C22   A    
C4    C5    A    
C14   H1    S    
C17   H4    S    
