data_mof_unit_28520.cif
_audit_creation_date              2012-12-11T14:08:44-0500
_audit_creation_method            fapswitch 2.2
_symmetry_space_group_name_H-M    P1
_symmetry_Int_Tables_number       1
_space_group_crystal_system       monoclinic
_cell_length_a                    28.195779
_cell_length_b                    7.171283
_cell_length_c                    17.350905
_cell_angle_alpha                 90.0
_cell_angle_beta                  101.889882
_cell_angle_gamma                 90.0
_cell_volume                      3433.08110693

loop_
_atom_site_label
_atom_site_type_symbol
_atom_type_description
_atom_site_fract_x
_atom_site_fract_y
_atom_site_fract_z
_atom_type_partial_charge
O1    O     O_R   0.000700 0.436510 0.857920 -0.537582
O2    O     O_R   0.999300 0.563490 0.142080 -0.537582
O3    O     O_R   0.999300 0.936510 0.642080 -0.537582
O4    O     O_R   0.000700 0.063490 0.357920 -0.537582
O5    O     O_R   0.930080 0.766380 0.721890 -0.535610
O6    O     O_R   0.069920 0.233620 0.278110 -0.535610
O7    O     O_R   0.069920 0.266380 0.778110 -0.535610
O8    O     O_R   0.930080 0.733620 0.221890 -0.535610
C1    C     C_R   0.910449 0.597295 0.710229 0.712639
C2    C     C_R   0.089551 0.402705 0.289771 0.712640
C3    C     C_R   0.089551 0.097295 0.789771 0.712640
C4    C     C_R   0.910449 0.902705 0.210229 0.712639
O9    O     O_R   0.996180 0.766230 0.862310 -0.530169
O10   O     O_R   0.003820 0.233770 0.137690 -0.530169
O11   O     O_R   0.003820 0.266230 0.637690 -0.530169
O12   O     O_R   0.996180 0.733770 0.362310 -0.530169
O13   O     O_R   0.065870 0.936460 0.783500 -0.537534
O14   O     O_R   0.934130 0.063540 0.216500 -0.537534
O15   O     O_R   0.934130 0.436460 0.716500 -0.537534
O16   O     O_R   0.065870 0.563540 0.283500 -0.537534
C5    C     C_R   0.998189 0.595831 0.894146 0.703199
C6    C     C_R   0.001810 0.404169 0.105854 0.703199
C7    C     C_R   0.001810 0.095831 0.605854 0.703199
C8    C     C_R   0.998189 0.904169 0.394146 0.703199
O17   O     O_3   0.022790 0.603020 0.723980 -0.364718
O18   O     O_3   0.977210 0.396980 0.276020 -0.364718
O19   O     O_3   0.977210 0.103020 0.776020 -0.364718
O20   O     O_3   0.022790 0.896980 0.223980 -0.364718
V1    V     V_3+5 0.995770 0.877900 0.754830 1.532342
V2    V     V_3+5 0.004230 0.122100 0.245170 1.532342
V3    V     V_3+5 0.004230 0.377900 0.745170 1.532342
V4    V     V_3+5 0.995770 0.622100 0.254830 1.532342
C9    C     C_2   0.006495 0.079341 0.522390 -0.261853
C10   C     C_2   0.993505 0.920659 0.477610 -0.261853
C11   C     C_2   0.993505 0.579341 0.977610 -0.261853
C12   C     C_2   0.006495 0.420659 0.022390 -0.261853
C13   C     C_R   0.684248 0.994806 0.031608 0.619215
C14   C     C_R   0.315752 0.005197 0.968392 0.619215
C15   C     C_R   0.315752 0.494803 0.468391 0.619216
C16   C     C_R   0.684248 0.505193 0.531610 0.619215
O21   O     O_2   0.714724 0.035939 0.983406 -0.497240
O22   O     O_2   0.285276 0.964063 0.016594 -0.497240
O23   O     O_2   0.285276 0.535936 0.516593 -0.497240
O24   O     O_2   0.714724 0.464059 0.483408 -0.497240
N1    N     N_R   0.702520 0.934127 0.106617 -0.563003
N2    N     N_R   0.297480 0.065877 0.893383 -0.563003
N3    N     N_R   0.297480 0.434125 0.393382 -0.563003
N4    N     N_R   0.702520 0.565874 0.606618 -0.563003
C17   C     C_R   0.672463 0.896652 0.157364 0.594672
C18   C     C_R   0.327537 0.103352 0.842637 0.594672
C19   C     C_R   0.327537 0.396650 0.342636 0.594673
C20   C     C_R   0.672463 0.603349 0.657365 0.594673
C21   C     C_R   0.779022 0.073997 0.174979 -0.105665
C22   C     C_R   0.220978 0.926005 0.825022 -0.105666
C23   C     C_R   0.220978 0.573996 0.325021 -0.105665
C24   C     C_R   0.779022 0.426004 0.674980 -0.105665
C25   C     C_R   0.829457 0.070276 0.201257 -0.093466
C26   C     C_R   0.170543 0.929725 0.798744 -0.093466
C27   C     C_R   0.170543 0.570275 0.298743 -0.093466
C28   C     C_R   0.829457 0.429725 0.701258 -0.093466
C29   C     C_R   0.831095 0.759123 0.146196 -0.196611
C30   C     C_R   0.168905 0.240878 0.853804 -0.196610
C31   C     C_R   0.168905 0.259122 0.353803 -0.196610
C32   C     C_R   0.831095 0.740877 0.646196 -0.196611
C33   C     C_R   0.780545 0.763769 0.120400 -0.019706
C34   C     C_R   0.219455 0.236233 0.879601 -0.019706
C35   C     C_R   0.219455 0.263767 0.379599 -0.019706
C36   C     C_R   0.780545 0.736231 0.620400 -0.019706
C37   C     C_R   0.754344 0.922810 0.134240 0.333078
C38   C     C_R   0.245656 0.077192 0.865761 0.333078
C39   C     C_R   0.245656 0.422808 0.365760 0.333078
C40   C     C_R   0.754344 0.577190 0.634241 0.333077
C41   C     C_R   0.602088 0.971705 0.054893 -0.045561
C42   C     C_R   0.397912 0.028299 0.945108 -0.045561
C43   C     C_R   0.397912 0.471701 0.445108 -0.045561
C44   C     C_R   0.602088 0.528295 0.554894 -0.045561
C45   C     C_R   0.633884 0.016182 0.004712 -0.036551
C46   C     C_R   0.366116 0.983821 0.995288 -0.036552
C47   C     C_R   0.366116 0.516179 0.495287 -0.036551
C48   C     C_R   0.633884 0.483816 0.504714 -0.036551
C49   C     C_R   0.614986 0.091547 0.930661 -0.112476
C50   C     C_R   0.385014 0.908456 0.069339 -0.112476
C51   C     C_R   0.385013 0.591543 0.569339 -0.112477
C52   C     C_R   0.614986 0.408450 0.430663 -0.112476
C53   C     C_R   0.621830 0.916695 0.132661 -0.050029
C54   C     C_R   0.378170 0.083309 0.867339 -0.050029
C55   C     C_R   0.378170 0.416693 0.367339 -0.050029
C56   C     C_R   0.621830 0.583306 0.632662 -0.050029
C57   C     C_R   0.856465 0.912035 0.186090 -0.091918
C58   C     C_R   0.143535 0.087966 0.813911 -0.091918
C59   C     C_R   0.143535 0.412034 0.313910 -0.091919
C60   C     C_R   0.856465 0.587965 0.686090 -0.091919
H1    H     H_    0.638679 0.140351 0.893055 0.181461
H2    H     H_    0.361321 0.859652 0.106945 0.181461
H3    H     H_    0.361321 0.640347 0.606945 0.181461
H4    H     H_    0.638679 0.359645 0.393057 0.181461
C61   C     C_R   0.480620 0.048211 0.919112 -0.002173
C62   C     C_R   0.519380 0.951793 0.080888 -0.002173
C63   C     C_R   0.519379 0.548208 0.580889 -0.002172
C64   C     C_R   0.480620 0.451789 0.419113 -0.002173
C65   C     C_R   0.468107 0.954345 0.050926 0.040027
C66   C     C_R   0.531893 0.045659 0.949074 0.040027
C67   C     C_R   0.531893 0.454340 0.449075 0.040026
C68   C     C_R   0.468107 0.545655 0.550927 0.040027
C69   C     C_R   0.449174 0.012754 0.972067 0.069038
C70   C     C_R   0.550826 0.987250 0.027933 0.069039
C71   C     C_R   0.550826 0.512750 0.527934 0.069038
C72   C     C_R   0.449174 0.487246 0.472068 0.069039
C73   C     C_R   0.458727 0.075318 0.837635 -0.027774
C74   C     C_R   0.541273 0.924686 0.162365 -0.027774
C75   C     C_R   0.541273 0.575316 0.662366 -0.027774
C76   C     C_R   0.458727 0.424683 0.337636 -0.027774
C77   C     C_R   0.408828 0.103887 0.814276 -0.149569
C78   C     C_R   0.591172 0.896118 0.185724 -0.149569
C79   C     C_R   0.591171 0.603884 0.685725 -0.149570
C80   C     C_R   0.408829 0.396116 0.314276 -0.149569
O25   O     O_2   0.308495 0.158267 0.768317 -0.507955
O26   O     O_2   0.691505 0.841739 0.231683 -0.507955
O27   O     O_2   0.691505 0.658265 0.731684 -0.507955
O28   O     O_2   0.308495 0.341737 0.268316 -0.507955
C81   C     C_R   0.565273 0.113050 0.904932 -0.157427
C82   C     C_R   0.434727 0.886953 0.095068 -0.157428
C83   C     C_R   0.434727 0.613046 0.595069 -0.157427
C84   C     C_R   0.565273 0.386947 0.404934 -0.157427
H5    H     H_    0.241488 0.804691 0.813741 0.138465
H6    H     H_    0.758513 0.195311 0.186259 0.138465
H7    H     H_    0.758512 0.304689 0.686261 0.138465
H8    H     H_    0.241488 0.695310 0.313741 0.138465
C85   C     C_1   0.029670 0.237359 0.492943 0.384386
N5    N     N_1   0.048224 0.363663 0.469896 -0.344536
C86   C     C_1   0.970329 0.762641 0.507057 0.384386
N6    N     N_1   0.951776 0.636337 0.530104 -0.344536
C87   C     C_1   0.970329 0.737359 0.007057 0.384386
N7    N     N_1   0.951776 0.863662 0.030104 -0.344536
C88   C     C_1   0.029671 0.262641 0.992943 0.384386
N8    N     N_1   0.048224 0.136337 0.969896 -0.344537
H9    H     H_    0.850759 0.636330 0.134012 0.142748
H10   H     H_    0.149241 0.363670 0.865989 0.142748
H11   H     H_    0.149241 0.136329 0.365987 0.142749
H12   H     H_    0.850759 0.863669 0.634012 0.142748
C89   C     C_1   0.755975 0.604530 0.079723 0.340442
N9    N     N_1   0.736213 0.476846 0.047107 -0.305872
C90   C     C_1   0.244024 0.395472 0.920277 0.340442
N10   N     N_1   0.263786 0.523157 0.952894 -0.305871
C91   C     C_1   0.244025 0.104527 0.420275 0.340442
N11   N     N_1   0.263787 0.976842 0.452891 -0.305874
C92   C     C_1   0.755975 0.895470 0.579724 0.340443
N12   N     N_1   0.736213 0.023154 0.547108 -0.305871
C93   C     C_1   0.148275 0.771156 0.754137 0.323969
N13   N     N_1   0.130717 0.643741 0.718318 -0.319096
C94   C     C_1   0.851725 0.228844 0.245864 0.323969
N14   N     N_1   0.869283 0.356259 0.281682 -0.319096
C95   C     C_1   0.851725 0.271156 0.745864 0.323969
N15   N     N_1   0.869283 0.143741 0.781683 -0.319096
C96   C     C_1   0.148275 0.728845 0.254137 0.323969
N16   N     N_1   0.130717 0.856261 0.218319 -0.319097
H13   H     H_    0.393511 0.130762 0.752605 0.173177
H14   H     H_    0.606489 0.869243 0.247395 0.173177
H15   H     H_    0.606489 0.630760 0.747396 0.173177
H16   H     H_    0.393512 0.369241 0.252605 0.173177
C97   C     C_1   0.483756 0.046923 0.773689 0.309527
N17   N     N_1   0.503413 0.024089 0.722073 -0.358822
C98   C     C_1   0.516244 0.953080 0.226312 0.309528
N18   N     N_1   0.496587 0.975913 0.277927 -0.358823
C99   C     C_1   0.516244 0.546922 0.726312 0.309527
N19   N     N_1   0.496587 0.524089 0.777928 -0.358823
C100  C     C_1   0.483756 0.453078 0.273690 0.309528
N20   N     N_1   0.503414 0.475912 0.222075 -0.358822
H17   H     H_    0.554178 0.192294 0.851652 0.154531
H18   H     H_    0.445822 0.807709 0.148348 0.154531
H19   H     H_    0.445821 0.692290 0.648349 0.154531
H20   H     H_    0.554178 0.307702 0.351654 0.154531

loop_
_geom_bond_atom_site_label_1
_geom_bond_atom_site_label_2
_ccdc_geom_bond_type
O17   V3    S    
C81   H17   S    
O1    C5    A    
C99   N19   T    
C62   C74   A    
C23   C27   A    
O19   V1    S    
C18   O25   S    
O13   V1    S    
O3    C7    A    
C92   N12   T    
C76   C80   A    
C48   C52   A    
C21   C37   A    
C11   C87   S    
C91   N11   T    
O4    V2    S    
C88   N8    T    
C68   C83   A    
O7    C3    A    
C25   C57   A    
C54   C77   A    
C50   H2    S    
C32   C36   A    
O9    V1    S    
C53   C78   A    
O10   V2    S    
C49   H1    S    
C80   H16   S    
N4    C20   A    
C22   C26   A    
O4    C8    A    
C90   N10   T    
C30   C58   A    
O1    V3    S    
C33   C89   S    
O2    V4    S    
C52   H4    S    
C24   H7    S    
O3    V1    S    
C28   C95   S    
C78   H14   S    
C1    O15   A    
C98   N18   T    
C2    O16   A    
C24   C40   A    
C22   C38   A    
O2    C6    A    
C94   N14   T    
C16   C48   A    
C52   C84   A    
O14   V2    S    
N1    C17   A    
C66   C81   A    
C44   C56   A    
C61   C66   A    
C26   C93   S    
C73   C77   A    
C61   C69   A    
O11   C7    A    
C63   C68   A    
O15   V3    S    
C43   C72   A    
O12   C8    A    
C31   C59   A    
N4    C40   S    
O16   V4    S    
C67   C84   A    
C1    C60   S    
C51   C83   A    
C29   C57   A    
C97   N17   T    
O5    V1    S    
C28   C60   A    
C65   C69   A    
C22   H5    S    
C31   C35   A    
C64   C72   A    
O7    V3    S    
C30   C34   A    
N1    C37   S    
O8    V4    S    
C17   C53   A    
C4    C57   S    
C20   C56   A    
C21   H6    S    
C19   C55   A    
C100  N20   T    
C21   C25   A    
O18   V4    S    
N3    C19   A    
C34   C90   S    
C14   C46   A    
C7    C9    S    
C76   C100  S    
C13   C45   A    
C64   C67   A    
C8    C10   S    
C35   C91   S    
C24   C28   A    
C49   C81   A    
C36   C40   A    
C11   C12   D    
C15   C47   A    
O5    C1    A    
C61   C73   A    
C46   C50   A    
C17   O26   S    
C84   H20   S    
C45   C49   A    
O8    C4    A    
C63   C75   A    
C4    O14   A    
C19   O28   S    
O9    C5    A    
C27   C59   A    
C51   H3    S    
C30   H10   S    
C26   C58   A    
N3    C39   S    
C55   C80   A    
C36   C92   S    
C75   C99   S    
C43   C55   A    
O6    V2    S    
C10   C86   S    
C64   C76   A    
C44   C71   A    
C87   N7    T    
O12   V4    S    
C32   C60   A    
C13   N1    A    
C86   N6    T    
C12   C88   S    
C68   C72   A    
N2    C38   S    
C63   C71   A    
C15   N3    A    
C85   N5    T    
C32   H12   S    
C9    C85   S    
C16   N4    A    
C74   C78   A    
C3    O13   A    
C27   C96   S    
C31   H11   S    
C14   O22   S    
C44   C48   A    
C2    C59   S    
C15   O23   S    
C74   C98   S    
O11   V3    S    
C5    C11   S    
C42   C54   A    
C62   C65   A    
C6    C12   S    
N2    C18   A    
C65   C82   A    
C62   C70   A    
C77   H13   S    
O10   C6    A    
C56   C79   A    
O20   V2    S    
C41   C53   A    
C73   C97   S    
C93   N13   T    
C42   C69   A    
C47   C51   A    
C3    C58   S    
C29   H9    S    
C41   C70   A    
C34   C38   A    
C33   C37   A    
C25   C94   S    
C9    C10   D    
C66   C70   A    
C35   C39   A    
C13   O21   S    
C83   H19   S    
C14   N2    A    
O6    C2    A    
C18   C54   A    
C20   O27   S    
C29   C33   A    
C16   O24   S    
C23   H8    S    
C75   C79   A    
C42   C46   A    
C79   H15   S    
C96   N16   T    
C41   C45   A    
C67   C71   A    
C82   H18   S    
C95   N15   T    
C89   N9    T    
C43   C47   A    
C50   C82   A    
C23   C39   A    
