data_mof_unit_38185.cif
_audit_creation_date              2013-03-05T16:13:23-0500
_audit_creation_method            fapswitch 2.2
_symmetry_space_group_name_H-M    P1
_symmetry_Int_Tables_number       1
_space_group_crystal_system       triclinic
_cell_length_a                    21.950086
_cell_length_b                    26.502483
_cell_length_c                    8.421781
_cell_angle_alpha                 89.999974
_cell_angle_beta                  102.737886
_cell_angle_gamma                 90.00702
_cell_volume                      4778.64278427

loop_
_atom_site_label
_atom_site_type_symbol
_atom_site_description
_atom_site_fract_x
_atom_site_fract_y
_atom_site_fract_z
_atom_type_partial_charge
P1    P     P_3+3 0.869190 0.445350 0.992760 0.488028
P2    P     P_3+3 0.869190 0.554650 0.492760 0.473083
P3    P     P_3+3 0.369190 0.945350 0.992760 0.475453
P4    P     P_3+3 0.369190 0.054650 0.492760 0.491618
O1    O     O_2   0.875320 0.428620 0.822840 -0.385370
O2    O     O_2   0.875320 0.571380 0.322840 -0.368124
O3    O     O_2   0.375320 0.928620 0.822840 -0.366435
O4    O     O_2   0.375320 0.071380 0.322840 -0.385155
O5    O     O_3   0.927380 0.474960 0.096800 -0.359073
O6    O     O_3   0.927380 0.525040 0.596800 -0.366034
O7    O     O_3   0.427380 0.974960 0.096800 -0.370677
O8    O     O_3   0.427380 0.025040 0.596800 -0.353584
O9    O     O_3   0.978260 0.384470 0.628120 -0.383248
O10   O     O_3   0.978260 0.615530 0.128120 -0.369536
O11   O     O_3   0.478260 0.884470 0.628120 -0.368319
O12   O     O_3   0.478260 0.115530 0.128120 -0.384992
O13   O     O_2   0.886213 0.336424 0.721895 -0.401694
O14   O     O_2   0.869196 0.653212 0.159446 -0.329889
O15   O     O_2   0.361922 0.856167 0.630366 -0.303285
O16   O     O_2   0.385854 0.162852 0.221991 -0.391025
O17   O     O_3   0.807818 0.489594 0.970797 -0.617988
O18   O     O_3   0.807405 0.510504 0.468351 -0.626669
O19   O     O_3   0.307005 0.989056 0.967860 -0.625176
O20   O     O_3   0.307958 0.010136 0.469514 -0.618001
O21   O     O_3   0.946006 0.283515 0.544635 -0.575271
O22   O     O_3   0.958422 0.719083 0.151280 -0.533240
O23   O     O_3   0.445031 0.783754 0.670635 -0.532731
O24   O     O_3   0.447072 0.218048 0.054195 -0.563379
H1    H     H_    0.009167 0.292080 0.765819 0.168214
H2    H     H_    0.052766 0.702288 0.219026 0.139899
H3    H     H_    0.540630 0.794724 0.717111 0.140779
H4    H     H_    0.523232 0.205613 0.246223 0.163937
C1    C     C_3   0.030468 0.226308 0.637604 -0.668333
C2    C     C_3   0.038317 0.775861 0.102078 -0.702952
C3    C     C_3   0.517141 0.715467 0.680141 -0.612648
C4    C     C_3   0.539879 0.269077 0.099594 -0.678178
H5    H     H_    0.997971 0.200681 0.682707 0.221116
H6    H     H_    0.001202 0.795974 0.013770 0.205103
H7    H     H_    0.520540 0.708650 0.811649 0.238273
H8    H     H_    0.528191 0.281214 0.970229 0.204411
P5    P     P_3+3 0.130420 0.444720 0.696970 0.467203
P6    P     P_3+3 0.130420 0.555280 0.196970 0.466031
P7    P     P_3+3 0.630420 0.944720 0.696970 0.466445
P8    P     P_3+3 0.630420 0.055280 0.196970 0.466099
P9    P     P_3+3 0.076386 0.336721 0.110876 0.429372
P10   P     P_3+3 0.075503 0.663865 0.609600 0.439659
P11   P     P_3+3 0.575968 0.836475 0.108638 0.441069
P12   P     P_3+3 0.575141 0.164144 0.610676 0.431372
O25   O     O_2   0.124210 0.428020 0.866900 -0.362364
O26   O     O_2   0.124210 0.571980 0.366900 -0.364160
O27   O     O_2   0.624210 0.928020 0.866900 -0.362450
O28   O     O_2   0.624210 0.071980 0.366900 -0.364154
O29   O     O_3   0.021040 0.384370 0.061630 -0.394321
O30   O     O_3   0.021040 0.615630 0.561630 -0.394952
O31   O     O_3   0.521040 0.884370 0.061630 -0.396886
O32   O     O_3   0.521040 0.115630 0.561630 -0.395182
O33   O     O_2   0.120398 0.339723 0.990606 -0.386439
O34   O     O_2   0.124019 0.657021 0.503076 -0.381178
O35   O     O_2   0.623789 0.843154 0.000075 -0.375638
O36   O     O_2   0.620454 0.160572 0.493864 -0.387630
O37   O     O_3   0.195723 0.484463 0.734780 -0.563420
O38   O     O_3   0.196432 0.516372 0.232184 -0.562868
O39   O     O_3   0.696166 0.983971 0.732641 -0.563770
O40   O     O_3   0.695974 0.015844 0.234109 -0.562726
O41   O     O_3   0.037319 0.279151 0.067629 -0.534156
O42   O     O_3   0.037799 0.720702 0.543367 -0.517007
O43   O     O_3   0.538439 0.779377 0.044714 -0.521845
O44   O     O_3   0.534657 0.220842 0.560087 -0.527767
C5    C     C_3   0.984117 0.280422 0.134933 0.394468
C6    C     C_3   0.980796 0.721637 0.593346 0.465907
C7    C     C_3   0.484094 0.776994 0.106608 0.468841
C8    C     C_3   0.479624 0.218542 0.619539 0.407520
H9    H     H_    0.950077 0.308644 0.070274 0.116379
H10   H     H_    0.948772 0.691994 0.528982 0.113694
H11   H     H_    0.449873 0.805976 0.047583 0.108767
H12   H     H_    0.447400 0.189586 0.552101 0.124498
H13   H     H_    0.996813 0.289440 0.267208 0.063704
H14   H     H_    0.988545 0.716312 0.726987 0.001929
H15   H     H_    0.495623 0.782462 0.240330 0.004829
H16   H     H_    0.490123 0.209836 0.751973 0.046953
C9    C     C_3   0.952559 0.229069 0.114590 -0.939185
C10   C     C_3   0.949347 0.772516 0.551959 -0.969322
C11   C     C_3   0.453712 0.725404 0.072174 -1.000807
C12   C     C_3   0.446324 0.269125 0.594055 -0.943538
H17   H     H_    0.938428 0.219291 0.983330 0.261933
H18   H     H_    0.939440 0.778834 0.418407 0.285320
H19   H     H_    0.435348 0.720420 0.939422 0.280235
H20   H     H_    0.431664 0.277422 0.461917 0.268089
H21   H     H_    0.985117 0.199824 0.178773 0.259225
H22   H     H_    0.980060 0.803138 0.614423 0.256725
H23   H     H_    0.488177 0.695226 0.118390 0.264417
H24   H     H_    0.477813 0.299524 0.654933 0.259535
C13   C     C_3   0.181257 0.469064 0.285792 0.437471
C14   C     C_3   0.178698 0.532107 0.781863 0.439638
C15   C     C_3   0.679397 0.968155 0.281924 0.439541
C16   C     C_3   0.680395 0.031290 0.784922 0.437540
H25   H     H_    0.164487 0.473229 0.399716 0.095415
H26   H     H_    0.160066 0.528771 0.893197 0.093977
H27   H     H_    0.661231 0.971433 0.394018 0.093257
H28   H     H_    0.663545 0.027170 0.898720 0.095335
H29   H     H_    0.145245 0.450093 0.191118 0.119648
H30   H     H_    0.143445 0.550015 0.682921 0.126943
H31   H     H_    0.643932 0.950111 0.183754 0.125455
H32   H     H_    0.644254 0.049872 0.689633 0.121950
C17   C     C_3   0.239886 0.436623 0.319751 -0.978296
C18   C     C_3   0.236550 0.565425 0.818049 -0.977749
C19   C     C_3   0.737449 0.935073 0.316785 -0.978999
C20   C     C_3   0.738565 0.064278 0.818524 -0.977667
H33   H     H_    0.276469 0.454532 0.415395 0.268617
H34   H     H_    0.271834 0.549355 0.920713 0.267429
H35   H     H_    0.773016 0.951351 0.418423 0.267487
H36   H     H_    0.775166 0.047003 0.915570 0.268187
H37   H     H_    0.229594 0.398688 0.362267 0.224064
H38   H     H_    0.224356 0.603943 0.851398 0.226367
H39   H     H_    0.725668 0.896558 0.351070 0.225204
H40   H     H_    0.727543 0.102323 0.858916 0.224463
H41   H     H_    0.257742 0.432334 0.206912 0.268326
H42   H     H_    0.256931 0.568001 0.708737 0.268221
H43   H     H_    0.757286 0.932470 0.206586 0.268688
H44   H     H_    0.756734 0.068262 0.706057 0.268163
Ba1   Ba    Ba6+2 0.999850 0.464270 0.844920 1.578941
Ba2   Ba    Ba6+2 0.999850 0.535730 0.344920 1.586352
Ba3   Ba    Ba6+2 0.499850 0.964270 0.844920 1.589292
Ba4   Ba    Ba6+2 0.499850 0.035730 0.344920 1.583229
C21   C     C_3   0.783406 0.504646 0.810178 0.692257
C22   C     C_3   0.781253 0.499027 0.305145 0.717122
C23   C     C_3   0.282102 0.001758 0.805003 0.721650
C24   C     C_3   0.281896 0.997293 0.307466 0.703721
H45   H     H_    0.820589 0.504420 0.742239 0.084719
H46   H     H_    0.819291 0.496181 0.240724 0.095049
H47   H     H_    0.320591 0.004710 0.741926 0.090431
H48   H     H_    0.318507 0.997856 0.238035 0.094417
C25   C     C_3   0.729562 0.469308 0.731164 -0.593416
C26   C     C_3   0.733127 0.539393 0.228558 -0.608279
C27   C     C_3   0.233540 0.962207 0.724509 -0.607776
C28   C     C_3   0.228753 0.034055 0.234316 -0.609136
H49   H     H_    0.746244 0.429685 0.736182 0.207344
H50   H     H_    0.755090 0.577151 0.235920 0.210314
H51   H     H_    0.254758 0.924164 0.731388 0.210653
H52   H     H_    0.246395 0.073419 0.242752 0.204215
H53   H     H_    0.712382 0.480172 0.602353 0.220420
H54   H     H_    0.714921 0.530718 0.098274 0.209172
H55   H     H_    0.216478 0.971444 0.594338 0.209510
H56   H     H_    0.210631 0.024589 0.104563 0.223778
O45   O     O_3   0.072510 0.524860 0.092920 -0.410478
O46   O     O_3   0.072510 0.475140 0.592920 -0.410234
O47   O     O_3   0.572510 0.024860 0.092920 -0.410096
O48   O     O_3   0.572510 0.975140 0.592920 -0.412111
P13   P     P_3+3 0.923009 0.662580 0.071224 0.509705
P14   P     P_3+3 0.915443 0.343248 0.571818 0.453452
P15   P     P_3+3 0.416354 0.157755 0.073523 0.461206
P16   P     P_3+3 0.419841 0.839810 0.567065 0.519863
C29   C     C_3   0.007423 0.280561 0.638110 0.395598
C30   C     C_3   0.018886 0.721127 0.118996 0.411372
C31   C     C_3   0.503732 0.771084 0.639995 0.385050
C32   C     C_3   0.512044 0.217070 0.116048 0.381425
H57   H     H_    0.038673 0.305221 0.584544 0.061891
H58   H     H_    0.021695 0.702075 0.003215 -0.002436
H59   H     H_    0.505154 0.776762 0.510198 -0.008507
H60   H     H_    0.534296 0.190338 0.044779 0.052194
H61   H     H_    0.032407 0.215056 0.511755 0.202578
H62   H     H_    0.081807 0.776606 0.055134 0.176150
H63   H     H_    0.478747 0.691930 0.608977 0.195299
H64   H     H_    0.591507 0.267118 0.140395 0.185709
H65   H     H_    0.910321 0.229917 0.166883 0.235938
H66   H     H_    0.904596 0.773483 0.592828 0.217545
H67   H     H_    0.414098 0.722131 0.133919 0.221091
H68   H     H_    0.404144 0.267950 0.646539 0.230066
C33   C     C_2   0.889269 0.385823 0.269865 -0.482637
C34   C     C_2   0.889542 0.615720 0.769622 -0.280388
C35   C     C_2   0.398676 0.880360 0.259476 -0.288779
C36   C     C_2   0.390663 0.116203 0.768088 -0.490396
C37   C     C_3   0.857856 0.363175 0.384834 0.374938
C38   C     C_3   0.897002 0.664641 0.844648 0.084699
C39   C     C_3   0.401196 0.832589 0.341141 0.060698
C40   C     C_3   0.359494 0.138647 0.884041 0.380729
C41   C     C_2   0.818911 0.321351 0.315795 -0.170752
C42   C     C_2   0.843756 0.696215 0.791622 -0.153548
C43   C     C_2   0.347518 0.801469 0.287116 -0.166740
C44   C     C_2   0.320153 0.180185 0.815282 -0.193137
C45   C     C_2   0.800363 0.314445 0.144706 0.125677
C46   C     C_2   0.807477 0.691169 0.631781 0.116638
C47   C     C_2   0.305189 0.810377 0.137542 0.140783
C48   C     C_2   0.298092 0.184536 0.644579 0.126822
C49   C     C_2   0.821328 0.349610 0.042431 -0.270229
C50   C     C_2   0.818103 0.649038 0.538394 -0.206127
C51   C     C_2   0.313304 0.853789 0.047338 -0.186874
C52   C     C_2   0.318257 0.148923 0.542318 -0.252530
C53   C     C_1   0.859273 0.389088 0.108544 0.324514
C54   C     C_1   0.858703 0.611230 0.608121 0.248891
C55   C     C_1   0.359680 0.888291 0.108302 0.253534
C56   C     C_1   0.358934 0.111000 0.608390 0.314625
C57   C     C_R   0.160548 0.700206 0.894199 -0.280436
C58   C     C_R   0.165068 0.302145 0.392083 -0.263821
C59   C     C_R   0.659011 0.201345 0.898598 -0.269829
C60   C     C_R   0.662920 0.801474 0.390538 -0.266041
C61   C     C_R   0.113227 0.662747 0.826973 0.213826
C62   C     C_R   0.118782 0.340292 0.323924 0.224405
C63   C     C_R   0.616120 0.161310 0.825684 0.225408
C64   C     C_R   0.614387 0.838045 0.325417 0.206375
C65   C     C_R   0.138589 0.614118 0.082610 0.325408
C66   C     C_R   0.140340 0.386375 0.583214 0.331492
C67   C     C_R   0.639357 0.113864 0.083086 0.330300
C68   C     C_R   0.639157 0.886143 0.582024 0.330823
C69   C     C_R   0.183513 0.647927 0.145429 -0.275404
C70   C     C_R   0.184162 0.351811 0.648427 -0.271370
C71   C     C_R   0.681420 0.149358 0.150505 -0.268226
C72   C     C_R   0.684981 0.852906 0.643483 -0.271782
C73   C     C_R   0.195138 0.693763 0.053340 0.122158
C74   C     C_R   0.196779 0.306370 0.555316 0.124871
C75   C     C_R   0.692192 0.195849 0.060169 0.114504
C76   C     C_R   0.697637 0.807746 0.549690 0.129334
C77   C     C_2   0.758883 0.272624 0.066100 -0.146730
C78   C     C_2   0.756228 0.726637 0.561928 -0.130959
C79   C     C_2   0.251731 0.776021 0.072981 -0.142873
C80   C     C_2   0.251512 0.223044 0.568598 -0.139829
C81   C     C_2   0.247053 0.728292 0.125688 -0.165780
C82   C     C_2   0.243635 0.268238 0.635637 -0.175296
C83   C     C_2   0.735600 0.235478 0.145363 -0.166452
C84   C     C_2   0.749351 0.772998 0.622364 -0.171057
C85   C     C_R   0.102203 0.620668 0.932343 -0.507775
C86   C     C_R   0.106097 0.381141 0.430377 -0.520026
C87   C     C_R   0.605625 0.118860 0.929437 -0.522120
C88   C     C_R   0.602528 0.879459 0.432098 -0.506766
H69   H     H_    0.748801 0.233039 0.276785 0.138161
H70   H     H_    0.782419 0.786562 0.728846 0.125902
H71   H     H_    0.282533 0.712916 0.223741 0.125478
H72   H     H_    0.272302 0.277867 0.753945 0.137791
H73   H     H_    0.806820 0.346223 0.911089 0.161619
H74   H     H_    0.791264 0.644706 0.414574 0.138994
H75   H     H_    0.281613 0.860936 0.931194 0.129056
H76   H     H_    0.301108 0.150851 0.411281 0.153614
H77   H     H_    0.170006 0.730250 0.816280 0.153601
H78   H     H_    0.173971 0.272449 0.312649 0.148644
H79   H     H_    0.662225 0.234674 0.827193 0.150745
H80   H     H_    0.672643 0.772170 0.310607 0.150044
H81   H     H_    0.215287 0.791006 0.976096 0.135285
H82   H     H_    0.223512 0.212924 0.450521 0.136002
H83   H     H_    0.748089 0.272614 0.934271 0.134821
H84   H     H_    0.722916 0.713066 0.456026 0.136889
H85   H     H_    0.800375 0.297462 0.398210 0.128444
H86   H     H_    0.834076 0.725503 0.872433 0.136017
H87   H     H_    0.342378 0.769010 0.361119 0.128026
H88   H     H_    0.301375 0.204486 0.896565 0.137477
H89   H     H_    0.212744 0.641291 0.265101 0.155398
H90   H     H_    0.211481 0.357403 0.770915 0.155259
H91   H     H_    0.708425 0.143955 0.273428 0.156925
H92   H     H_    0.714325 0.859655 0.762942 0.153001
H93   H     H_    0.939148 0.393288 0.302528 0.150982
H94   H     H_    0.900488 0.581918 0.843370 0.157003
H95   H     H_    0.435265 0.907494 0.306054 0.147622
H96   H     H_    0.440826 0.110046 0.798149 0.147601
H97   H     H_    0.066886 0.593075 0.882094 0.172138
H98   H     H_    0.071276 0.409009 0.379232 0.169951
H99   H     H_    0.572225 0.090173 0.876493 0.169184
H100  H     H_    0.566570 0.906646 0.382849 0.167401
N1    N     N_R   0.761004 0.556811 0.808795 0.194619
O49   O     O_R   0.778854 0.585625 0.935536 -0.399807
O50   O     O_R   0.729409 0.576705 0.674561 -0.455215
N2    N     N_R   0.751178 0.449336 0.293180 0.196788
O51   O     O_R   0.751394 0.422438 0.422321 -0.448873
O52   O     O_R   0.726728 0.430286 0.151200 -0.451479
N3    N     N_R   0.252854 0.051728 0.795813 0.195761
O53   O     O_R   0.254922 0.078516 0.926142 -0.448678
O54   O     O_R   0.227444 0.071170 0.655118 -0.456874
N4    N     N_R   0.258143 0.945447 0.299720 0.197698
O55   O     O_R   0.274702 0.915193 0.423124 -0.386707
O56   O     O_R   0.225695 0.927454 0.163501 -0.460786
C89   C     C_1   0.676150 0.472240 0.809475 0.287416
N5    N     N_1   0.633655 0.474535 0.869677 -0.055754
C90   C     C_1   0.679818 0.541593 0.307404 0.266377
N6    N     N_1   0.637514 0.543368 0.368439 -0.053014
C91   C     C_1   0.179264 0.960578 0.799817 0.271034
N7    N     N_1   0.136202 0.959336 0.858024 -0.052644
C92   C     C_1   0.175760 0.030924 0.314082 0.284073
N8    N     N_1   0.133544 0.028487 0.375309 -0.056317
C93   C     C_1   0.092964 0.221245 0.743322 0.238265
N9    N     N_1   0.142148 0.217207 0.827134 -0.042112
C94   C     C_1   0.050353 0.802368 0.258787 0.338256
N10   N     N_1   0.060208 0.823523 0.382009 -0.063451
C95   C     C_1   0.576130 0.699966 0.640041 0.164210
N11   N     N_1   0.622600 0.687478 0.608577 -0.038482
C96   C     C_1   0.516264 0.306648 0.199030 0.328178
N12   N     N_1   0.497757 0.336400 0.277258 -0.080587

loop_
_geom_bond_atom_site_label_1
_geom_bond_atom_site_label_2
_geom_bond_distance
_ccdc_geom_bond_type
C11   H19   1.109561 S    
C2    C94   1.466736 S    
C10   H22   1.110542 S    
P1    O17   1.764761 S    
O23   P16   1.749600 S    
O10   Ba2   2.765816 S    
C13   H25   1.106336 S    
C6    H14   1.109580 S    
O27   Ba3   2.861187 S    
C20   H44   1.110804 S    
C5    H13   1.113024 S    
O13   P14   1.548998 D    
O26   Ba2   2.860962 S    
C33   C53   1.375631 A    
C8    H12   1.111066 S    
O6    Ba1   2.832945 S    
C17   H41   1.110806 S    
C7    H15   1.107983 S    
C77   C83   1.351392 D    
P7    O39   1.750283 S    
N3    O53   1.299540 A    
C78   C84   1.351078 D    
C58   C62   1.458383 S    
C36   C56   1.378342 A    
C25   H49   1.109886 S    
Ba4   O48   2.831284 S    
C34   H94   1.086397 S    
C64   C88   1.477438 S    
O11   Ba3   2.765729 S    
C18   H38   1.107187 S    
C59   C63   1.460824 S    
P1    O1    1.532144 D    
O32   Ba4   2.767073 S    
C17   H37   1.107074 S    
C70   H90   1.082989 S    
C3    C31   1.526361 S    
O9    P14   1.740946 S    
P10   O42   1.749809 S    
P3    O3    1.532144 D    
C79   C81   1.351919 D    
C29   H57   1.112419 S    
C34   C38   1.435739 A    
C3    H7    1.108329 S    
P4    O20   1.766392 S    
C15   H27   1.106227 S    
O18   C22   1.401169 S    
O43   C7    1.404579 S    
C26   H54   1.105925 S    
C14   H26   1.106032 S    
C33   H93   1.086576 S    
C90   N6    1.157228 T    
C57   H77   1.080621 S    
C35   H95   1.084887 S    
N4    O56   1.300139 A    
P8    O47   1.594417 S    
C89   N5    1.157318 T    
P4    Ba4   3.406184 S    
P12   O32   1.737034 S    
P13   C38   1.868062 S    
C46   C50   1.414448 A    
Ba2   O45   2.936587 S    
P5    Ba1   3.407375 S    
C18   H34   1.110644 S    
P4    C56   1.823750 S    
C4    H8    1.110417 S    
C23   H47   1.095444 S    
P7    O48   1.594574 S    
C43   H87   1.082668 S    
C13   C17   1.521534 S    
H4    C32   1.111618 S    
P16   C39   1.865721 S    
P3    O19   1.767195 S    
C28   H52   1.109573 S    
O15   P16   1.545123 D    
C14   C18   1.521249 S    
P5    O46   1.594574 S    
C92   N8    1.157342 T    
P3    Ba3   3.406080 S    
C80   H82   1.081188 S    
O8    Ba3   2.832945 S    
C34   C54   1.384305 A    
C6    H10   1.112176 S    
P8    C67   1.857919 S    
C44   C48   1.416891 A    
C94   N10   1.157159 T    
C5    H9    1.111306 S    
C79   H81   1.084270 S    
C65   C69   1.350880 D    
C65   C85   1.350494 D    
P4    O8    1.587983 S    
O14   P13   1.547862 D    
C21   C25   1.539384 S    
P6    O38   1.749742 S    
C51   C55   1.380308 A    
P7    C68   1.861682 S    
P4    O4    1.532134 D    
C51   H75   1.084667 S    
C87   H99   1.081673 S    
P8    O28   1.532511 D    
C44   H88   1.085260 S    
O30   Ba2   2.767073 S    
P11   O31   1.735352 S    
P9    O29   1.738032 S    
C93   N9    1.157230 T    
C18   H42   1.110806 S    
C71   C75   1.494013 S    
C59   H79   1.079582 S    
P2    O2    1.532134 D    
C36   H96   1.086386 S    
C66   C86   1.346965 D    
C58   H78   1.078323 S    
C24   H48   1.093233 S    
P5    O25   1.532500 D    
O11   P16   1.737377 S    
O38   C13   1.397487 S    
C15   H31   1.111006 S    
P12   O36   1.548401 D    
C7    C11   1.520782 S    
P2    Ba2   3.406184 S    
O23   C31   1.409370 S    
P9    O33   1.548242 D    
Ba4   O47   2.936587 S    
C85   H97   1.081664 S    
P1    Ba1   3.406080 S    
P12   C63   1.837201 S    
C31   H59   1.110665 S    
C41   C45   1.420091 A    
C43   C47   1.410578 A    
C68   C72   1.351372 D    
Ba3   Ba4   4.617178 S    
C5    C9    1.519501 S    
O44   C8    1.407252 S    
C1    C93   1.467644 S    
N2    O52   1.299860 A    
O3    Ba3   2.859052 S    
C60   C64   1.455212 S    
C46   C78   1.484429 S    
C45   C49   1.413117 A    
O37   C14   1.398826 S    
O4    Ba4   2.859273 S    
P10   C61   1.835593 S    
C39   C43   1.427877 A    
C76   C84   1.484952 S    
C48   C80   1.485958 S    
C2    H62   1.111033 S    
C95   N11   1.157355 T    
C10   H18   1.110197 S    
O21   C29   1.405441 S    
O39   C16   1.397751 S    
P8    Ba4   3.407268 S    
C88   H100  1.081636 S    
P8    O40   1.750023 S    
P5    O37   1.750375 S    
C20   H36   1.110654 S    
O21   P14   1.754003 S    
N1    O50   1.300504 A    
C3    H63   1.111603 S    
C50   C54   1.382939 A    
C27   H51   1.106819 S    
C72   H92   1.083161 S    
P2    O18   1.768336 S    
C12   H68   1.110861 S    
C47   C51   1.411449 A    
C58   C74   1.401743 A    
O9    Ba1   2.765729 S    
C59   C75   1.402221 A    
C70   C74   1.495942 S    
C40   C44   1.439664 A    
C57   C73   1.397570 A    
C14   H30   1.110916 S    
C69   C73   1.493149 S    
C24   N4    1.465919 S    
C72   C76   1.493455 S    
C25   C89   1.468521 S    
O25   Ba1   2.861187 S    
P10   O30   1.735844 S    
C47   C79   1.489941 S    
C35   C39   1.436042 A    
C91   N7    1.157209 T    
C86   H98   1.081740 S    
C35   C55   1.384651 A    
P11   O43   1.749980 S    
P6    Ba2   3.407268 S    
C8    C12   1.519401 S    
O22   P13   1.752098 S    
P12   O44   1.749984 S    
C26   C90   1.468402 S    
C19   H39   1.106823 S    
Ba1   Ba2   4.617178 S    
C42   C46   1.411156 A    
C15   C19   1.521135 S    
C60   H80   1.079459 S    
C82   H72   1.085037 S    
C67   C71   1.352168 D    
C41   H85   1.082875 S    
Ba3   O47   2.831063 S    
C2    C30   1.527425 S    
C16   H32   1.111405 S    
C21   H45   1.095195 S    
P9    O41   1.748674 S    
Ba1   O45   2.831063 S    
P11   C64   1.834939 S    
O22   C30   1.413288 S    
C28   C92   1.468243 S    
C63   C87   1.473428 S    
O2    Ba2   2.859273 S    
C13   H29   1.111455 S    
P2    O6    1.587983 S    
O31   Ba3   2.767159 S    
P7    Ba3   3.407375 S    
N1    O49   1.300565 A    
C57   C61   1.457896 S    
C49   H73   1.085201 S    
C4    C32   1.526214 S    
H1    C29   1.110531 S    
C10   H66   1.110466 S    
C81   H71   1.082115 S    
N3    O54   1.299695 A    
C17   H33   1.110664 S    
C21   N1    1.466590 S    
O24   C32   1.406526 S    
O1    Ba1   2.859052 S    
C9    H65   1.110886 S    
P15   C40   1.866063 S    
P6    O26   1.532511 D    
C62   C86   1.470884 S    
C4    C96   1.467316 S    
C2    H6    1.110806 S    
C19   H35   1.110641 S    
C38   C42   1.426774 A    
P2    C54   1.828688 S    
O40   C15   1.398714 S    
C80   C82   1.351445 D    
N2    O51   1.299546 A    
C77   H83   1.082944 S    
C71   H91   1.083046 S    
C26   H50   1.106495 S    
H3    C31   1.112743 S    
C49   C53   1.376119 A    
C50   H74   1.084767 S    
C32   H60   1.109088 S    
C83   H69   1.082464 S    
C11   H23   1.110757 S    
C67   C87   1.348232 D    
O19   C23   1.400958 S    
C61   C85   1.477953 S    
C19   H43   1.110812 S    
O16   P15   1.548882 D    
C22   N2    1.466525 S    
C52   C56   1.377701 A    
C3    C95   1.467082 S    
C4    H64   1.110527 S    
C20   H40   1.107825 S    
P1    O5    1.587829 S    
C24   C28   1.540381 S    
P9    C62   1.832475 S    
C9    H21   1.110606 S    
C8    H16   1.112190 S    
O29   Ba1   2.767159 S    
C7    H11   1.112098 S    
C78   H84   1.082516 S    
O28   Ba4   2.860962 S    
C33   C37   1.437875 A    
P7    O27   1.532500 D    
P14   C37   1.865174 S    
O42   C6    1.405569 S    
C12   H20   1.110138 S    
C11   H67   1.110568 S    
O41   C5    1.406425 S    
C16   H28   1.106116 S    
O10   P13   1.731861 S    
C27   H55   1.104972 S    
C23   C27   1.541282 S    
C23   N3    1.466403 S    
C1    H5    1.110743 S    
O12   P15   1.742135 S    
C1    C29   1.524602 S    
Ba2   O46   2.831284 S    
O12   Ba4   2.765816 S    
P3    C55   1.834851 S    
C6    C10   1.519996 S    
C9    H17   1.110921 S    
P3    O7    1.587829 S    
N4    O55   1.299460 A    
P5    C66   1.856949 S    
P11   O35   1.546690 D    
C60   C76   1.398001 A    
C48   C52   1.413037 A    
H2    C30   1.111681 S    
C84   H70   1.083124 S    
C1    H61   1.110841 S    
Ba3   O48   2.936548 S    
C22   C26   1.541512 S    
O24   P15   1.755736 S    
C28   H56   1.106146 S    
C66   C70   1.353966 D    
C69   H89   1.083164 S    
C68   C88   1.350690 D    
C96   N12   1.157114 T    
O20   C24   1.400455 S    
C30   H58   1.111774 S    
C22   H46   1.094035 S    
Ba1   O46   2.936548 S    
C16   C20   1.521570 S    
P6    C65   1.862086 S    
C45   C77   1.493204 S    
C25   H53   1.105248 S    
C12   H24   1.110518 S    
O7    Ba4   2.832725 S    
C27   C91   1.468547 S    
C37   C41   1.441535 A    
C52   H76   1.085809 S    
P6    O45   1.594417 S    
O17   C21   1.398747 S    
P10   O34   1.546994 D    
C74   C82   1.493346 S    
C36   C40   1.438809 A    
C75   C83   1.491301 S    
P1    C53   1.820727 S    
C73   C81   1.483494 S    
C42   H86   1.083808 S    
O5    Ba2   2.832725 S    
