data_mof_unit_57379.cif
_audit_creation_date              2012-12-11T17:17:00-0500
_audit_creation_method            fapswitch 2.2
_symmetry_space_group_name_H-M    P1
_symmetry_Int_Tables_number       1
_space_group_crystal_system       triclinic
_cell_length_a                    6.943012
_cell_length_b                    13.376801
_cell_length_c                    14.676064
_cell_angle_alpha                 98.870292
_cell_angle_beta                  89.730631
_cell_angle_gamma                 90.340625
_cell_volume                      1346.70794887

loop_
_atom_site_label
_atom_site_type_symbol
_atom_type_description
_atom_site_fract_x
_atom_site_fract_y
_atom_site_fract_z
_atom_type_partial_charge
O1    O     O_R   0.354890 0.151580 0.148210 -0.538008
O2    O     O_R   0.645110 0.848420 0.851790 -0.538008
O3    O     O_R   0.682370 0.152980 0.336770 -0.530958
O4    O     O_R   0.317630 0.847020 0.663230 -0.530957
O5    O     O_R   0.854980 0.348430 0.351800 -0.529588
O6    O     O_R   0.145020 0.651570 0.648200 -0.529587
C1    C     C_R   0.513165 0.131342 0.366248 0.739344
C2    C     C_R   0.486835 0.868658 0.633752 0.739344
O7    O     O_R   0.684450 0.139580 0.148000 -0.541882
O8    O     O_R   0.315550 0.860420 0.852000 -0.541882
O9    O     O_R   0.857080 0.334940 0.161680 -0.541391
O10   O     O_R   0.142920 0.665060 0.838320 -0.541391
C3    C     C_R   0.515544 0.112682 0.114025 0.720403
C4    C     C_R   0.484456 0.887318 0.885975 0.720404
O11   O     O_R   0.352790 0.165070 0.338330 -0.545217
O12   O     O_R   0.647210 0.834930 0.661670 -0.545216
O13   O     O_3   0.522170 0.314120 0.254710 -0.370499
O14   O     O_3   0.477830 0.685880 0.745290 -0.370499
V1    V     V_3+5 0.796120 0.238110 0.249130 1.444453
V2    V     V_3+5 0.203880 0.761890 0.750870 1.444453
O15   O     O_R   0.186930 0.347040 0.163240 -0.544674
O16   O     O_R   0.813070 0.652960 0.836760 -0.544674
C5    C     C_R   0.018685 0.368794 0.133580 0.671005
C6    C     C_R   0.981315 0.631205 0.866420 0.671005
O17   O     O_R   0.184850 0.360440 0.352010 -0.537407
O18   O     O_R   0.815150 0.639560 0.647990 -0.537407
C7    C     C_R   0.015814 0.387320 0.385991 0.751632
C8    C     C_R   0.984186 0.612680 0.614009 0.751632
V3    V     V_3+5 0.296410 0.261900 0.250880 1.430172
V4    V     V_3+5 0.703590 0.738100 0.749120 1.430172
O19   O     O_3   0.020490 0.185890 0.245290 -0.371442
O20   O     O_3   0.979510 0.814110 0.754710 -0.371442
C9    C     C_1   0.005126 0.466905 0.466346 -0.168587
C10   C     C_1   0.994874 0.533095 0.533654 -0.168588
C11   C     C_3   0.078506 0.589901 0.033841 -0.140857
C12   C     C_3   0.921494 0.410099 0.966159 -0.140857
C13   C     C_3   0.903451 0.540747 0.076077 -0.141611
C14   C     C_3   0.096549 0.459253 0.923923 -0.141611
H1    H     H_    0.823950 0.573961 0.139232 0.104874
H2    H     H_    0.176050 0.426039 0.860767 0.104874
H3    H     H_    0.143265 0.664481 0.061315 0.100592
H4    H     H_    0.856735 0.335519 0.938685 0.100593
C15   C     C_3   0.009983 0.438913 0.062717 -0.004273
C16   C     C_3   0.990016 0.561086 0.937283 -0.004273
C17   C     C_3   0.185228 0.487263 0.021274 -0.115530
C18   C     C_3   0.814772 0.512737 0.978726 -0.115530
H5    H     H_    0.338111 0.476554 0.039187 0.107301
H6    H     H_    0.661889 0.523446 0.960813 0.107301
C19   C     C_3   0.317795 0.027911 0.483102 -0.220907
C20   C     C_3   0.682205 0.972088 0.516898 -0.220909
C21   C     C_3   0.397424 0.919359 0.469582 0.405653
C22   C     C_3   0.602576 0.080641 0.530418 0.405653
H7    H     H_    0.167928 0.048730 0.468126 0.142527
H8    H     H_    0.832072 0.951269 0.531874 0.142527
C23   C     C_3   0.496715 0.939002 0.563593 -0.078257
C24   C     C_3   0.503285 0.060998 0.436406 -0.078257
C25   C     C_3   0.419628 0.048763 0.578660 -0.249924
C26   C     C_3   0.580372 0.951237 0.421340 -0.249926
H9    H     H_    0.357653 0.089538 0.643701 0.122954
H10   H     H_    0.642347 0.910462 0.356299 0.122954
C27   C     C_1   0.504951 0.033099 0.033661 -0.193988
C28   C     C_1   0.495049 0.966901 0.966339 -0.193988
O21   O     O_3   0.288697 0.832558 0.438694 -0.649849
H11   H     H_    0.240328 0.841876 0.377140 0.273936
O22   O     O_3   0.711302 0.167441 0.561306 -0.649849
H12   H     H_    0.759679 0.158122 0.622858 0.273936

loop_
_geom_bond_atom_site_label_1
_geom_bond_atom_site_label_2
_ccdc_geom_bond_type
C14   H2    S    
O13   V3    S    
C12   H4    S    
O4    C2    A    
V1    O19   S    
C19   C25   S    
C7    C9    S    
O9    V1    S    
C20   H8    S    
C11   C13   S    
O3    C1    A    
C25   H9    S    
O12   V4    S    
C4    C28   S    
C5    C15   S    
O7    C3    A    
C14   C17   S    
O5    C7    A    
O7    V1    S    
O6    C8    A    
O8    V2    S    
C19   C21   S    
C20   C22   S    
O3    V1    S    
O14   V4    S    
C21   C23   S    
C1    O11   A    
C8    C10   S    
C2    O12   A    
C1    C24   S    
O2    C4    A    
C2    C23   S    
C16   C18   S    
O11   V3    S    
C17   H5    S    
O17   V3    S    
C18   H6    S    
C20   C26   S    
C21   O21   S    
O8    C4    A    
O15   V3    S    
C13   C15   S    
C14   C16   S    
O10   V2    S    
O1    V3    S    
C9    C10   T    
C21   C26   S    
C12   C18   S    
C11   C16   S    
C15   C17   S    
O18   V4    S    
C23   C25   S    
C6    C16   S    
O16   C6    A    
O1    C3    A    
C12   C14   S    
C11   C17   S    
V2    O20   S    
O16   V4    S    
O5    V1    S    
O17   C7    A    
C19   C24   S    
O6    V2    S    
O10   C6    A    
O18   C8    A    
C20   C23   S    
O2    V4    S    
O15   C5    A    
C13   H1    S    
V4    O20   S    
C19   H7    S    
O9    C5    A    
O13   V1    S    
C24   C26   S    
O14   V2    S    
C27   C28   T    
C11   H3    S    
C22   C25   S    
O21   H11   S    
O4    V2    S    
C3    C27   S    
V3    O19   S    
O22   H12   S    
C12   C15   S    
C13   C18   S    
C26   H10   S    
C22   O22   S    
C22   C24   S    
