data_mof_unit_37569.cif
_audit_creation_date              2012-12-10T17:41:00-0500
_audit_creation_method            fapswitch 2.2
_symmetry_space_group_name_H-M    P1
_symmetry_Int_Tables_number       1
_space_group_crystal_system       triclinic
_cell_length_a                    14.753732
_cell_length_b                    15.528391
_cell_length_c                    9.975628
_cell_angle_alpha                 89.999025
_cell_angle_beta                  87.390103
_cell_angle_gamma                 90.000479
_cell_volume                      2283.06288798

loop_
_atom_site_label
_atom_site_type_symbol
_atom_type_description
_atom_site_fract_x
_atom_site_fract_y
_atom_site_fract_z
_atom_type_partial_charge
Br1   Br    Br    0.693916 0.999999 0.830563 -0.420658
Br2   Br    Br    0.193916 0.499999 0.830563 -0.420658
Br3   Br    Br    0.246982 0.212602 0.055422 -0.521322
Br4   Br    Br    0.246957 0.787388 0.055412 -0.521274
Br5   Br    Br    0.746974 0.712605 0.055418 -0.521304
Br6   Br    Br    0.746956 0.287388 0.055412 -0.521274
C1    C     C_R   0.386611 0.874278 0.503213 0.921122
C2    C     C_R   0.745520 0.196645 0.386661 -0.127429
C3    C     C_R   0.245505 0.303343 0.386648 -0.127443
C4    C     C_R   0.245517 0.696647 0.386661 -0.127429
C5    C     C_R   0.680738 0.807036 0.492809 -0.091696
C6    C     C_R   0.680741 0.192963 0.492805 -0.091694
C7    C     C_R   0.180738 0.307036 0.492810 -0.091699
C8    C     C_R   0.180739 0.692965 0.492804 -0.091697
C9    C     C_R   0.337160 0.999999 0.159684 -0.054411
C10   C     C_R   0.837160 0.500001 0.159684 -0.054411
C11   C     C_R   0.253294 0.999996 0.107457 -0.171687
C12   C     C_R   0.386610 0.125720 0.503212 0.921129
C13   C     C_R   0.753294 0.499998 0.107456 -0.171687
C14   C     C_R   0.246350 0.999994 0.972148 -0.148626
C15   C     C_R   0.746350 0.499997 0.972148 -0.148628
C16   C     C_R   0.323264 0.999997 0.884579 0.432602
C17   C     C_R   0.823264 0.499998 0.884578 0.432604
C18   C     C_R   0.415619 0.999999 0.934840 0.118501
C19   C     C_R   0.915619 0.499999 0.934840 0.118501
C20   C     C_R   0.418346 0.999999 0.079882 0.123676
C21   C     C_R   0.918346 0.500000 0.079882 0.123675
C22   C     C_R   0.577644 0.000000 0.066467 -0.113692
C23   C     C_R   0.886612 0.374278 0.503213 0.921122
C24   C     C_R   0.077644 0.500000 0.066467 -0.113695
C25   C     C_R   0.616990 0.122775 0.497644 0.858698
C26   C     C_R   0.616990 0.877225 0.497646 0.858694
C27   C     C_R   0.116990 0.622775 0.497644 0.858700
C28   C     C_R   0.116989 0.377225 0.497646 0.858695
C29   C     C_R   0.578058 0.000000 0.924445 0.340601
C30   C     C_R   0.078058 0.500000 0.924445 0.340600
C31   C     C_R   0.294078 0.206731 0.767156 0.402579
C32   C     C_R   0.294067 0.793268 0.767154 0.402587
C33   C     C_R   0.794074 0.706729 0.767154 0.402579
C34   C     C_R   0.886610 0.625720 0.503212 0.921126
C35   C     C_R   0.794069 0.293267 0.767155 0.402587
C36   C     C_R   0.223953 0.210974 0.868017 0.268672
C37   C     C_R   0.223937 0.789027 0.868006 0.268660
C38   C     C_R   0.723947 0.710973 0.868013 0.268668
C39   C     C_R   0.723938 0.289026 0.868007 0.268661
C40   C     C_R   0.634681 0.721616 0.832696 -0.169774
C41   C     C_R   0.634674 0.278388 0.832680 -0.169764
C42   C     C_R   0.134686 0.221619 0.832702 -0.169777
C43   C     C_R   0.134671 0.778389 0.832680 -0.169766
C44   C     C_R   0.617305 0.744253 0.701901 -0.143217
C45   C     C_R   0.317133 0.246858 0.393916 -0.164950
C46   C     C_R   0.617302 0.255752 0.701884 -0.143208
C47   C     C_R   0.117309 0.244256 0.701908 -0.143216
C48   C     C_R   0.117299 0.755752 0.701884 -0.143211
C49   C     C_R   0.688940 0.755238 0.606561 0.018845
C50   C     C_R   0.688939 0.244763 0.606553 0.018840
C51   C     C_R   0.188942 0.255240 0.606566 0.018850
C52   C     C_R   0.188937 0.744764 0.606553 0.018841
C53   C     C_R   0.273161 0.219255 0.629795 0.019850
C54   C     C_R   0.273155 0.780746 0.629792 0.019855
C55   C     C_R   0.773158 0.719252 0.629794 0.019854
C56   C     C_R   0.317148 0.753130 0.393932 -0.164954
C57   C     C_R   0.773158 0.280745 0.629793 0.019854
C58   C     C_R   0.329790 0.201753 0.513138 -0.109068
C59   C     C_R   0.329794 0.798243 0.513144 -0.109068
C60   C     C_R   0.829790 0.701753 0.513140 -0.109067
C61   C     C_R   0.829796 0.298241 0.513144 -0.109069
C62   C     C_R   0.817137 0.746862 0.393921 -0.164953
C63   C     C_R   0.817150 0.253128 0.393932 -0.164952
C64   C     C_R   0.745509 0.803347 0.386652 -0.127438
Cl1   Cl    Cl    0.278115 0.999998 0.725255 -0.656126
Cl2   Cl    Cl    0.778115 0.499997 0.725255 -0.656125
Cl3   Cl    Cl    0.405463 0.208945 0.821577 -0.639245
Cl4   Cl    Cl    0.405449 0.791047 0.821583 -0.639236
Cl5   Cl    Cl    0.905457 0.708946 0.821578 -0.639243
Cl6   Cl    Cl    0.905451 0.291049 0.821587 -0.639238
H1    H     H_    0.362641 0.238299 0.306581 0.207688
H2    H     H_    0.079931 0.779648 0.908617 0.227734
H3    H     H_    0.549117 0.757980 0.674830 0.209965
H4    H     H_    0.549114 0.242029 0.674806 0.209957
H5    H     H_    0.049120 0.257982 0.674840 0.209968
H6    H     H_    0.049111 0.742029 0.674807 0.209957
H7    H     H_    0.740382 0.843363 0.298347 0.196587
H8    H     H_    0.740398 0.156623 0.298365 0.196578
H9    H     H_    0.240376 0.343357 0.298339 0.196592
H10   H     H_    0.240395 0.656626 0.298365 0.196581
H11   H     H_    0.641334 0.000001 0.116148 0.172727
H12   H     H_    0.362667 0.761682 0.306612 0.207660
H13   H     H_    0.141334 0.500000 0.116148 0.172728
H14   H     H_    0.333754 0.000003 0.265060 0.222227
H15   H     H_    0.833754 0.500003 0.265060 0.222227
H16   H     H_    0.192665 0.999995 0.173014 0.188378
H17   H     H_    0.692665 0.499997 0.173013 0.188378
H18   H     H_    0.862649 0.738306 0.306592 0.207678
H19   H     H_    0.862669 0.261681 0.306610 0.207659
H20   H     H_    0.177878 0.999992 0.936354 0.200608
H21   H     H_    0.677879 0.499995 0.936353 0.200609
H22   H     H_    0.579944 0.720361 0.908639 0.227726
H23   H     H_    0.579934 0.279648 0.908617 0.227736
H24   H     H_    0.079950 0.220364 0.908647 0.227723
N1    N     N_R   0.498810 1.000000 0.142780 -0.137660
N2    N     N_R   0.998810 0.500000 0.142780 -0.137660
N3    N     N_R   0.498740 1.000000 0.857170 -0.111292
N4    N     N_R   0.998740 0.500000 0.857170 -0.111293
O1    O     O_R   0.408390 0.908380 0.614690 -0.540022
O2    O     O_R   0.591620 0.908390 0.614640 -0.570423
O3    O     O_R   0.091620 0.591610 0.614640 -0.570413
O4    O     O_R   0.091620 0.408390 0.614640 -0.570424
O5    O     O_R   0.591610 0.091610 0.385310 -0.624464
O6    O     O_R   0.591610 0.908390 0.385310 -0.624472
O7    O     O_R   0.091610 0.591610 0.385310 -0.624464
O8    O     O_R   0.091610 0.408390 0.385310 -0.624474
O9    O     O_R   0.408390 0.091620 0.614690 -0.540018
O10   O     O_R   0.908390 0.408380 0.614690 -0.540022
O11   O     O_R   0.908390 0.591620 0.614690 -0.540020
O12   O     O_R   0.408370 0.908380 0.385360 -0.647595
O13   O     O_R   0.408370 0.091620 0.385360 -0.647601
O14   O     O_R   0.908370 0.408380 0.385360 -0.647594
O15   O     O_R   0.908370 0.591620 0.385360 -0.647599
O16   O     O_R   0.591620 0.091610 0.614640 -0.570412
Zn1   Zn    Zn3+2 0.500010 0.000000 0.653130 1.074882
Zn2   Zn    Zn3+2 0.000010 0.500000 0.653130 1.074880
Zn3   Zn    Zn3+2 0.499980 1.000000 0.346870 0.974868
Zn4   Zn    Zn3+2 0.999980 0.500000 0.346870 0.974867

loop_
_geom_bond_atom_site_label_1
_geom_bond_atom_site_label_2
_ccdc_geom_bond_type
C60   C62   A    
C23   O10   A    
Br3   C36   S    
O12   Zn3   S    
C28   O8    A    
C3    C45   A    
C44   H3    S    
C8    C27   S    
C5    C64   A    
O15   Zn4   S    
C2    C63   A    
N1    Zn3   S    
C26   O6    A    
Br6   C39   S    
C18   C20   A    
O8    Zn4   S    
C29   N3    A    
C20   N1    A    
C32   Cl4   S    
C51   C53   A    
C34   O11   A    
C7    C51   A    
C52   C54   A    
C43   C48   A    
C11   C14   A    
C41   H23   S    
C43   H2    S    
C47   H5    S    
C31   C36   A    
C3    C7    A    
C3    H9    S    
C23   C61   S    
C55   C60   A    
C22   C29   A    
C27   O3    A    
C1    O1    A    
C27   O7    A    
C33   Cl5   S    
C13   H17   S    
C31   C53   A    
C10   C21   A    
C40   H22   S    
O11   Zn2   S    
C34   C60   S    
C4    C56   A    
C11   H16   S    
C24   H13   S    
N2    Zn4   S    
C22   N1    A    
C12   O9    A    
C38   C40   A    
C39   C41   A    
C42   C47   A    
C8    C52   A    
C57   C61   A    
C42   H24   S    
C4    C8    A    
C47   C51   A    
C37   C43   A    
C9    C20   A    
O14   Zn4   S    
C56   H12   S    
C62   H18   S    
C61   C63   A    
C1    O12   A    
C41   C46   A    
C45   H1    S    
O6    Zn3   S    
C1    C59   S    
C15   H21   S    
C2    C6    A    
C24   N2    A    
C22   H11   S    
C25   O5    A    
C50   C57   A    
O1    Zn1   S    
C36   C42   A    
C64   H7    S    
C12   O13   A    
C6    C50   A    
C32   C54   A    
Br5   C38   S    
C14   C16   A    
C5    C26   S    
C15   C17   A    
C6    C25   S    
C16   C18   A    
C35   C57   A    
N3    Zn1   S    
C16   Cl1   S    
C48   H6    S    
C33   C55   A    
C5    C49   A    
O16   Zn1   S    
Br1   C29   S    
C48   C52   A    
Br2   C30   S    
C9    C11   A    
C31   Cl3   S    
C4    H10   S    
C56   C59   A    
C13   C15   A    
O7    Zn4   S    
C2    H8    S    
C17   Cl2   S    
O5    Zn3   S    
C45   C58   A    
O4    Zn2   S    
C63   H19   S    
C54   C59   A    
C19   N4    A    
C33   C38   A    
Br4   C37   S    
C19   C21   A    
O9    Zn1   S    
C23   O14   A    
C40   C44   A    
C21   N2    A    
C44   C49   A    
C24   C30   A    
C30   N4    A    
C18   N3    A    
C28   O4    A    
O13   Zn3   S    
C7    C28   S    
C9    H14   S    
C12   C58   S    
C10   C13   A    
C49   C55   A    
O2    Zn1   S    
C17   C19   A    
C14   H20   S    
C25   O16   A    
O10   Zn2   S    
C53   C58   A    
C32   C37   A    
C34   O15   A    
N4    Zn2   S    
C10   H15   S    
C62   C64   A    
C35   C39   A    
C26   O2    A    
O3    Zn2   S    
C46   H4    S    
C46   C50   A    
C35   Cl6   S    
