data_mof_unit_64480.cif
_audit_creation_date              2013-03-05T15:46:05-0500
_audit_creation_method            fapswitch 2.2
_symmetry_space_group_name_H-M    P1
_symmetry_Int_Tables_number       1
_space_group_crystal_system       triclinic
_cell_length_a                    21.644631
_cell_length_b                    21.631645
_cell_length_c                    21.753228
_cell_angle_alpha                 63.17527
_cell_angle_beta                  119.529488
_cell_angle_gamma                 87.551493
_cell_volume                      7433.07340958

loop_
_atom_site_label
_atom_site_type_symbol
_atom_site_description
_atom_site_fract_x
_atom_site_fract_y
_atom_site_fract_z
_atom_type_partial_charge
O1    O     O_R   0.591660 0.448290 0.500000 -0.623007
O2    O     O_R   0.591590 0.551700 0.500020 -0.544979
C1    C     C_R   0.621707 0.497955 0.502444 0.932592
O3    O     O_R   0.438430 0.509910 0.376770 -0.602946
O4    O     O_R   0.438360 0.613320 0.376790 -0.565245
C2    C     C_R   0.420859 0.580044 0.337677 0.950191
Zn1   Zn    Zn3+2 0.500040 0.430950 0.499990 1.109716
Zn2   Zn    Zn3+2 0.499960 0.569050 0.500010 1.187801
O5    O     O_R   0.408410 0.448300 0.499980 -0.617301
O6    O     O_R   0.408340 0.551710 0.500000 -0.575790
O7    O     O_R   0.561640 0.386680 0.623210 -0.615947
O8    O     O_R   0.561570 0.490090 0.623230 -0.581577
C3    C     C_R   0.380008 0.501494 0.500102 0.908214
C4    C     C_R   0.580198 0.419729 0.662491 0.893893
C5    C     C_3   0.274095 0.809969 0.976416 0.060158
C6    C     C_3   0.243965 0.778268 0.030921 0.210004
C7    C     C_1   0.381735 0.621471 0.249172 0.041317
C8    C     C_1   0.128934 0.873282 0.751324 -0.050212
C9    C     C_3   0.334611 0.732696 0.029525 0.081374
C10   C     C_3   0.303606 0.702099 0.083548 -0.181746
C11   C     C_3   0.278018 0.712620 0.969555 0.182527
C12   C     C_3   0.218315 0.788606 0.917090 -0.165548
C13   C     C_3   0.247937 0.680813 0.024102 0.087340
C14   C     C_3   0.187548 0.757887 0.971340 0.077295
C15   C     C_1   0.347674 0.656947 0.174364 0.195508
C16   C     C_1   0.169584 0.835244 0.826275 0.155421
C17   C     C_R   0.776334 0.426996 0.657136 0.158387
C18   C     C_R   0.839731 0.363385 0.728231 0.174872
C19   C     C_R   0.889495 0.330227 0.719428 0.039586
C20   C     C_R   0.881573 0.365563 0.642053 0.266545
C21   C     C_R   0.819387 0.431509 0.571823 -0.091503
C22   C     C_R   0.760636 0.452477 0.576747 -0.127269
C23   C     C_R   0.687941 0.496714 0.500990 -0.153889
C24   C     C_R   0.677019 0.527102 0.422550 0.216200
C25   C     C_R   0.739811 0.519295 0.419566 0.221166
C26   C     C_R   0.812601 0.477394 0.495872 -0.180314
C27   C     C_3   0.714880 0.206506 0.024243 0.175398
C28   C     C_3   0.673762 0.290220 0.970949 0.076519
C29   C     C_1   0.622606 0.377618 0.751432 -0.032351
C30   C     C_1   0.871746 0.128786 0.249251 -0.007011
C31   C     C_3   0.743486 0.213677 0.969882 0.090799
C32   C     C_3   0.703702 0.297956 0.917409 -0.159288
C33   C     C_3   0.814157 0.223425 0.029035 0.174462
C34   C     C_3   0.786084 0.214565 0.083868 -0.190586
C35   C     C_3   0.775285 0.307552 0.975962 0.125473
C36   C     C_3   0.746096 0.298711 0.030954 0.072948
C37   C     C_1   0.658938 0.342108 0.826473 0.157148
C38   C     C_1   0.832500 0.167996 0.174504 0.210122
C39   C     C_R   0.238526 0.536004 0.350369 0.167562
C40   C     C_R   0.196466 0.506810 0.303747 0.149163
C41   C     C_R   0.148313 0.473301 0.320966 0.143463
C42   C     C_R   0.139924 0.472116 0.381816 0.226865
C43   C     C_R   0.190044 0.492965 0.436696 -0.106249
C44   C     C_R   0.246696 0.513451 0.426983 -0.097731
C45   C     C_R   0.311444 0.508369 0.495224 -0.081846
C46   C     C_R   0.312667 0.504018 0.561933 0.094623
C47   C     C_R   0.247640 0.504482 0.560280 0.136590
C48   C     C_R   0.187852 0.494709 0.500793 -0.125830
O9    O     O_R   0.051700 0.908270 0.500000 -0.599915
O10   O     O_R   0.948250 0.908380 0.499990 -0.608816
C49   C     C_R   0.998531 0.882505 0.494165 0.867924
O11   O     O_R   0.113330 0.938270 0.623230 -0.618307
O12   O     O_R   0.009880 0.938380 0.623210 -0.568302
C50   C     C_R   0.082024 0.918237 0.662437 0.891656
Zn3   Zn    Zn3+2 0.069070 0.999850 0.500010 1.119415
Zn4   Zn    Zn3+2 0.930930 0.000000 0.499990 1.157559
O13   O     O_R   0.051750 0.091470 0.500010 -0.605642
O14   O     O_R   0.948300 0.091580 0.500000 -0.545965
O15   O     O_R   0.990120 0.061470 0.376790 -0.583834
O16   O     O_R   0.886670 0.061580 0.376770 -0.594165
C51   C     C_R   0.000956 0.117427 0.505015 0.927562
C52   C     C_R   0.918088 0.082211 0.337751 0.915671
O17   O     O_R   0.965170 0.626380 0.430470 -0.611876
O18   O     O_R   0.034730 0.556800 0.569600 -0.569063
C53   C     C_R   0.993264 0.620025 0.501458 0.886527
O19   O     O_R   0.873600 0.534810 0.430420 -0.586108
O20   O     O_R   0.943150 0.465220 0.569550 -0.595185
C54   C     C_R   0.879940 0.490604 0.498566 0.926034
Zn5   Zn    Zn3+2 0.953560 0.546470 0.407100 1.180101
Zn6   Zn    Zn3+2 0.046440 0.453550 0.592900 1.225852
O21   O     O_R   0.965270 0.443220 0.430400 -0.579050
O22   O     O_R   0.034830 0.373630 0.569530 -0.577073
O23   O     O_R   0.056850 0.534790 0.430450 -0.594301
O24   O     O_R   0.126400 0.465210 0.569580 -0.573305
C55   C     C_R   0.004167 0.379646 0.498800 0.952450
C56   C     C_R   0.120888 0.496209 0.500413 0.911925
H1    H     H_    0.076946 0.750224 0.628717 0.186743
C57   C     C_R   0.922771 0.877950 0.336568 0.004870
C58   C     C_R   0.859523 0.882004 0.267167 0.200039
C59   C     C_R   0.825775 0.827616 0.281237 0.182751
C60   C     C_R   0.862427 0.763862 0.362306 0.079708
C61   C     C_R   0.932804 0.754956 0.428603 -0.049781
C62   C     C_R   0.952969 0.817669 0.419226 -0.039023
C63   C     C_R   0.002058 0.816176 0.493430 -0.072239
C64   C     C_R   0.041754 0.750201 0.571977 -0.218931
C65   C     C_R   0.035391 0.684330 0.578379 0.301596
C66   C     C_R   0.983775 0.686143 0.504496 -0.183758
C67   C     C_R   0.044325 0.126388 0.653727 0.196768
C68   C     C_R   0.093581 0.123230 0.728858 0.062874
C69   C     C_R   0.135215 0.171090 0.728998 0.165477
C70   C     C_R   0.117293 0.230820 0.652068 0.250640
C71   C     C_R   0.055019 0.242977 0.575196 -0.069726
C72   C     C_R   0.031605 0.183350 0.577549 -0.140621
C73   C     C_R   0.994991 0.184724 0.502456 -0.148713
C74   C     C_R   0.961521 0.250436 0.424367 0.242223
C75   C     C_R   0.961706 0.316137 0.420931 0.165341
C76   C     C_R   0.010000 0.312889 0.497247 -0.103382
N1    N     N_R   0.224169 0.815410 0.063755 0.259870
O25   O     O_R   0.170119 0.878824 0.012023 -0.284683
O26   O     O_R   0.259640 0.785610 0.144367 -0.284594
I1    I     I_    0.972686 0.223995 0.822843 0.088383
N2    N     N_R   0.929477 0.329222 0.631660 0.214720
O27   O     O_R   0.900139 0.322988 0.567086 -0.399124
O28   O     O_R   0.002411 0.302221 0.686463 -0.343561
N3    N     N_R   0.729133 0.551516 0.339502 0.252063
O29   O     O_R   0.757329 0.510660 0.323994 -0.312397
O30   O     O_R   0.685709 0.619594 0.279477 -0.256883
I2    I     I_    0.560635 0.342238 0.924123 -0.041826
N4    N     N_R   0.680355 0.152568 0.049611 0.271648
O31   O     O_R   0.621747 0.149059 0.992766 -0.261793
O32   O     O_R   0.703813 0.112039 0.127941 -0.310064
I3    I     I_    0.749505 0.363470 0.082664 -0.014330
I4    I     I_    0.824376 0.388631 0.939547 0.078476
N5    N     N_R   0.890784 0.187364 0.059862 0.260020
O33   O     O_R   0.907315 0.198022 0.006775 -0.234166
O34   O     O_R   0.942932 0.144263 0.140133 -0.314971
I5    I     I_    0.742263 0.145267 0.922957 0.055057
I6    I     I_    0.413467 0.495636 0.665503 -0.169708
I7    I     I_    0.296200 0.911436 0.938730 -0.049447
N6    N     N_R   0.258538 0.598734 0.312522 0.204984
O35   O     O_R   0.274676 0.640197 0.342812 -0.330524
O36   O     O_R   0.238953 0.627178 0.235898 -0.333359
N7    N     N_R   0.203604 0.509992 0.240297 0.274177
O37   O     O_R   0.270348 0.490744 0.256730 -0.323089
O38   O     O_R   0.143999 0.529455 0.167291 -0.258149
N8    N     N_R   0.108340 0.439389 0.277337 0.281298
O39   O     O_R   0.145724 0.385551 0.283718 -0.259997
O40   O     O_R   0.035157 0.466972 0.224553 -0.237184
N9    N     N_R   0.085808 0.442091 0.391446 0.201751
O41   O     O_R   0.104353 0.370847 0.434025 -0.349981
O42   O     O_R   0.014915 0.481742 0.332517 -0.315445
I8    I     I_    0.239584 0.528043 0.642959 -0.061368
I9    I     I_    0.984008 0.949387 0.312960 -0.093095
N10   N     N_R   0.827905 0.942278 0.182889 0.243400
O43   O     O_R   0.866348 0.949299 0.150760 -0.280654
O44   O     O_R   0.756740 0.982193 0.133794 -0.244752
N11   N     N_R   0.757154 0.834820 0.212350 0.259852
O45   O     O_R   0.755693 0.836113 0.151267 -0.261249
O46   O     O_R   0.694431 0.847967 0.206077 -0.251835
I10   I     I_    0.801608 0.692985 0.388698 -0.095605
I11   I     I_    0.070938 0.779618 0.925434 -0.006626
N12   N     N_R   0.077785 0.617508 0.660427 0.230675
O47   O     O_R   0.042768 0.576086 0.685255 -0.312913
O48   O     O_R   0.147332 0.606266 0.715829 -0.296837
N13   N     N_R   0.922538 0.250743 0.348330 0.195230
O49   O     O_R   0.944928 0.273249 0.298834 -0.308273
O50   O     O_R   0.864019 0.229500 0.327944 -0.368862
N14   N     N_R   0.996904 0.081963 0.651892 0.221178
O51   O     O_R   0.923841 0.113735 0.602559 -0.293085
O52   O     O_R   0.025595 0.011447 0.707476 -0.382899
I12   I     I_    0.102261 0.050892 0.841443 0.079714
N15   N     N_R   0.194721 0.159727 0.807150 0.257502
O53   O     O_R   0.264798 0.134653 0.834847 -0.266592
O54   O     O_R   0.178945 0.180103 0.847114 -0.256882
N16   N     N_R   0.165470 0.274713 0.652268 0.229751
O55   O     O_R   0.187472 0.290101 0.602861 -0.327421
O56   O     O_R   0.191557 0.295389 0.705288 -0.279158
I13   I     I_    0.880066 0.414120 0.298910 0.113425
I14   I     I_    0.229094 0.577855 0.058308 0.076047
N17   N     N_R   0.297605 0.675722 0.936432 0.251992
O57   O     O_R   0.349899 0.611120 0.987889 -0.278050
O58   O     O_R   0.263280 0.706808 0.855761 -0.331974
I15   I     I_    0.451687 0.709733 0.077307 0.076194
N18   N     N_R   0.602210 0.565676 0.346050 0.212005
O59   O     O_R   0.558285 0.623349 0.327598 -0.366316
O60   O     O_R   0.578868 0.544747 0.293325 -0.303644
N19   N     N_R   0.737995 0.473799 0.667409 0.217502
O61   O     O_R   0.731906 0.446564 0.730160 -0.353251
O62   O     O_R   0.723160 0.544612 0.624119 -0.309486
N20   N     N_R   0.853030 0.331274 0.809155 0.269366
O63   O     O_R   0.913991 0.327667 0.870598 -0.261800
O64   O     O_R   0.808928 0.297789 0.824006 -0.336082

loop_
_geom_bond_atom_site_label_1
_geom_bond_atom_site_label_2
_geom_bond_distance
_ccdc_geom_bond_type
Zn4   O14   2.032182 S    
C51   C73   1.429240 S    
N16   O55   1.299181 A    
C43   C48   1.435388 A    
N13   O50   1.300809 A    
O17   C53   1.284111 A    
C31   C32   1.544976 S    
C31   I5    2.138351 S    
N6    O36   1.300840 A    
C64   C65   1.387542 A    
C8    C16   1.192786 T    
O19   Zn5   2.025722 S    
C45   C46   1.397876 A    
C3    C45   1.430888 S    
N2    O28   1.300813 A    
N7    O37   1.301310 A    
C47   C48   1.418962 A    
Zn4   O16   2.003529 S    
C35   C36   1.554216 S    
C35   I4    2.137201 S    
C5    C9    1.556545 S    
C62   C63   1.412434 A    
C47   I8    2.157257 S    
N5    O34   1.300094 A    
C18   C19   1.404499 A    
C9    C11   1.540277 S    
O19   C54   1.280480 A    
C28   C32   1.543310 S    
C20   C21   1.422203 A    
O7    C4    1.280679 A    
Zn3   O13   2.001237 S    
C75   C76   1.425295 A    
C1    C23   1.448838 S    
C67   C72   1.420758 A    
C65   N12   1.435537 S    
C53   C66   1.471616 S    
C42   N9    1.421903 S    
N1    O25   1.299485 A    
C30   C38   1.190389 T    
C24   C25   1.398979 A    
O5    C3    1.282939 A    
N18   O59   1.300748 A    
N2    O27   1.301387 A    
O11   C50   1.278875 A    
C72   C73   1.405472 A    
N11   O45   1.300884 A    
C4    C29   1.415257 S    
C68   I12   2.131769 S    
C5    C12   1.544894 S    
C67   N14   1.434262 S    
C34   C36   1.542604 S    
N19   O62   1.301661 A    
C10   C15   1.445002 S    
H1    C64   1.085122 S    
C13   C14   1.553520 S    
C25   N3    1.437507 S    
C19   C20   1.410614 A    
C57   I9    2.130320 S    
C6    C10   1.533279 S    
O12   Zn4   1.986768 S    
O10   Zn4   2.001239 S    
N16   O56   1.301645 A    
O18   Zn6   2.028010 S    
C11   C12   1.531613 S    
N14   O52   1.299501 A    
C31   C33   1.540209 S    
C71   C72   1.394612 A    
O3    Zn1   2.007561 S    
C48   C56   1.444251 S    
C73   C74   1.396633 A    
N20   O64   1.300793 A    
C61   C66   1.415910 A    
C23   C24   1.405814 A    
C69   C70   1.409330 A    
N15   O54   1.300862 A    
N4    O32   1.300276 A    
O9    C49   1.275069 A    
C59   N11   1.432279 S    
O18   C53   1.275649 A    
C41   C42   1.411546 A    
C70   C71   1.425929 A    
Zn6   O22   2.003682 S    
C11   N17   1.458518 S    
Zn6   O24   2.025726 S    
Zn5   O21   2.028007 S    
C57   C62   1.418887 A    
C49   C63   1.441267 S    
N8    O39   1.301214 A    
N3    O30   1.301356 A    
O20   C54   1.282881 A    
C40   N7    1.434944 S    
C20   N2    1.437357 S    
O10   C49   1.289055 A    
O1    C1    1.287304 A    
C32   C35   1.544927 S    
C75   I13   2.153930 S    
O15   C52   1.282383 A    
Zn1   O7    1.982634 S    
C33   C34   1.531916 S    
C9    I15   2.139783 S    
C27   C28   1.538131 S    
C24   N18   1.436168 S    
C14   I11   2.139882 S    
O4    Zn2   1.982636 S    
C18   N20   1.429712 S    
C41   N8    1.435467 S    
C21   C22   1.401100 A    
C27   N4    1.457468 S    
C10   C13   1.544313 S    
Zn2   O8    2.007562 S    
C65   C66   1.414981 A    
C40   C41   1.398694 A    
O17   Zn5   2.003473 S    
C71   C76   1.429265 A    
C42   C43   1.434061 A    
C57   C58   1.412073 A    
N4    O31   1.300275 A    
C70   N16   1.439709 S    
C33   C35   1.538813 S    
N10   O44   1.300491 A    
C74   N13   1.435882 S    
N12   O48   1.301324 A    
C39   C40   1.404695 A    
C11   C13   1.538916 S    
C12   C16   1.445456 S    
N14   O51   1.301335 A    
C12   C14   1.543515 S    
O3    C2    1.279437 A    
C46   C47   1.389583 A    
C58   N10   1.434935 S    
C60   C61   1.412822 A    
N20   O63   1.300848 A    
N8    O40   1.300607 A    
C29   C37   1.193501 T    
N15   O53   1.300693 A    
C74   C75   1.389380 A    
O20   Zn6   2.009134 S    
C5    I7    2.137979 S    
Zn1   O5    2.002554 S    
C2    C7    1.413415 S    
C44   C45   1.403061 A    
C30   C52   1.409621 S    
O11   Zn3   2.003530 S    
N11   O46   1.300760 A    
C17   C22   1.416198 A    
O1    Zn1   2.033842 S    
C19   I1    2.138128 S    
Zn2   O6    2.033839 S    
O2    Zn2   2.002557 S    
C17   N19   1.441812 S    
O24   C56   1.278013 A    
N10   O43   1.300815 A    
O6    C3    1.269666 A    
C60   I10   2.129832 S    
C69   N15   1.430699 S    
N9    O41   1.298647 A    
C43   C44   1.400698 A    
O22   C55   1.276739 A    
C39   N6    1.449228 S    
C68   C69   1.401334 A    
C7    C15   1.192703 T    
C22   C23   1.413975 A    
C9    C10   1.543654 S    
N6    O35   1.301473 A    
O8    C4    1.281976 A    
C26   C54   1.475125 S    
O9    Zn3   2.032182 S    
Zn5   O23   2.009130 S    
N9    O42   1.299904 A    
C8    C50   1.413746 S    
C59   C60   1.404876 A    
O4    C2    1.282133 A    
N17   O58   1.300288 A    
C27   C34   1.531169 S    
O14   C51   1.269018 A    
Zn3   O15   1.986769 S    
C5    C6    1.538828 S    
C61   C62   1.400360 A    
C67   C68   1.409899 A    
N1    O26   1.300155 A    
O2    C1    1.274903 A    
O13   C51   1.286954 A    
C32   C37   1.445857 S    
C46   I6    2.149660 S    
C27   C31   1.539534 S    
C63   C64   1.393465 A    
C13   I14   2.135736 S    
N18   O60   1.301033 A    
C28   C36   1.554092 S    
C6    N1    1.459246 S    
O12   C50   1.284214 A    
C28   I2    2.137936 S    
C34   C38   1.442169 S    
O23   C56   1.268607 A    
N12   O47   1.301481 A    
C6    C14   1.538477 S    
N19   O61   1.298449 A    
N17   O57   1.300438 A    
N13   O49   1.300983 A    
N7    O38   1.301644 A    
C21   C26   1.415901 A    
C36   I3    2.140630 S    
O16   C52   1.278702 A    
C25   C26   1.414668 A    
N3    O29   1.301261 A    
C58   C59   1.407202 A    
C55   C76   1.461163 S    
C33   N5    1.459462 S    
O21   C55   1.278054 A    
C39   C44   1.419551 A    
N5    O33   1.299560 A    
C17   C18   1.412182 A    
