data_mof_unit_66034.cif
_audit_creation_date              2012-12-11T17:19:45-0500
_audit_creation_method            fapswitch 2.2
_symmetry_space_group_name_H-M    P1
_symmetry_Int_Tables_number       1
_space_group_crystal_system       triclinic
_cell_length_a                    8.33484
_cell_length_b                    16.390389
_cell_length_c                    22.769733
_cell_angle_alpha                 95.410521
_cell_angle_beta                  88.880575
_cell_angle_gamma                 93.966937
_cell_volume                      3089.05879221

loop_
_atom_site_label
_atom_site_type_symbol
_atom_type_description
_atom_site_fract_x
_atom_site_fract_y
_atom_site_fract_z
_atom_type_partial_charge
Ba1   Ba    Ba6+2 0.848660 0.538140 0.472240 1.758023
Ba2   Ba    Ba6+2 0.341160 0.461930 0.527770 1.761500
C1    C     C_3   0.622316 0.842963 0.321931 0.179960
C2    C     C_R   0.183479 0.519052 0.925245 0.007220
C3    C     C_R   0.136524 0.513413 0.865539 0.572788
C4    C     C_3   0.171022 0.746896 0.313685 0.505591
C5    C     C_R   0.882951 0.447877 0.891472 0.612319
C6    C     C_R   0.939989 0.437804 0.948807 -0.102881
C7    C     C_R   0.088475 0.477711 0.966407 -0.095169
C8    C     C_R   0.325990 0.563822 0.944392 -0.062012
C9    C     C_R   0.371949 0.568141 0.003282 -0.095145
C10   C     C_R   0.282872 0.523302 0.044226 0.003438
C11   C     C_R   0.142874 0.476456 0.025305 -0.137034
C12   C     C_3   0.649007 0.757856 0.343605 0.357598
C13   C     C_R   0.853476 0.389455 0.989217 0.111558
C14   C     C_R   0.916278 0.382396 0.045495 0.604720
C15   C     C_R   0.059601 0.427207 0.064655 -0.136263
C16   C     C_3   0.159554 0.788244 0.255545 0.781610
C17   C     C_R   0.122526 0.423184 0.121929 0.658982
C18   C     C_R   0.330997 0.525596 0.103658 0.569108
C19   C     C_2   0.824279 0.415382 0.762720 -0.064238
C20   C     C_3   0.784299 0.404760 0.697846 -0.076565
C21   C     C_1   0.992537 0.515250 0.684411 0.008732
C22   C     C_2   0.012558 0.531032 0.742349 -0.097360
C23   C     C_3   0.513356 0.337446 0.346477 1.228204
C24   C     C_2   0.935217 0.474591 0.785534 0.203293
C25   C     C_R   0.440435 0.517221 0.229602 -0.099514
C26   C     C_R   0.465866 0.538366 0.290122 0.013451
C27   C     C_R   0.202386 0.477699 0.312636 -0.032974
C28   C     C_3   0.147079 0.722816 0.602126 0.355782
C29   C     C_R   0.166387 0.468595 0.251946 -0.177746
C30   C     C_R   0.285578 0.487116 0.208027 0.197242
C31   C     C_2   0.877208 0.463457 0.661335 -0.250946
C32   C     C_R   0.382983 0.732758 0.477551 -0.371840
C33   C     C_R   0.525167 0.759169 0.506778 0.042907
C34   C     C_3   0.521356 0.315600 0.279728 0.494941
C35   C     C_R   0.576538 0.842546 0.512502 -0.218742
C36   C     C_R   0.484739 0.900497 0.488697 0.206999
C37   C     C_R   0.340146 0.872853 0.459759 0.515176
C38   C     C_R   0.288337 0.789148 0.455152 -0.061402
C39   C     C_R   0.614818 0.149014 0.494985 -0.148431
C40   C     C_3   0.057264 0.800090 0.620586 0.616891
C41   C     C_R   0.669190 0.231452 0.495112 -0.053312
C42   C     C_R   0.706681 0.093412 0.521567 0.241943
C43   C     C_R   0.813022 0.260086 0.522068 -0.253046
C44   C     C_R   0.907875 0.206329 0.547153 -0.012657
C45   C     C_3   0.033475 0.250459 0.687156 0.524997
C46   C     C_R   0.854650 0.122986 0.547407 -0.163616
C47   C     C_3   0.983556 0.285736 0.315084 0.413486
C48   C     C_3   0.116281 0.247194 0.276530 1.119862
C49   C     C_3   0.679714 0.635514 0.646807 0.351103
C50   C     C_3   0.684979 0.653309 0.713867 -0.048978
C51   C     C_3   0.217407 0.927006 0.600171 -0.182753
C52   C     C_3   0.891683 0.161835 0.365576 -0.133680
C53   C     C_3   0.818866 0.938894 0.380788 -0.158516
C54   C     C_3   0.529093 0.703014 0.799888 -0.158448
C55   C     C_3   0.671642 0.925272 0.237302 -0.171881
C56   C     C_3   0.965022 0.179143 0.720963 -0.332467
C57   C     C_3   0.375380 0.714364 0.202291 -0.253473
C58   C     C_3   0.176788 0.304990 0.780847 -0.186069
C59   C     C_3   0.548615 0.173327 0.789278 -0.221278
C60   C     C_3   0.563920 0.380876 0.992294 -0.110879
C61   C     C_3   0.000655 0.778123 0.163717 -0.206534
C62   C     C_3   0.528378 0.238709 0.661757 0.400830
C63   C     C_3   0.477322 0.155229 0.684105 -0.018329
C64   C     C_R   0.347095 0.518120 0.330914 -0.173615
F1    F     F_    0.092410 0.828832 0.678589 -0.688873
F2    F     F_    0.050854 0.198393 0.228839 -0.661105
F3    F     F_    0.207941 0.200463 0.308656 -0.700128
F4    F     F_    0.355696 0.343608 0.362759 -0.761017
F5    F     F_    0.597114 0.412181 0.359750 -0.697063
F6    F     F_    0.672744 0.333627 0.257275 -0.698186
F7    F     F_    0.831888 0.333917 0.082177 -0.635292
F8    F     F_    0.248606 0.927730 0.437532 -0.687252
F9    F     F_    0.120214 0.868652 0.269999 -0.695831
H1    H     H_    0.758581 0.761081 0.370343 0.089400
H2    H     H_    0.493702 0.841930 0.311205 0.120391
H3    H     H_    0.486417 0.249513 0.268378 0.055090
H4    H     H_    0.439400 0.352961 0.257748 -0.024926
H5    H     H_    0.928661 0.273087 0.666138 -0.067797
H6    H     H_    0.062433 0.147874 0.740396 0.104155
H7    H     H_    0.882326 0.202040 0.756555 0.099804
H8    H     H_    0.897254 0.133213 0.690210 0.098769
H9    H     H_    0.661448 0.243642 0.657544 -0.089205
H10   H     H_    0.477430 0.239977 0.617149 0.046070
H11   H     H_    0.486571 0.107690 0.646140 0.035188
H12   H     H_    0.926322 0.782541 0.619325 0.027627
H13   H     H_    0.350024 0.152108 0.699261 0.125401
H14   H     H_    0.152831 0.678947 0.304887 -0.126218
H15   H     H_    0.480908 0.604795 0.016169 0.118892
H16   H     H_    0.542992 0.526074 0.200869 0.161165
H17   H     H_    0.401142 0.597106 0.914096 0.108994
H18   H     H_    0.067174 0.590625 0.758722 0.117438
H19   H     H_    0.775721 0.366541 0.788005 0.113427
H20   H     H_    0.044900 0.447426 0.240239 0.150126
H21   H     H_    0.370231 0.531018 0.377571 0.097275
H22   H     H_    0.291691 0.761433 0.332539 -0.148648
H23   H     H_    0.931496 0.330344 0.288670 0.058370
H24   H     H_    0.850193 0.458805 0.614699 0.076401
H25   H     H_    0.503609 0.128510 0.472740 0.139054
H26   H     H_    0.686051 0.861743 0.536229 0.118343
H27   H     H_    0.929098 0.081093 0.566576 0.086683
H28   H     H_    0.341868 0.668438 0.474719 0.090914
H29   H     H_    0.855452 0.323821 0.520717 0.071003
H30   H     H_    0.275593 0.740797 0.593901 -0.034633
H31   H     H_    0.094563 0.691212 0.561017 -0.031488
H32   H     H_    0.993870 0.887546 0.565483 0.196237
H33   H     H_    0.240611 0.969087 0.565092 0.130702
H34   H     H_    0.193711 0.296776 0.259066 -0.130198
H35   H     H_    0.330885 0.899037 0.609317 0.118195
H36   H     H_    0.176509 0.964116 0.640356 0.157555
H37   H     H_    0.791461 0.200047 0.290490 0.243675
H38   H     H_    0.777406 0.128692 0.378155 0.069105
H39   H     H_    0.950557 0.190186 0.406547 0.134107
H40   H     H_    0.969497 0.116437 0.342491 0.173070
H41   H     H_    0.580897 0.958154 0.365198 0.234830
H42   H     H_    0.821740 0.986353 0.418809 0.125414
H43   H     H_    0.877529 0.966958 0.342759 0.148004
H44   H     H_    0.888058 0.888394 0.392643 0.200985
H45   H     H_    0.801370 0.621525 0.630328 -0.083493
H46   H     H_    0.435641 0.637092 0.724839 0.254961
H47   H     H_    0.408541 0.723546 0.813448 0.131058
H48   H     H_    0.619775 0.754972 0.810508 0.109163
H49   H     H_    0.555055 0.650600 0.825011 0.118233
H50   H     H_    0.835041 0.852895 0.272113 0.271047
H51   H     H_    0.727331 0.920599 0.192577 0.117850
H52   H     H_    0.716192 0.984305 0.261318 0.129432
H53   H     H_    0.539569 0.925223 0.232441 0.139008
H54   H     H_    0.323143 0.834356 0.193807 0.220258
H55   H     H_    0.496629 0.725717 0.182401 0.177761
H56   H     H_    0.594968 0.581237 0.635814 0.066057
H57   H     H_    0.293824 0.682300 0.168436 0.152078
H58   H     H_    0.386430 0.675634 0.238859 0.097966
H59   H     H_    0.167944 0.363396 0.702876 0.234398
H60   H     H_    0.246751 0.361505 0.799064 0.153614
H61   H     H_    0.258375 0.254441 0.774649 0.129685
H62   H     H_    0.080745 0.290033 0.813322 0.079288
H63   H     H_    0.596803 0.073996 0.729941 0.212219
H64   H     H_    0.638854 0.155781 0.820197 0.114272
H65   H     H_    0.427230 0.151400 0.804597 0.103234
H66   H     H_    0.557777 0.241256 0.790296 0.151667
H67   H     H_    0.780463 0.702852 0.725155 0.114461
H68   H     H_    0.706968 0.282324 0.981919 0.232152
H69   H     H_    0.457304 0.343950 0.973389 0.097094
H70   H     H_    0.564615 0.443334 0.977383 0.134064
H71   H     H_    0.554047 0.384992 0.041228 0.138429
H72   H     H_    0.932694 0.725421 0.240734 0.221343
H73   H     H_    0.967844 0.842624 0.172500 0.161467
H74   H     H_    0.898557 0.741284 0.141460 0.115559
H75   H     H_    0.106068 0.775710 0.133264 0.107888
H76   H     H_    0.715684 0.597144 0.733675 0.022271
H77   H     H_    0.545005 0.741135 0.372208 -0.095657
N1    N     N_R   0.984857 0.479298 0.848241 -0.426420
N2    N     N_2   0.313406 0.791461 0.224265 -0.458567
N3    N     N_2   0.106195 0.318982 0.725297 -0.428049
N4    N     N_2   0.581501 0.135992 0.730511 -0.444301
N5    N     N_2   0.708816 0.342607 0.972204 -0.382837
N6    N     N_2   0.035086 0.744190 0.218269 -0.457755
N7    N     N_R   0.247721 0.478069 0.143903 -0.425270
N8    N     N_2   0.531900 0.986341 0.492874 -0.196976
N9    N     N_2   0.658966 0.007670 0.520312 -0.245059
N10   N     N_2   0.094456 0.863774 0.581111 -0.473195
N11   N     N_2   0.856814 0.223612 0.326976 -0.409426
N12   N     N_2   0.653749 0.910258 0.367870 -0.473022
N13   N     N_2   0.530937 0.678126 0.737288 -0.377934
N14   N     N_2   0.713531 0.856608 0.268299 -0.413519
O1    O     O_2   0.899090 0.455560 0.360740 -0.398048
O2    O     O_2   0.239436 0.209987 0.536185 -0.472134
O3    O     O_3   0.148534 0.221182 0.645731 -0.616041
O4    O     O_3   0.139470 0.456390 0.431790 -0.427743
O5    O     O_3   0.555510 0.597400 0.529070 -0.478606
O6    O     O_2   0.384010 0.302440 0.472310 -0.380777
O7    O     O_3   0.576086 0.275720 0.376126 -0.658642
O8    O     O_2   0.469169 0.465308 0.711609 -0.465137
O9    O     O_3   0.470153 0.303391 0.699721 -0.601713
O10   O     O_2   0.233166 0.537784 0.829083 -0.598742
O11   O     O_2   0.740999 0.431080 0.880968 -0.588766
O12   O     O_3   0.631159 0.704678 0.621902 -0.623270
O13   O     O_2   0.068345 0.368860 0.151290 -0.487464
O14   O     O_2   0.447786 0.570793 0.118881 -0.635206
O15   O     O_3   0.652060 0.602710 0.395680 -0.459954
O16   O     O_2   0.803754 0.559692 0.294382 -0.444359
O17   O     O_3   0.045617 0.323828 0.369071 -0.582388
O18   O     O_3   0.662452 0.698150 0.295175 -0.641949
O19   O     O_2   0.805680 0.697590 0.527730 -0.486743
O20   O     O_3   0.061950 0.644310 0.424380 -0.495138
O21   O     O_2   0.956135 0.788563 0.462713 -0.489085
O22   O     O_3   0.052160 0.775911 0.353316 -0.595097
O23   O     O_2   0.290610 0.544470 0.639300 -0.462207
O24   O     O_3   0.050220 0.543670 0.568220 -0.503963
O25   O     O_3   0.537630 0.397360 0.604330 -0.495418
O26   O     O_3   0.137943 0.674736 0.649998 -0.617233
O27   O     O_3   0.634180 0.402670 0.470930 -0.414056
O28   O     O_3   0.127750 0.355750 0.575620 -0.474456
P1    P     P_3+3 0.070660 0.431690 0.369620 1.116459
P2    P     P_3+3 0.630590 0.685720 0.544880 0.993469
P3    P     P_3+3 0.091808 0.750695 0.424343 1.001450
P4    P     P_3+3 0.119040 0.568370 0.630390 0.989179
P5    P     P_3+3 0.105395 0.247946 0.575357 0.975324
P6    P     P_3+3 0.648415 0.598249 0.318496 1.030649
P7    P     P_3+3 0.566221 0.300698 0.452889 1.108036
P8    P     P_3+3 0.564733 0.395708 0.680016 0.946811

loop_
_geom_bond_atom_site_label_1
_geom_bond_atom_site_label_2
_ccdc_geom_bond_type
O23   P4    D    
C51   H35   S    
Ba1   O5    S    
C19   C24   D    
C57   H55   S    
C16   F9    S    
O2    P5    D    
C62   H10   S    
C26   C64   A    
C51   H33   S    
Ba2   O23   S    
C55   H53   S    
C63   H11   S    
C18   O14   D    
C53   H44   S    
Ba1   O20   S    
C21   P4    S    
C26   P6    S    
O21   P3    D    
C32   C38   A    
C54   H49   S    
Ba1   P1    S    
C48   F3    S    
C22   C24   S    
C53   N12   S    
C13   N5    S    
C63   N4    S    
C56   H7    S    
O4    P1    S    
C29   H20   S    
C51   N10   S    
C19   H19   S    
Ba1   O1    S    
C34   F6    S    
C13   C14   A    
C52   H38   S    
C4    O22   S    
Ba1   O4    S    
O8    P8    D    
O27   P7    S    
C5    O11   D    
O7    P7    S    
C32   C33   A    
C37   F8    S    
H37   N11   S    
C7    C11   A    
C61   H74   S    
C15   C17   A    
C47   H23   S    
C47   O17   S    
C62   H9    S    
C29   C30   A    
C6    C7    A    
O18   P6    S    
C18   N7    Am   
C54   N13   S    
C41   P7    S    
O17   P1    S    
C21   C22   D    
O20   P3    S    
C25   H16   S    
C23   F5    S    
O25   P8    S    
O26   P4    S    
C52   N11   S    
C49   O12   S    
C58   H61   S    
C16   N2    S    
C58   H62   S    
O3    P5    S    
C30   N7    S    
Ba1   O24   S    
C51   H36   S    
C8    H17   S    
C19   C20   S    
C28   H31   S    
C39   C41   A    
C45   H5    S    
C45   O3    S    
C57   N2    S    
H68   N5    S    
C4    C16   S    
C44   C46   A    
C57   H57   S    
C60   N5    S    
C20   P8    S    
C14   F7    S    
C4    H22   S    
C5    C6    A    
Ba1   P2    S    
O16   P6    D    
Ba2   O25   S    
C56   H6    S    
C37   C38   A    
Ba1   O15   S    
C14   C15   A    
C55   N14   S    
C21   C31   D    
C27   P1    S    
O12   P2    S    
C60   H70   S    
C48   H34   S    
C50   H67   S    
C49   C50   S    
Ba2   O28   S    
C12   H1    S    
Ba1   O27   S    
C54   H48   S    
C61   H75   S    
C35   C36   A    
C16   N6    S    
C43   H29   S    
C50   N13   S    
H59   N3    S    
C5    N1    Am   
H32   N10   S    
C46   H27   S    
C52   H40   S    
C10   C18   A    
C49   H45   S    
C39   H25   S    
C62   O9    S    
C41   C43   A    
C58   H60   S    
C1    C12   S    
C1    N12   S    
Ba2   O4    S    
C33   P2    S    
C59   H66   S    
C6    C13   A    
C28   O26   S    
C28   H30   S    
C60   H71   S    
C40   F1    S    
C39   C42   A    
C43   C44   A    
C42   N9    S    
O19   P2    D    
C2    C8    A    
C1    H2    S    
C59   N4    S    
C17   O13   D    
C61   H73   S    
C55   H51   S    
O24   P4    S    
C63   H13   S    
C64   H21   S    
C53   H42   S    
H63   N4    S    
Ba1   Ba2   S    
C20   C31   S    
C49   H56   S    
C33   C35   A    
C25   C30   A    
Ba2   P4    S    
O1    P1    D    
H41   N12   S    
C59   H64   S    
Ba2   O24   S    
O9    P8    S    
C60   H69   S    
O5    P2    S    
C34   H4    S    
C54   H47   S    
C55   H52   S    
C12   O18   S    
C9    C10   A    
C40   N10   S    
C59   H65   S    
C40   H12   S    
Ba1   O19   S    
C4    H14   S    
H46   N13   S    
Ba2   O5    S    
C32   H28   S    
C11   C15   A    
Ba2   O27   S    
C17   N7    Am   
C62   C63   S    
H50   N14   S    
C58   N3    S    
C36   N8    S    
C27   C29   A    
C34   H3    S    
C22   H18   S    
N8    N9    D    
C45   C56   S    
C35   H26   S    
H72   N6    S    
C9    H15   S    
C44   P5    S    
C36   C37   A    
C45   N3    S    
O22   P3    S    
C50   H76   S    
C3    N1    Am   
C52   H39   S    
C3    O10   D    
C57   H58   S    
O6    P7    D    
C47   N11   S    
C8    C9    A    
C23   C34   S    
C27   C64   A    
O28   P5    S    
C23   O7    S    
C2    C3    A    
C10   C11   A    
C47   C48   S    
C38   P3    S    
C12   H77   S    
C25   C26   A    
C28   C40   S    
C24   N1    S    
C23   F4    S    
C61   N6    S    
C31   H24   S    
C2    C7    A    
C56   H8    S    
O15   P6    S    
C48   F2    S    
H54   N2    S    
C42   C46   A    
C1    N14   S    
Ba2   O6    S    
C53   H43   S    
