data_mof_unit_48064.cif
_audit_creation_date              2012-10-26T17:12:45-0400
_audit_creation_method            fapswitch 2.2
_symmetry_space_group_name_H-M    P1
_symmetry_Int_Tables_number       1
_space_group_crystal_system       triclinic
_cell_length_a                    27.880758
_cell_length_b                    18.718747
_cell_length_c                    16.768475
_cell_angle_alpha                 89.99987
_cell_angle_beta                  62.598781
_cell_angle_gamma                 89.999826
_cell_volume                      7769.49508249

loop_
_atom_site_label
_atom_site_type_symbol
_atom_type_description
_atom_site_fract_x
_atom_site_fract_y
_atom_site_fract_z
_atom_type_partial_charge
C1    C     C_R   0.297152 0.732955 0.327695 0.559781
C2    C     C_R   0.597793 0.999034 0.511621 0.024640
C3    C     C_R   0.689307 0.719419 0.908999 0.028461
C4    C     C_R   0.115513 0.824741 0.046618 -0.114122
C5    C     C_R   0.880071 0.169260 0.954248 -0.114696
C6    C     C_R   0.885904 0.822974 0.952416 -0.114546
C7    C     C_R   0.117725 0.172461 0.047061 -0.116160
C8    C     C_R   0.614096 0.322975 0.047584 -0.114545
C9    C     C_R   0.382274 0.672460 0.952940 -0.116159
C10   C     C_R   0.384486 0.324743 0.953383 -0.114123
C11   C     C_R   0.619931 0.669256 0.045751 -0.114695
C12   C     C_R   0.146415 0.812775 0.090780 -0.139184
C13   C     C_R   0.902205 0.499033 0.488389 0.024640
C14   C     C_R   0.848499 0.179746 0.911156 -0.141419
C15   C     C_R   0.855545 0.809798 0.907661 -0.139288
C16   C     C_R   0.149111 0.183491 0.090562 -0.140184
C17   C     C_R   0.644456 0.309800 0.092339 -0.139288
C18   C     C_R   0.350888 0.683489 0.909438 -0.140184
C19   C     C_R   0.353583 0.312778 0.909221 -0.139185
C20   C     C_R   0.651503 0.679742 0.088843 -0.141419
C21   C     C_R   0.243624 0.697789 0.790501 -0.118940
C22   C     C_R   0.751589 0.296332 0.211218 -0.121321
C23   C     C_R   0.757676 0.695778 0.208779 -0.113150
C24   C     C_R   0.097043 0.500563 0.515056 0.022702
C25   C     C_R   0.246564 0.299105 0.789857 -0.113953
C26   C     C_R   0.742326 0.195780 0.791220 -0.113151
C27   C     C_R   0.253434 0.799103 0.210144 -0.113954
C28   C     C_R   0.256374 0.197790 0.209499 -0.118940
C29   C     C_R   0.748413 0.796328 0.788781 -0.121323
C30   C     C_R   0.275527 0.685586 0.832758 -0.144889
C31   C     C_R   0.719207 0.307061 0.169702 -0.146475
C32   C     C_R   0.726490 0.682278 0.165657 -0.139451
C33   C     C_R   0.278595 0.310561 0.831969 -0.139924
C34   C     C_R   0.773512 0.182280 0.834343 -0.139452
C35   C     C_R   0.578434 0.877783 0.569944 -0.122399
C36   C     C_R   0.221403 0.810559 0.168032 -0.139925
C37   C     C_R   0.224472 0.185588 0.167243 -0.144889
C38   C     C_R   0.780795 0.807057 0.830297 -0.146476
C39   C     C_R   0.929878 0.898071 0.063557 0.559279
C40   C     C_R   0.070465 0.101931 0.936514 0.549720
C41   C     C_R   0.070335 0.898424 0.936285 0.559007
C42   C     C_R   0.928934 0.101214 0.063879 0.549769
C43   C     C_R   0.429665 0.398425 0.063715 0.559006
C44   C     C_R   0.571066 0.601213 0.936121 0.549771
C45   C     C_R   0.570122 0.398071 0.936444 0.559281
C46   C     C_R   0.423146 0.120572 0.422753 -0.118652
C47   C     C_R   0.429535 0.601930 0.063486 0.549719
C48   C     C_R   0.027247 0.619095 0.574661 0.015643
C49   C     C_R   0.970521 0.378701 0.434271 0.014260
C50   C     C_R   0.929518 0.617679 0.563092 0.010565
C51   C     C_R   0.068780 0.381013 0.443161 0.009871
C52   C     C_R   0.570481 0.117678 0.436913 0.010564
C53   C     C_R   0.431218 0.881015 0.556851 0.009870
C54   C     C_R   0.472752 0.119094 0.425343 0.015643
C55   C     C_R   0.529476 0.878706 0.565744 0.014262
C56   C     C_R   0.990888 0.676302 0.608334 -0.130994
C57   C     C_R   0.382907 0.881924 0.551054 -0.117445
C58   C     C_R   0.005355 0.319613 0.405343 -0.132524
C59   C     C_R   0.942418 0.675659 0.602733 -0.129336
C60   C     C_R   0.054531 0.321236 0.408264 -0.129872
C61   C     C_R   0.557582 0.175657 0.397268 -0.129337
C62   C     C_R   0.445465 0.821242 0.591758 -0.129869
C63   C     C_R   0.509112 0.176300 0.391667 -0.130994
C64   C     C_R   0.494641 0.819621 0.594682 -0.132520
C65   C     C_R   0.964814 0.559024 0.531541 0.023153
C66   C     C_R   0.033789 0.439997 0.473999 0.022212
C67   C     C_R   0.013630 0.559594 0.537765 0.023354
C68   C     C_R   0.617982 0.117762 0.445711 -0.119795
C69   C     C_R   0.984865 0.439233 0.468359 0.023759
C70   C     C_R   0.486368 0.059594 0.462242 0.023353
C71   C     C_R   0.515132 0.939236 0.531654 0.023758
C72   C     C_R   0.535184 0.059025 0.468467 0.023153
C73   C     C_R   0.466209 0.939999 0.526012 0.022214
C74   C     C_R   0.451744 0.000188 0.491363 -0.007995
C75   C     C_R   0.549360 0.999116 0.503993 -0.006726
C76   C     C_R   0.950637 0.499114 0.496017 -0.006726
C77   C     C_R   0.048254 0.500187 0.508645 -0.007996
C78   C     C_R   0.370271 0.938791 0.508399 -0.005406
C79   C     C_R   0.117092 0.381925 0.448951 -0.117444
C80   C     C_R   0.630169 0.061132 0.489440 -0.004053
C81   C     C_R   0.614230 0.936556 0.540002 -0.002006
C82   C     C_R   0.386525 0.062882 0.456271 -0.000106
C83   C     C_R   0.885769 0.436555 0.460008 -0.002005
C84   C     C_R   0.113475 0.562883 0.543733 -0.000105
C85   C     C_R   0.129728 0.438792 0.491605 -0.005411
C86   C     C_R   0.869829 0.561132 0.510568 -0.004053
C87   C     C_R   0.325965 0.936512 0.488534 -0.024778
C88   C     C_R   0.674029 0.063519 0.510713 -0.022679
C89   C     C_R   0.666225 0.935286 0.536580 -0.029690
C90   C     C_R   0.882017 0.617763 0.554294 -0.119795
C91   C     C_R   0.333956 0.064616 0.461963 -0.027663
C92   C     C_R   0.833774 0.435287 0.463427 -0.029689
C93   C     C_R   0.166044 0.564616 0.538038 -0.027661
C94   C     C_R   0.174035 0.436513 0.511467 -0.024779
C95   C     C_R   0.825970 0.563519 0.489292 -0.022678
C96   C     C_R   0.306819 0.000202 0.470347 -0.166805
C97   C     C_R   0.692910 0.999847 0.529537 -0.165642
C98   C     C_R   0.807089 0.499848 0.470470 -0.165640
C99   C     C_R   0.193181 0.500202 0.529653 -0.166803
C100  C     C_3   0.084226 0.805587 0.778371 -0.202027
C101  C     C_R   0.921564 0.377781 0.430065 -0.122405
C102  C     C_3   0.085104 0.867452 0.715411 -0.231112
C103  C     C_3   0.073134 0.841666 0.639950 -0.449448
C104  C     C_3   0.918881 0.210629 0.205684 -0.236633
C105  C     C_3   0.925760 0.291836 0.211063 -0.314160
C106  C     C_3   0.981352 0.310481 0.202059 -0.460911
C107  C     C_3   0.918820 0.793430 0.213009 -0.212126
C108  C     C_3   0.925486 0.850117 0.274503 -0.244213
C109  C     C_3   0.937614 0.815978 0.346162 -0.451625
C110  C     C_3   0.082102 0.203907 0.786770 -0.231164
C111  C     C_3   0.074734 0.282417 0.766977 -0.302519
C112  C     C_R   0.702347 0.266175 0.672089 0.567213
C113  C     C_R   0.076854 0.620573 0.577249 -0.118655
C114  C     C_3   0.032623 0.289363 0.733125 -0.442093
C115  C     C_3   0.581179 0.293419 0.786997 -0.212134
C116  C     C_3   0.574503 0.350104 0.725510 -0.244224
C117  C     C_3   0.562374 0.315960 0.653855 -0.451643
C118  C     C_3   0.417899 0.703912 0.213225 -0.231162
C119  C     C_3   0.425261 0.782424 0.233017 -0.302566
C120  C     C_3   0.467386 0.789382 0.266829 -0.442133
C121  C     C_3   0.415774 0.305587 0.221628 -0.202027
C122  C     C_3   0.414896 0.367451 0.284589 -0.231111
C123  C     C_3   0.426866 0.341665 0.360050 -0.449449
C124  C     C_R   0.216453 0.760273 0.956195 0.037701
C125  C     C_3   0.581123 0.710628 0.794309 -0.236603
C126  C     C_3   0.574251 0.791841 0.788924 -0.314130
C127  C     C_3   0.518655 0.810498 0.797969 -0.460817
C128  C     C_R   0.778800 0.232852 0.045900 0.037293
C129  C     C_R   0.785482 0.757034 0.042108 0.037356
C130  C     C_R   0.218843 0.236729 0.956021 0.036720
C131  C     C_R   0.714519 0.257037 0.957891 0.037356
C132  C     C_R   0.281155 0.736726 0.043980 0.036720
C133  C     C_R   0.283545 0.260276 0.043806 0.037701
C134  C     C_R   0.721201 0.732848 0.954099 0.037294
C135  C     C_R   0.264760 0.720299 0.913395 0.012939
C136  C     C_R   0.702867 0.732976 0.672321 0.547357
C137  C     C_R   0.730247 0.272333 0.089034 0.013500
C138  C     C_R   0.737440 0.716611 0.084713 0.012961
C139  C     C_R   0.267442 0.276154 0.912924 0.012892
C140  C     C_R   0.762562 0.216614 0.915286 0.012961
C141  C     C_R   0.232556 0.776151 0.087077 0.012893
C142  C     C_R   0.235238 0.220301 0.086606 0.012939
C143  C     C_R   0.769755 0.772329 0.910965 0.013501
C144  C     C_R   0.298457 0.711612 0.955479 0.013525
C145  C     C_R   0.696807 0.281366 0.046723 0.013822
C146  C     C_R   0.703935 0.707636 0.042541 0.013252
C147  C     C_R   0.297490 0.266438 0.328066 0.549996
C148  C     C_R   0.301060 0.284898 0.955117 0.013038
C149  C     C_R   0.796066 0.207639 0.957458 0.013252
C150  C     C_R   0.198938 0.784895 0.044884 0.013038
C151  C     C_R   0.201541 0.211615 0.044522 0.013524
C152  C     C_R   0.803195 0.781363 0.953276 0.013822
C153  C     C_R   0.136889 0.814653 0.952968 -0.005840
C154  C     C_R   0.859587 0.180977 0.047390 -0.001885
C155  C     C_R   0.864126 0.813148 0.046126 -0.005822
C156  C     C_R   0.138350 0.184108 0.953860 -0.002335
C157  C     C_R   0.635875 0.313149 0.953874 -0.005823
C158  C     C_R   0.797134 0.232978 0.327679 0.547354
C159  C     C_R   0.361649 0.684106 0.046141 -0.002338
C160  C     C_R   0.363110 0.314655 0.047033 -0.005840
C161  C     C_R   0.640414 0.680974 0.952609 -0.001885
C162  C     C_R   0.109896 0.838404 0.902794 -0.026714
C163  C     C_R   0.888375 0.160975 0.095908 -0.024966
C164  C     C_R   0.890700 0.837318 0.096542 -0.026092
C165  C     C_R   0.110019 0.163089 0.904808 -0.027433
C166  C     C_R   0.609300 0.337318 0.903458 -0.026092
C167  C     C_R   0.389980 0.663087 0.095192 -0.027436
C168  C     C_R   0.390103 0.338405 0.097206 -0.026714
C169  C     C_R   0.202510 0.766438 0.671934 0.549996
C170  C     C_R   0.611625 0.660972 0.904091 -0.024967
C171  C     C_R   0.125753 0.810841 0.815298 -0.038849
C172  C     C_R   0.874354 0.193979 0.179597 -0.033232
C173  C     C_R   0.875201 0.808486 0.183303 -0.033895
C174  C     C_R   0.124504 0.195255 0.820149 -0.039483
C175  C     C_R   0.624799 0.308484 0.816698 -0.033889
C176  C     C_R   0.375495 0.695254 0.179851 -0.039478
C177  C     C_R   0.374246 0.310841 0.184702 -0.038849
C178  C     C_R   0.625649 0.693975 0.820400 -0.033227
C179  C     C_R   0.175503 0.773234 0.771690 -0.026283
C180  C     C_R   0.202847 0.232956 0.672305 0.559779
C181  C     C_R   0.822712 0.225875 0.227310 -0.014977
C182  C     C_R   0.824952 0.772261 0.227753 -0.027662
C183  C     C_R   0.176232 0.227358 0.773017 -0.018424
C184  C     C_R   0.675049 0.272261 0.772247 -0.027663
C185  C     C_R   0.323767 0.727356 0.226984 -0.018419
C186  C     C_R   0.324496 0.273235 0.228310 -0.026283
C187  C     C_R   0.677291 0.725870 0.772689 -0.014977
C188  C     C_R   0.202249 0.749810 0.822307 -0.007826
C189  C     C_R   0.793984 0.245828 0.178641 -0.007704
C190  C     C_R   0.798639 0.748258 0.176964 -0.007255
C191  C     C_R   0.797653 0.766175 0.327911 0.567213
C192  C     C_R   0.204237 0.248509 0.822482 -0.005410
C193  C     C_R   0.701363 0.248260 0.823036 -0.007255
C194  C     C_R   0.295761 0.748507 0.177519 -0.005412
C195  C     C_R   0.297750 0.249811 0.177694 -0.007826
C196  C     C_R   0.706018 0.745823 0.821357 -0.007708
C197  C     C_R   0.196488 0.631786 0.528223 0.554467
C198  C     C_R   0.803399 0.368258 0.472299 0.550187
C199  C     C_R   0.799374 0.630898 0.486151 0.558056
C200  C     C_R   0.200612 0.369098 0.514093 0.553489
C201  C     C_R   0.700625 0.130898 0.513851 0.558056
C202  C     C_R   0.402956 0.000563 0.484949 0.022703
C203  C     C_R   0.299388 0.869098 0.485908 0.553487
C204  C     C_R   0.303512 0.131785 0.471778 0.554467
C205  C     C_R   0.696600 0.868257 0.527704 0.550185
C206  C     C_R   0.185249 0.775297 0.910175 0.029790
C207  C     C_R   0.810694 0.219423 0.091000 0.028462
C208  C     C_R   0.816083 0.773091 0.088649 0.029954
C209  C     C_R   0.187142 0.222837 0.910544 0.029478
C210  C     C_R   0.683919 0.273092 0.911351 0.029954
C211  C     C_R   0.312856 0.722835 0.089457 0.029476
C212  C     C_R   0.314750 0.275299 0.089825 0.029790
Cu1   Cu    Cu3+1 0.209920 0.785290 0.495070 0.866986
Cu2   Cu    Cu3+1 0.504760 0.500000 0.075850 0.860912
Cu3   Cu    Cu3+1 0.995240 1.000000 0.924150 0.860911
Cu4   Cu    Cu3+1 0.004760 0.000000 0.075850 0.867507
Cu5   Cu    Cu3+1 0.790080 0.214710 0.504930 0.891879
Cu6   Cu    Cu3+1 0.790080 0.785290 0.504930 0.855863
Cu7   Cu    Cu3+1 0.209920 0.214710 0.495070 0.873949
Cu8   Cu    Cu3+1 0.709920 0.285290 0.495070 0.855862
Cu9   Cu    Cu3+1 0.290080 0.714710 0.504930 0.873951
Cu10  Cu    Cu3+1 0.290080 0.285290 0.504930 0.866986
Cu11  Cu    Cu3+1 0.709920 0.714710 0.495070 0.891875
Cu12  Cu    Cu3+1 0.495240 0.500000 0.924150 0.867507
H1    H     H_    0.505597 0.771753 0.618635 0.093724
H2    H     H_    0.729869 0.000166 0.535871 0.155401
H3    H     H_    0.409941 0.253344 0.256523 0.131306
H4    H     H_    0.457238 0.301215 0.164858 0.119125
H5    H     H_    0.509927 0.777711 0.751244 0.144296
H6    H     H_    0.486942 0.800042 0.867670 0.152717
H7    H     H_    0.517355 0.867916 0.782428 0.156965
H8    H     H_    0.578735 0.819409 0.843900 0.165438
H9    H     H_    0.605997 0.812540 0.723994 0.162221
H10   H     H_    0.588689 0.684182 0.730442 0.169944
H11   H     H_    0.541597 0.690518 0.845987 0.158562
H12   H     H_    0.770130 0.500167 0.464134 0.155401
H13   H     H_    0.230594 0.499979 0.534560 0.155291
H14   H     H_    0.586850 0.831805 0.600215 0.137595
H15   H     H_    0.414489 0.165738 0.391296 0.119652
H16   H     H_    0.354939 0.838727 0.583108 0.152079
H17   H     H_    0.645846 0.161302 0.414862 0.151114
H18   H     H_    0.145060 0.338729 0.416896 0.152082
H19   H     H_    0.854154 0.661305 0.585140 0.151114
H20   H     H_    0.913149 0.331810 0.399788 0.137610
H21   H     H_    0.500033 0.221644 0.361255 0.095176
H22   H     H_    0.085511 0.665741 0.608701 0.119655
H23   H     H_    0.073772 0.838398 0.088879 0.139046
H24   H     H_    0.921813 0.156420 0.911016 0.140225
H25   H     H_    0.927562 0.837333 0.910667 0.138223
H26   H     H_    0.076058 0.158784 0.089754 0.139615
H27   H     H_    0.572438 0.337332 0.089333 0.138223
H28   H     H_    0.423941 0.658784 0.910246 0.139613
H29   H     H_    0.426226 0.338400 0.911121 0.139046
H30   H     H_    0.578189 0.656417 0.088983 0.140224
H31   H     H_    0.127295 0.822565 0.162292 0.101689
H32   H     H_    0.419131 0.775058 0.614905 0.101628
H33   H     H_    0.867232 0.169386 0.839785 0.101494
H34   H     H_    0.874880 0.819285 0.836069 0.097183
H35   H     H_    0.130350 0.172999 0.161907 0.098092
H36   H     H_    0.625121 0.319288 0.163930 0.097183
H37   H     H_    0.369648 0.672998 0.838093 0.098090
H38   H     H_    0.372703 0.322568 0.837709 0.101691
H39   H     H_    0.632769 0.669382 0.160214 0.101495
H40   H     H_    0.250630 0.662597 0.735327 0.147561
H41   H     H_    0.744485 0.332445 0.265547 0.149016
H42   H     H_    0.750533 0.661264 0.264612 0.146801
H43   H     H_    0.584662 0.220940 0.371579 0.101880
H44   H     H_    0.253981 0.334443 0.734670 0.147843
H45   H     H_    0.749469 0.161265 0.735388 0.146801
H46   H     H_    0.246018 0.834442 0.265330 0.147843
H47   H     H_    0.249369 0.162598 0.264673 0.147561
H48   H     H_    0.755517 0.832441 0.734453 0.149018
H49   H     H_    0.306888 0.645728 0.803386 0.100984
H50   H     H_    0.687475 0.346405 0.199318 0.100655
H51   H     H_    0.695442 0.641992 0.194805 0.102448
H52   H     H_    0.310351 0.349861 0.802261 0.102053
H53   H     H_    0.804560 0.141994 0.805196 0.102448
H54   H     H_    0.080864 0.275051 0.385124 0.101627
H55   H     H_    0.189647 0.849859 0.197740 0.102052
H56   H     H_    0.193111 0.145731 0.196615 0.100984
H57   H     H_    0.812526 0.846401 0.800681 0.100655
H58   H     H_    0.099647 0.796775 0.601808 0.191207
H59   H     H_    0.030357 0.824498 0.669004 0.114028
H60   H     H_    0.079237 0.886296 0.592588 0.120461
H61   H     H_    0.052903 0.906962 0.751893 0.174476
H62   H     H_    0.123923 0.897132 0.687231 0.194694
H63   H     H_    0.090059 0.753344 0.743477 0.131306
H64   H     H_    0.042761 0.801215 0.835142 0.119126
H65   H     H_    0.915338 0.720944 0.628420 0.101879
H66   H     H_    0.990062 0.277686 0.248775 0.144305
H67   H     H_    0.013074 0.300035 0.132383 0.152725
H68   H     H_    0.982658 0.367876 0.217622 0.156986
H69   H     H_    0.921299 0.319402 0.156069 0.165456
H70   H     H_    0.894003 0.312539 0.275975 0.162239
H71   H     H_    0.911315 0.184183 0.269545 0.169955
H72   H     H_    0.958404 0.190519 0.154006 0.158576
H73   H     H_    0.904314 0.780300 0.390703 0.202700
H74   H     H_    0.975573 0.784432 0.313774 0.137311
H75   H     H_    0.942687 0.858394 0.387971 0.117206
H76   H     H_    0.994397 0.271740 0.381404 0.093738
H77   H     H_    0.960664 0.884851 0.234648 0.170596
H78   H     H_    0.889435 0.885152 0.306680 0.198209
H79   H     H_    0.910379 0.740229 0.246379 0.141215
H80   H     H_    0.958535 0.786260 0.152591 0.115165
H81   H     H_    0.045530 0.258799 0.669764 0.161011
H82   H     H_    0.992843 0.269099 0.784272 0.142918
H83   H     H_    0.028165 0.346413 0.719587 0.155249
H84   H     H_    0.061431 0.314413 0.829457 0.153098
H85   H     H_    0.113047 0.305723 0.715491 0.182895
H86   H     H_    0.091878 0.169426 0.727486 0.179077
H87   H     H_    0.999968 0.721647 0.638741 0.095175
H88   H     H_    0.041668 0.187245 0.839166 0.153297
H89   H     H_    0.595695 0.280324 0.609273 0.202703
H90   H     H_    0.524435 0.284369 0.686248 0.137338
H91   H     H_    0.557258 0.358378 0.612086 0.117200
H92   H     H_    0.539321 0.384830 0.765373 0.170599
H93   H     H_    0.610550 0.385145 0.693329 0.198206
H94   H     H_    0.589625 0.240220 0.753622 0.141225
H95   H     H_    0.541467 0.286242 0.847417 0.115156
H96   H     H_    0.454478 0.758857 0.330217 0.161035
H97   H     H_    0.507153 0.769078 0.215690 0.142936
H98   H     H_    0.269407 0.999978 0.465438 0.155290
H99   H     H_    0.471864 0.846446 0.280303 0.155241
H100  H     H_    0.438542 0.814423 0.170550 0.153116
H101  H     H_    0.386954 0.805720 0.284525 0.182911
H102  H     H_    0.408126 0.669432 0.272510 0.179077
H103  H     H_    0.458332 0.687251 0.160826 0.153296
H104  H     H_    0.400352 0.296776 0.398194 0.191210
H105  H     H_    0.469642 0.324494 0.330996 0.114029
H106  H     H_    0.420765 0.386296 0.407409 0.120460
H107  H     H_    0.447097 0.406961 0.248107 0.174476
H108  H     H_    0.376077 0.397132 0.312769 0.194693
O1    O     O_R   0.255040 0.869590 0.478480 -0.514680
O2    O     O_R   0.817950 0.203450 0.375560 -0.509783
O3    O     O_R   0.817950 0.796550 0.375560 -0.503473
O4    O     O_R   0.182050 0.203450 0.624440 -0.500815
O5    O     O_R   0.682050 0.296550 0.624440 -0.503476
O6    O     O_R   0.317950 0.703450 0.375560 -0.500817
O7    O     O_R   0.317950 0.296550 0.375560 -0.513555
O8    O     O_R   0.682050 0.703450 0.624440 -0.509790
O9    O     O_R   0.250530 0.763330 0.367210 -0.510595
O10   O     O_R   0.749470 0.236670 0.632790 -0.508837
O11   O     O_R   0.749470 0.763330 0.632790 -0.528309
O12   O     O_R   0.744960 0.130410 0.521520 -0.511808
O13   O     O_R   0.250530 0.236670 0.367210 -0.525761
O14   O     O_R   0.750530 0.263330 0.367210 -0.528307
O15   O     O_R   0.249470 0.736670 0.632790 -0.525760
O16   O     O_R   0.249470 0.263330 0.632790 -0.510594
O17   O     O_R   0.750530 0.736670 0.367210 -0.508835
O18   O     O_R   0.177260 0.690030 0.513710 -0.514828
O19   O     O_R   0.822740 0.309970 0.486290 -0.509906
O20   O     O_R   0.822740 0.690030 0.486290 -0.531946
O21   O     O_R   0.177260 0.309970 0.513710 -0.520690
O22   O     O_R   0.677260 0.190030 0.513710 -0.531945
O23   O     O_R   0.744960 0.869590 0.521520 -0.509867
O24   O     O_R   0.322740 0.809970 0.486290 -0.520695
O25   O     O_R   0.322740 0.190030 0.486290 -0.514827
O26   O     O_R   0.677260 0.809970 0.513710 -0.509907
O27   O     O_R   0.051640 0.926880 0.885090 -0.519071
O28   O     O_R   0.948360 0.073120 0.114910 -0.510797
O29   O     O_R   0.948360 0.926880 0.114910 -0.513518
O30   O     O_R   0.051640 0.073120 0.885090 -0.514220
O31   O     O_R   0.551640 0.426880 0.885090 -0.513515
O32   O     O_R   0.448360 0.573120 0.114910 -0.514218
O33   O     O_R   0.448360 0.426880 0.114910 -0.519070
O34   O     O_R   0.255040 0.130410 0.478480 -0.509607
O35   O     O_R   0.551640 0.573120 0.885090 -0.510796
O36   O     O_R   0.940620 0.926560 0.986760 -0.514145
O37   O     O_R   0.059380 0.073440 0.013240 -0.512411
O38   O     O_R   0.059380 0.926560 0.013240 -0.514850
O39   O     O_R   0.940620 0.073440 0.986760 -0.514375
O40   O     O_R   0.440620 0.426560 0.986760 -0.514852
O41   O     O_R   0.559380 0.573440 0.013240 -0.514377
O42   O     O_R   0.559380 0.426560 0.013240 -0.514144
O43   O     O_R   0.440620 0.573440 0.986760 -0.512411
O44   O     O_R   0.755040 0.369590 0.478480 -0.509870
O45   O     O_R   0.244960 0.630410 0.521520 -0.509607
O46   O     O_R   0.244960 0.369590 0.521520 -0.514681
O47   O     O_R   0.755040 0.630410 0.478480 -0.511810
O48   O     O_R   0.182050 0.796550 0.624440 -0.513554

loop_
_geom_bond_atom_site_label_1
_geom_bond_atom_site_label_2
_ccdc_geom_bond_type
C132  C144  A    
C8    H27   S    
Cu7   O13   S    
C126  C127  S    
C40   O37   A    
C136  O11   A    
C112  O5    A    
C112  C184  S    
C43   C168  S    
C100  H63   S    
C170  C178  A    
C50   C59   A    
C102  H61   S    
C203  O24   A    
Cu2   O41   S    
C52   C61   A    
C54   C63   A    
C58   C60   A    
C184  C193  A    
C127  H5    S    
C28   C195  A    
C159  C211  A    
C108  C109  S    
C40   O30   A    
C61   C63   A    
C126  H9    S    
C110  C111  S    
C61   H43   S    
C62   C64   A    
C131  C140  A    
C134  C143  A    
C50   C90   A    
C89   C205  S    
C162  C171  A    
C109  H75   S    
C42   O28   A    
C70   C74   A    
C4    C12   A    
C24   C85   A    
C6    C155  A    
C4    C153  A    
C49   C69   A    
C41   C162  S    
Cu8   O5    S    
C8    C157  A    
C199  O47   A    
C104  C105  S    
Cu9   O45   S    
C134  C146  A    
C11   C20   A    
C37   C142  A    
C7    H26   S    
C44   O35   A    
C12   C150  A    
C42   O39   A    
C105  H70   S    
C129  C152  A    
C47   O32   A    
C86   C90   A    
Cu4   O37   S    
C71   C73   A    
C179  C188  A    
C31   H50   S    
C25   C192  A    
C82   C91   A    
C198  O44   A    
C114  H82   S    
C51   C66   A    
C142  C151  A    
Cu3   Cu4   S    
C36   H55   S    
C52   C72   A    
C56   H87   S    
C112  O10   A    
C26   H45   S    
C154  C163  A    
Cu1   O18   S    
C54   C70   A    
C131  C210  A    
C110  H88   S    
C164  C173  A    
C17   H36   S    
C163  C172  A    
Cu11  O17   S    
C107  H79   S    
C147  O7    A    
Cu4   O28   S    
C173  C182  A    
C200  O21   A    
Cu12  O35   S    
C20   C146  A    
C10   C160  A    
C79   C85   A    
C105  C106  S    
C66   C77   A    
C124  C135  A    
C156  C209  A    
C57   C78   A    
C8    C17   A    
C14   H33   S    
C58   H76   S    
C201  O12   A    
C59   H65   S    
C33   H52   S    
C1    C185  S    
C107  C173  S    
C19   C148  A    
C121  H3    S    
C56   C59   A    
C80   C88   A    
C49   C101  A    
C116  H92   S    
Cu9   O24   S    
C33   C139  A    
C14   C149  A    
C34   C140  A    
C159  C167  A    
C16   C151  A    
C84   C93   A    
C160  C168  A    
C48   C67   A    
C1    O9    A    
C97   H2    S    
C86   C95   A    
C37   H56   S    
C24   C77   A    
C98   H12   S    
C30   H49   S    
Cu11  O47   S    
C2    C81   A    
C182  C190  A    
C39   C164  S    
C115  H94   S    
C55   C71   A    
C2    C75   A    
C5    C154  A    
Cu5   O10   S    
C78   C87   A    
C10   H29   S    
C38   C143  A    
C67   C77   A    
Cu10  O16   S    
Cu6   Cu11  S    
C117  H89   S    
C104  H71   S    
Cu4   O29   S    
C133  C142  A    
C39   O36   A    
C205  O23   A    
C115  C116  S    
C123  H104  S    
C11   H30   S    
C110  H86   S    
C69   C76   A    
C53   C62   A    
C115  C175  S    
C38   H57   S    
C46   C82   A    
C172  C181  A    
Cu12  O40   S    
C7    C156  A    
C29   C38   A    
C107  C108  S    
Cu11  O26   S    
C45   C166  S    
C41   O38   A    
Cu12  O43   S    
C91   C204  S    
C158  O14   A    
C91   C96   A    
C118  C176  S    
C87   C96   A    
C171  C179  A    
C132  C211  A    
Cu1   Cu9   S    
C44   O41   A    
C72   C75   A    
C92   C198  S    
C127  H7    S    
C64   H1    S    
C141  C150  A    
C110  C174  S    
C147  C186  S    
C63   H21   S    
C139  C148  A    
C122  H108  S    
C129  C208  A    
C3    C161  A    
C121  C177  S    
C123  H106  S    
C165  C174  A    
C45   O42   A    
C93   C197  S    
C4    H23   S    
C32   C138  A    
C106  H68   S    
C111  H85   S    
C68   H17   S    
C96   H98   S    
C205  O26   A    
C27   C194  A    
C46   H15   S    
C40   C165  S    
Cu5   O12   S    
C118  H103  S    
C201  O22   A    
C31   C137  A    
C5    H24   S    
C103  H60   S    
C130  C151  A    
Cu2   O33   S    
C21   C188  A    
C197  O18   A    
C117  H91   S    
C132  C141  A    
C199  O20   A    
C83   C101  A    
C88   C97   A    
Cu5   O19   S    
C100  H64   S    
C3    C134  A    
C102  H62   S    
C47   O43   A    
Cu10  O7    S    
Cu2   O42   S    
Cu7   Cu10  S    
C203  O1    A    
C193  C210  A    
C28   C37   A    
C138  C146  A    
Cu6   O11   S    
C169  O15   A    
Cu12  O31   S    
C131  C145  A    
C102  C103  S    
C158  C181  S    
C51   C79   A    
C180  O16   A    
Cu6   O23   S    
C109  H74   S    
C125  C178  S    
C48   C113  A    
C130  C209  A    
C191  O3    A    
C51   C60   A    
C1    O6    A    
C140  C149  A    
C169  C179  S    
C23   C190  A    
C41   O27   A    
C25   C33   A    
Cu6   O20   S    
Cu1   O9    S    
C187  C196  A    
C73   C74   A    
C191  O17   A    
C185  C194  A    
C115  H95   S    
C183  C192  A    
Cu8   O44   S    
C176  C185  A    
Cu5   Cu8   S    
C188  C206  A    
C166  C175  A    
C65   C76   A    
C137  C145  A    
C105  H69   S    
C106  H66   S    
Cu4   O38   S    
C168  C177  A    
C11   C161  A    
Cu7   O34   S    
C114  H83   S    
C39   O29   A    
C101  H20   S    
C125  H10   S    
C180  O4    A    
C181  C189  A    
C65   C67   A    
C93   C99   A    
C103  H58   S    
C104  C172  S    
C81   C89   A    
C108  H77   S    
C12   H31   S    
C60   H54   S    
C130  C139  A    
C169  O48   A    
C87   C203  S    
C15   C152  A    
C9    H28   S    
C18   H37   S    
C155  C208  A    
C53   C57   A    
C74   C202  A    
C127  H6    S    
Cu10  O25   S    
C157  C166  A    
C126  H8    S    
C36   C141  A    
C21   H40   S    
C120  H97   S    
C10   C19   A    
C46   C54   A    
C22   C189  A    
C121  H4    S    
C5    C14   A    
C15   H34   S    
Cu1   O48   S    
Cu11  O8    S    
C143  C152  A    
C34   H53   S    
C125  C126  S    
C182  C191  S    
C25   H44   S    
C120  H99   S    
C82   C202  A    
C124  C150  A    
C6    H25   S    
C174  C183  A    
C119  C120  S    
C147  O13   A    
C27   C36   A    
C104  H72   S    
C21   C30   A    
C13   C83   A    
C3    C196  A    
C197  O45   A    
C153  C162  A    
Cu9   O15   S    
C114  H81   S    
C23   C32   A    
C18   C144  A    
C32   H51   S    
Cu7   O21   S    
C22   H41   S    
C156  C165  A    
C189  C207  A    
C111  C114  S    
C94   C200  S    
C192  C209  A    
C107  H80   S    
C177  C186  A    
C99   H13   S    
C128  C149  A    
C195  C212  A    
C30   C135  A    
Cu9   O6    S    
C9    C159  A    
C200  O46   A    
C136  O8    A    
C26   C193  A    
C175  C184  A    
C19   H38   S    
C68   C80   A    
C84   C113  A    
C43   O40   A    
C17   C145  A    
C198  O19   A    
C35   C81   A    
C95   C98   A    
C92   C98   A    
C62   H32   S    
C83   C92   A    
Cu3   O30   S    
C125  H11   S    
C20   H39   S    
C66   C69   A    
C123  H105  S    
C113  H22   S    
C158  O2    A    
C116  C117  S    
C204  O34   A    
C79   H18   S    
C118  C119  S    
C6    C15   A    
C26   C34   A    
C129  C138  A    
Cu5   O2    S    
C13   C86   A    
C128  C207  A    
C88   C201  S    
C52   C68   A    
C180  C183  S    
C194  C211  A    
Cu8   O22   S    
C157  C210  A    
C28   H47   S    
C90   H19   S    
C100  C171  S    
C35   H14   S    
C103  H59   S    
C50   C65   A    
C117  H90   S    
C111  H84   S    
C160  C212  A    
C22   C31   A    
C35   C55   A    
Cu6   O3    S    
C186  C195  A    
C16   H35   S    
C42   C163  S    
C43   O33   A    
C119  H101  S    
C49   C58   A    
C45   O31   A    
C89   C97   A    
C128  C137  A    
C47   C167  S    
C85   C94   A    
C9    C18   A    
Cu3   O39   S    
C13   C76   A    
C55   C64   A    
C100  C102  S    
Cu7   O4    S    
C121  C122  S    
Cu1   O1    S    
C133  C148  A    
Cu8   O14   S    
Cu2   Cu12  S    
C161  C170  A    
C190  C208  A    
C135  C144  A    
C109  H73   S    
C136  C187  S    
C178  C187  A    
C48   C56   A    
C7    C16   A    
Cu3   O36   S    
C124  C206  A    
C29   H48   S    
C53   C73   A    
C78   C202  A    
C122  H107  S    
C116  H93   S    
C155  C164  A    
C29   C196  A    
C23   H42   S    
C24   C84   A    
C106  H67   S    
C71   C75   A    
C94   C99   A    
Cu3   O27   S    
Cu10  O46   S    
C120  H96   S    
C44   C170  S    
C57   H16   S    
C2    C80   A    
C153  C206  A    
C118  H102  S    
C27   H46   S    
C95   C199  S    
C119  H100  S    
C204  O25   A    
C133  C212  A    
C70   C72   A    
C122  C123  S    
C154  C207  A    
Cu2   O32   S    
C167  C176  A    
C108  H78   S    
