data_mof_unit_64112.cif
_audit_creation_date              2012-12-10T18:02:39-0500
_audit_creation_method            fapswitch 2.2
_symmetry_space_group_name_H-M    P1
_symmetry_Int_Tables_number       1
_space_group_crystal_system       triclinic
_cell_length_a                    21.729225
_cell_length_b                    21.729222
_cell_length_c                    55.858078
_cell_angle_alpha                 90.000042
_cell_angle_beta                  90.000045
_cell_angle_gamma                 90.0
_cell_volume                      26373.9028477

loop_
_atom_site_label
_atom_site_type_symbol
_atom_type_description
_atom_site_fract_x
_atom_site_fract_y
_atom_site_fract_z
_atom_type_partial_charge
C1    C     C_R   0.500536 0.381332 0.499867 0.780140
C2    C     C_R   0.458723 0.219317 0.512517 0.095757
C3    C     C_R   0.449530 0.100643 0.300765 0.135665
C4    C     C_R   0.399356 0.949532 0.800764 0.135664
C5    C     C_R   0.050484 0.399365 0.800764 0.135663
C6    C     C_R   0.600644 0.050468 0.800765 0.135663
C7    C     C_R   0.949515 0.600635 0.800764 0.135663
C8    C     C_R   0.950006 0.473809 0.313630 -0.033339
C9    C     C_R   0.526191 0.950007 0.313630 -0.033339
C10   C     C_R   0.049994 0.526190 0.313630 -0.033339
C11   C     C_R   0.473808 0.049993 0.313630 -0.033340
C12   C     C_R   0.450006 0.973809 0.813630 -0.033339
C13   C     C_R   0.780683 0.458723 0.512517 0.095757
C14   C     C_R   0.026199 0.450011 0.813630 -0.033338
C15   C     C_R   0.549994 0.026190 0.813630 -0.033339
C16   C     C_R   0.973801 0.549989 0.813630 -0.033338
C17   C     C_R   0.000000 0.500000 0.300922 -0.151182
C18   C     C_R   0.500000 0.000000 0.300922 -0.151182
C19   C     C_R   0.500000 1.000000 0.800922 -0.151182
C20   C     C_R   1.000000 0.500000 0.800922 -0.151183
C21   C     C_R   0.554347 0.985683 0.586046 0.079100
C22   C     C_R   0.014316 0.554347 0.586046 0.079101
C23   C     C_R   0.445653 0.014317 0.586046 0.079100
C24   C     C_R   0.541277 0.780683 0.512517 0.095756
C25   C     C_R   0.985684 0.445653 0.586046 0.079101
C26   C     C_R   0.054347 0.485683 0.086046 0.079099
C27   C     C_R   0.514314 0.054347 0.086046 0.079098
C28   C     C_R   0.945653 0.514317 0.086046 0.079100
C29   C     C_R   0.485686 0.945653 0.086046 0.079098
C30   C     C_R   0.951494 0.474424 0.338970 0.563097
C31   C     C_R   0.525577 0.951495 0.338970 0.563097
C32   C     C_R   0.048506 0.525575 0.338970 0.563098
C33   C     C_R   0.474423 0.048506 0.338970 0.563096
C34   C     C_R   0.451494 0.974424 0.838970 0.563097
C35   C     C_R   0.719317 0.041277 0.012517 0.095758
C36   C     C_R   0.025583 0.451498 0.838970 0.563097
C37   C     C_R   0.548506 0.025575 0.838970 0.563098
C38   C     C_R   0.974416 0.548502 0.838970 0.563097
C39   C     C_R   0.459433 0.961237 0.737576 0.055836
C40   C     C_R   0.038769 0.459439 0.737575 0.055836
C41   C     C_R   0.540567 0.038762 0.737576 0.055835
C42   C     C_R   0.961231 0.540561 0.737575 0.055836
C43   C     C_R   0.959433 0.461237 0.237575 0.055836
C44   C     C_R   0.538763 0.959433 0.237576 0.055836
C45   C     C_R   0.040567 0.538762 0.237576 0.055835
C46   C     C_R   0.958723 0.719317 0.012517 0.095757
C47   C     C_R   0.461236 0.040566 0.237576 0.055835
C48   C     C_R   0.500000 1.000000 0.724881 0.040122
C49   C     C_R   1.000000 0.500000 0.724881 0.040122
C50   C     C_R   0.000000 0.500000 0.224882 0.040122
C51   C     C_R   0.499999 1.000000 0.224882 0.040122
C52   C     C_R   0.995455 0.555543 0.389334 -0.104175
C53   C     C_R   0.555543 0.004547 0.389334 -0.104174
C54   C     C_R   0.004545 0.444457 0.389334 -0.104175
C55   C     C_R   0.444457 0.995453 0.389334 -0.104175
C56   C     C_R   0.495455 0.055543 0.889334 -0.104175
C57   C     C_R   0.280683 0.958723 0.012517 0.095758
C58   C     C_R   0.055542 0.504551 0.889334 -0.104173
C59   C     C_R   0.504545 0.944457 0.889334 -0.104175
C60   C     C_R   0.944457 0.495449 0.889334 -0.104173
C61   C     C_R   0.571466 0.085171 0.724785 -0.219628
C62   C     C_R   0.914817 0.571452 0.724785 -0.219629
C63   C     C_R   0.428534 0.914829 0.724785 -0.219628
C64   C     C_R   0.085182 0.428548 0.724785 -0.219629
C65   C     C_R   0.071466 0.585171 0.224785 -0.219629
C66   C     C_R   0.414827 0.071465 0.224785 -0.219628
C67   C     C_R   0.928534 0.414828 0.224785 -0.219629
C68   C     C_R   0.041277 0.280683 0.012517 0.095757
C69   C     C_R   0.585172 0.928535 0.224785 -0.219629
C70   C     C_R   0.569429 0.088190 0.699805 0.166037
C71   C     C_R   0.911799 0.569415 0.699805 0.166036
C72   C     C_R   0.430571 0.911809 0.699805 0.166038
C73   C     C_R   0.088201 0.430585 0.699805 0.166037
C74   C     C_R   0.069429 0.588190 0.199805 0.166037
C75   C     C_R   0.411808 0.069428 0.199805 0.166038
C76   C     C_R   0.930571 0.411809 0.199805 0.166038
C77   C     C_R   0.588191 0.930572 0.199805 0.166037
C78   C     C_R   0.535236 0.044074 0.686757 -0.014963
C79   C     C_3   0.215314 0.594656 0.529256 -0.086765
C80   C     C_R   0.955920 0.535230 0.686757 -0.014963
C81   C     C_R   0.464764 0.955925 0.686757 -0.014963
C82   C     C_R   0.044080 0.464771 0.686757 -0.014964
C83   C     C_R   0.035236 0.544074 0.186757 -0.014963
C84   C     C_R   0.455925 0.035236 0.186757 -0.014963
C85   C     C_R   0.964764 0.455925 0.186757 -0.014963
C86   C     C_R   0.544074 0.964764 0.186757 -0.014962
C87   C     C_R   0.500000 1.000000 0.699430 -0.144499
C88   C     C_R   1.000000 0.500000 0.699430 -0.144499
C89   C     C_R   0.000000 0.500000 0.199430 -0.144499
C90   C     C_3   0.405344 0.215314 0.529256 -0.086765
C91   C     C_R   0.500000 0.000000 0.199430 -0.144500
C92   C     C_R   0.465983 0.956879 0.661466 0.559518
C93   C     C_R   0.043125 0.465989 0.661466 0.559518
C94   C     C_R   0.534018 0.043121 0.661466 0.559517
C95   C     C_R   0.956874 0.534012 0.661466 0.559519
C96   C     C_R   0.965983 0.456879 0.161466 0.559518
C97   C     C_R   0.543120 0.965982 0.161466 0.559516
C98   C     C_R   0.034018 0.543121 0.161466 0.559517
C99   C     C_R   0.456879 0.034018 0.161466 0.559517
C100  C     C_R   0.000000 0.500000 0.427112 -0.037538
C101  C     C_3   0.784686 0.405344 0.529256 -0.086765
C102  C     C_R   0.500000 0.000000 0.427112 -0.037538
C103  C     C_R   0.500000 1.000000 0.927112 -0.037538
C104  C     C_R   1.000000 0.500000 0.927112 -0.037537
C105  C     C_R   0.281414 0.539921 0.513036 0.021737
C106  C     C_R   0.460079 0.281414 0.513036 0.021737
C107  C     C_R   0.718586 0.460079 0.513036 0.021737
C108  C     C_R   0.539921 0.718586 0.513036 0.021737
C109  C     C_R   0.781414 0.039921 0.013036 0.021737
C110  C     C_R   0.960079 0.781414 0.013036 0.021737
C111  C     C_R   0.218586 0.960079 0.013036 0.021737
C112  C     C_R   0.618668 0.500536 0.499867 0.780138
C113  C     C_3   0.594656 0.784686 0.529256 -0.086764
C114  C     C_R   0.039921 0.218586 0.013036 0.021737
C115  C     C_R   0.315231 0.498202 0.499723 -0.081476
C116  C     C_R   0.501798 0.315231 0.499723 -0.081475
C117  C     C_R   0.684769 0.501798 0.499723 -0.081475
C118  C     C_R   0.498202 0.684769 0.499723 -0.081475
C119  C     C_R   0.815231 0.998202 0.999723 -0.081475
C120  C     C_R   0.001798 0.815231 0.999723 -0.081475
C121  C     C_R   0.184769 0.001798 0.999723 -0.081475
C122  C     C_R   0.998202 0.184769 0.999723 -0.081475
C123  C     C_R   0.282592 0.455226 0.485710 -0.201712
C124  C     C_3   0.715313 0.094657 0.029256 -0.086765
C125  C     C_R   0.544774 0.282592 0.485710 -0.201712
C126  C     C_R   0.717408 0.544774 0.485710 -0.201713
C127  C     C_R   0.455226 0.717408 0.485710 -0.201712
C128  C     C_R   0.782592 0.955226 0.985710 -0.201712
C129  C     C_R   0.044774 0.782592 0.985710 -0.201712
C130  C     C_R   0.217408 0.044774 0.985710 -0.201713
C131  C     C_R   0.955226 0.217408 0.985710 -0.201712
C132  C     C_R   0.217709 0.455039 0.485890 -0.198792
C133  C     C_R   0.544961 0.217709 0.485890 -0.198793
C134  C     C_R   0.782290 0.544961 0.485890 -0.198792
C135  C     C_3   0.905344 0.715314 0.029256 -0.086765
C136  C     C_R   0.455039 0.782290 0.485890 -0.198792
C137  C     C_R   0.717709 0.955039 0.985891 -0.198793
C138  C     C_R   0.044961 0.717709 0.985890 -0.198793
C139  C     C_R   0.282290 0.044961 0.985891 -0.198793
C140  C     C_R   0.955039 0.282290 0.985890 -0.198794
C141  C     C_R   0.185115 0.499277 0.499406 -0.087817
C142  C     C_R   0.500722 0.185115 0.499406 -0.087817
C143  C     C_R   0.814885 0.500722 0.499407 -0.087817
C144  C     C_R   0.499277 0.814885 0.499407 -0.087817
C145  C     C_R   0.685115 0.999278 0.999407 -0.087817
C146  C     C_3   0.284687 0.905343 0.029256 -0.086765
C147  C     C_R   0.000722 0.685115 0.999406 -0.087816
C148  C     C_R   0.314885 0.000722 0.999407 -0.087817
C149  C     C_R   0.999278 0.314885 0.999407 -0.087816
C150  C     C_3   0.317914 0.648811 0.517914 -0.417258
C151  C     C_3   0.318069 0.704416 0.534559 -0.798875
C152  C     C_3   0.351189 0.317914 0.517914 -0.417256
C153  C     C_3   0.295584 0.318069 0.534559 -0.798872
C154  C     C_3   0.682086 0.351189 0.517914 -0.417255
C155  C     C_3   0.681931 0.295584 0.534559 -0.798870
C156  C     C_3   0.648811 0.682086 0.517914 -0.417256
C157  C     C_3   0.094656 0.284687 0.029256 -0.086763
C158  C     C_3   0.704416 0.681931 0.534559 -0.798873
C159  C     C_3   0.817914 0.148811 0.017914 -0.417255
C160  C     C_3   0.818069 0.204417 0.034559 -0.798872
C161  C     C_3   0.851189 0.817914 0.017914 -0.417256
C162  C     C_3   0.795584 0.818069 0.034559 -0.798872
C163  C     C_3   0.182086 0.851189 0.017914 -0.417256
C164  C     C_3   0.181931 0.795583 0.034559 -0.798873
C165  C     C_3   0.148811 0.182086 0.017914 -0.417254
C166  C     C_3   0.204416 0.181931 0.034560 -0.798872
C167  C     C_3   0.286671 0.593184 0.529750 -0.047877
C168  C     C_3   0.406816 0.286671 0.529750 -0.047877
C169  C     C_3   0.713329 0.406816 0.529750 -0.047878
C170  C     C_3   0.593184 0.713329 0.529750 -0.047876
C171  C     C_3   0.786671 0.093184 0.029750 -0.047878
C172  C     C_R   0.499464 0.618668 0.499867 0.780139
C173  C     C_3   0.906816 0.786671 0.029750 -0.047876
C174  C     C_3   0.213329 0.906816 0.029749 -0.047878
C175  C     C_3   0.093184 0.213329 0.029750 -0.047878
C176  C     C_R   0.500000 0.000000 0.623724 0.299821
C177  C     C_R   0.000000 0.500000 0.623724 0.299828
C178  C     C_R   0.000000 0.500000 0.123724 0.299821
C179  C     C_R   0.500000 0.000000 0.123724 0.299818
C180  C     C_R   0.553668 0.985863 0.611140 -0.157925
C181  C     C_R   0.014135 0.553669 0.611140 -0.157928
C182  C     C_R   0.446332 0.014137 0.611140 -0.157926
C183  C     C_R   0.381332 0.499464 0.499867 0.780139
C184  C     C_R   0.985865 0.446332 0.611140 -0.157927
C185  C     C_R   0.053668 0.485863 0.111140 -0.157925
C186  C     C_R   0.514134 0.053669 0.111140 -0.157925
C187  C     C_R   0.946332 0.514137 0.111140 -0.157926
C188  C     C_R   0.485866 0.946331 0.111140 -0.157926
C189  C     C_R   0.000000 0.500000 0.376696 0.343543
C190  C     C_R   0.500000 0.000000 0.376696 0.343543
C191  C     C_R   0.500000 1.000000 0.876696 0.343543
C192  C     C_R   1.000000 0.500000 0.876695 0.343539
C193  C     C_R   0.995562 0.555609 0.414337 -0.214213
C194  C     C_R   0.000536 0.881332 0.999867 0.780140
C195  C     C_R   0.555608 0.004440 0.414337 -0.214213
C196  C     C_R   0.004438 0.444391 0.414337 -0.214213
C197  C     C_R   0.444391 0.995560 0.414337 -0.214214
C198  C     C_R   0.495562 0.055609 0.914337 -0.214213
C199  C     C_R   0.055608 0.504444 0.914337 -0.214215
C200  C     C_R   0.504438 0.944391 0.914337 -0.214213
C201  C     C_R   0.944392 0.495556 0.914337 -0.214214
C202  C     C_R   0.000000 0.500000 0.453582 0.795743
C203  C     C_R   0.500000 1.000000 0.453582 0.795743
C204  C     C_R   0.500000 1.000000 0.953582 0.795743
C205  C     C_R   0.118668 0.000536 0.999868 0.780139
C206  C     C_R   1.000000 0.500000 0.953582 0.795743
C207  C     C_R   0.118778 0.499920 0.499818 0.799977
C208  C     C_R   0.500080 0.118778 0.499818 0.799976
C209  C     C_R   0.881222 0.500080 0.499818 0.799977
C210  C     C_R   0.499920 0.881222 0.499818 0.799976
C211  C     C_R   0.618778 0.999920 0.999818 0.799977
C212  C     C_R   0.000080 0.618778 0.999818 0.799976
C213  C     C_R   0.381222 0.000080 0.999818 0.799977
C214  C     C_R   0.999920 0.381222 0.999818 0.799976
C215  C     C_R   0.000000 0.500000 0.546253 0.832058
C216  C     C_R   0.999464 0.118668 0.999868 0.780139
C217  C     C_R   0.500000 0.000000 0.546253 0.832058
C218  C     C_R   0.500000 0.000000 0.046253 0.832058
C219  C     C_R   0.000000 0.500000 0.046253 0.832058
C220  C     C_R   0.500000 0.000000 0.573020 -0.040550
C221  C     C_R   0.000000 0.500000 0.573020 -0.040550
C222  C     C_R   0.000000 0.500000 0.073020 -0.040551
C223  C     C_R   0.500000 1.000000 0.073020 -0.040550
C224  C     C_R   0.952916 0.468753 0.262788 0.041805
C225  C     C_R   0.531247 0.952916 0.262788 0.041805
C226  C     C_R   0.047084 0.531246 0.262788 0.041805
C227  C     C_R   0.881332 0.999464 0.999868 0.780139
C228  C     C_R   0.468752 0.047084 0.262788 0.041805
C229  C     C_R   0.452916 0.968753 0.762788 0.041805
C230  C     C_R   0.031254 0.452921 0.762788 0.041806
C231  C     C_R   0.547084 0.031246 0.762788 0.041805
C232  C     C_R   0.968746 0.547079 0.762788 0.041806
C233  C     C_R   0.000000 0.500000 0.275513 -0.029455
C234  C     C_R   0.500000 0.000000 0.275513 -0.029454
C235  C     C_R   0.500000 1.000000 0.775513 -0.029455
C236  C     C_R   1.000000 0.500000 0.775513 -0.029455
C237  C     C_R   0.900216 0.448317 0.275504 0.083502
C238  C     C_R   0.219317 0.541277 0.512517 0.095758
C239  C     C_R   0.551683 0.900217 0.275504 0.083501
C240  C     C_R   0.099784 0.551682 0.275504 0.083502
C241  C     C_R   0.448316 0.099783 0.275504 0.083501
C242  C     C_R   0.400216 0.948317 0.775504 0.083502
C243  C     C_R   0.051698 0.400225 0.775504 0.083501
C244  C     C_R   0.599784 0.051682 0.775504 0.083502
C245  C     C_R   0.948301 0.599776 0.775504 0.083501
C246  C     C_R   0.899356 0.449531 0.300764 0.135664
C247  C     C_R   0.550469 0.899357 0.300765 0.135664
C248  C     C_R   0.100644 0.550468 0.300765 0.135663
Cu1   Cu    Cu3+1 0.500000 0.500000 0.523790 0.946493
Cu2   Cu    Cu3+1 0.938210 0.500100 0.999860 0.957474
Cu3   Cu    Cu3+1 0.499900 0.938210 0.999860 0.957474
Cu4   Cu    Cu3+1 0.061790 0.499900 0.999860 0.957474
Cu5   Cu    Cu3+1 1.000000 1.000000 0.023790 0.946492
Cu6   Cu    Cu3+1 0.500000 0.500000 0.476000 0.959283
Cu7   Cu    Cu3+1 0.000000 1.000000 0.976000 0.959283
Cu8   Cu    Cu3+1 0.000100 0.561790 0.499860 0.957474
Cu9   Cu    Cu3+1 0.438210 0.000100 0.499860 0.957474
Cu10  Cu    Cu3+1 0.999900 0.438210 0.499860 0.957474
Cu11  Cu    Cu3+1 0.561790 0.999900 0.499860 0.957474
Cu12  Cu    Cu3+1 0.500100 0.061790 0.999860 0.957474
H1    H     H_    0.307195 0.579501 0.547215 0.190981
H2    H     H_    0.025416 0.595208 0.620933 0.148284
H3    H     H_    0.535889 0.810330 0.267363 0.226322
H4    H     H_    0.169043 0.611507 0.267564 0.209186
H5    H     H_    0.189670 0.535887 0.267363 0.226323
H6    H     H_    0.388490 0.169041 0.267564 0.209186
H7    H     H_    0.464110 0.189670 0.267363 0.226323
H8    H     H_    0.330957 0.888493 0.767564 0.209186
H9    H     H_    0.310330 0.964113 0.767363 0.226323
H10   H     H_    0.111534 0.330976 0.767564 0.209186
H11   H     H_    0.035917 0.310336 0.767363 0.226323
H12   H     H_    0.669043 0.111507 0.767564 0.209186
H13   H     H_    0.404793 0.025420 0.620933 0.148288
H14   H     H_    0.689670 0.035887 0.767363 0.226323
H15   H     H_    0.888466 0.669024 0.767564 0.209187
H16   H     H_    0.964082 0.689664 0.767363 0.226323
H17   H     H_    0.839576 0.380478 0.308751 0.216636
H18   H     H_    0.807658 0.452169 0.308375 0.217101
H19   H     H_    0.619523 0.839577 0.308751 0.216636
H20   H     H_    0.547833 0.807659 0.308375 0.217100
H21   H     H_    0.160424 0.619521 0.308751 0.216636
H22   H     H_    0.192342 0.547830 0.308375 0.217101
H23   H     H_    0.380477 0.160423 0.308751 0.216636
H24   H     H_    0.974584 0.404792 0.620933 0.148284
H25   H     H_    0.452167 0.192341 0.308375 0.217100
H26   H     H_    0.339576 0.880478 0.808751 0.216636
H27   H     H_    0.307658 0.952169 0.808375 0.217101
H28   H     H_    0.119548 0.339597 0.808751 0.216636
H29   H     H_    0.047863 0.307667 0.808375 0.217101
H30   H     H_    0.660424 0.119521 0.808751 0.216635
H31   H     H_    0.692342 0.047830 0.808375 0.217101
H32   H     H_    0.880452 0.660403 0.808751 0.216635
H33   H     H_    0.952136 0.692334 0.808375 0.217101
H34   H     H_    0.192257 0.614425 0.563678 0.224807
H35   H     H_    0.095207 0.474580 0.120933 0.148288
H36   H     H_    0.141421 0.569456 0.549400 0.238826
H37   H     H_    0.385575 0.192256 0.563678 0.224807
H38   H     H_    0.430545 0.141422 0.549400 0.238827
H39   H     H_    0.807744 0.385574 0.563678 0.224808
H40   H     H_    0.858579 0.430543 0.549400 0.238826
H41   H     H_    0.614426 0.807744 0.563678 0.224807
H42   H     H_    0.569456 0.858579 0.549400 0.238827
H43   H     H_    0.692257 0.114426 0.063677 0.224808
H44   H     H_    0.641421 0.069457 0.049400 0.238825
H45   H     H_    0.885575 0.692256 0.063678 0.224807
H46   H     H_    0.525415 0.095208 0.120933 0.148291
H47   H     H_    0.930545 0.641422 0.049400 0.238826
H48   H     H_    0.307743 0.885574 0.063677 0.224808
H49   H     H_    0.358579 0.930542 0.049400 0.238826
H50   H     H_    0.114425 0.307744 0.063678 0.224807
H51   H     H_    0.069455 0.358579 0.049400 0.238827
H52   H     H_    0.270200 0.718502 0.538861 0.247265
H53   H     H_    0.342865 0.693351 0.551409 0.255895
H54   H     H_    0.341812 0.743478 0.525663 0.253080
H55   H     H_    0.366320 0.636573 0.513671 0.210369
H56   H     H_    0.294479 0.661180 0.500871 0.208520
H57   H     H_    0.904793 0.525420 0.120933 0.148289
H58   H     H_    0.281499 0.270200 0.538862 0.247265
H59   H     H_    0.306650 0.342866 0.551409 0.255894
H60   H     H_    0.256522 0.341812 0.525663 0.253080
H61   H     H_    0.363427 0.366320 0.513670 0.210368
H62   H     H_    0.338820 0.294478 0.500871 0.208519
H63   H     H_    0.729800 0.281498 0.538861 0.247264
H64   H     H_    0.657135 0.306649 0.551409 0.255895
H65   H     H_    0.658188 0.256522 0.525663 0.253079
H66   H     H_    0.633680 0.363427 0.513670 0.210368
H67   H     H_    0.705521 0.338820 0.500870 0.208519
H68   H     H_    0.474585 0.904792 0.120933 0.148292
H69   H     H_    0.718502 0.729800 0.538861 0.247264
H70   H     H_    0.693351 0.657135 0.551409 0.255895
H71   H     H_    0.743478 0.658188 0.525663 0.253079
H72   H     H_    0.636573 0.633680 0.513670 0.210368
H73   H     H_    0.661180 0.705521 0.500870 0.208519
H74   H     H_    0.770200 0.218502 0.038861 0.247264
H75   H     H_    0.842866 0.193351 0.051409 0.255894
H76   H     H_    0.841812 0.243478 0.025663 0.253079
H77   H     H_    0.866320 0.136573 0.013670 0.210368
H78   H     H_    0.794479 0.161180 0.000870 0.208518
H79   H     H_    0.991703 0.598692 0.379747 0.141328
H80   H     H_    0.781498 0.770200 0.038862 0.247264
H81   H     H_    0.806650 0.842866 0.051409 0.255894
H82   H     H_    0.756522 0.841812 0.025663 0.253079
H83   H     H_    0.863427 0.866320 0.013671 0.210368
H84   H     H_    0.838820 0.794478 0.000871 0.208519
H85   H     H_    0.229800 0.781497 0.038861 0.247265
H86   H     H_    0.157134 0.806649 0.051409 0.255895
H87   H     H_    0.158188 0.756522 0.025663 0.253079
H88   H     H_    0.133680 0.863427 0.013670 0.210368
H89   H     H_    0.205521 0.838820 0.000870 0.208519
H90   H     H_    0.598692 0.008301 0.379747 0.141328
H91   H     H_    0.218502 0.229800 0.038862 0.247264
H92   H     H_    0.193350 0.157134 0.051409 0.255894
H93   H     H_    0.243478 0.158188 0.025664 0.253079
H94   H     H_    0.136573 0.133680 0.013671 0.210367
H95   H     H_    0.161180 0.205522 0.000871 0.208518
H96   H     H_    0.008297 0.401307 0.379747 0.141328
H97   H     H_    0.420499 0.307195 0.547215 0.190981
H98   H     H_    0.401308 0.991700 0.379747 0.141328
H99   H     H_    0.491703 0.098692 0.879747 0.141328
H100  H     H_    0.098691 0.508308 0.879747 0.141330
H101  H     H_    0.508297 0.901307 0.879747 0.141328
H102  H     H_    0.901308 0.491692 0.879747 0.141330
H103  H     H_    0.991951 0.599182 0.423637 0.161038
H104  H     H_    0.599181 0.008052 0.423637 0.161037
H105  H     H_    0.008049 0.400818 0.423637 0.161037
H106  H     H_    0.400819 0.991948 0.423637 0.161037
H107  H     H_    0.491951 0.099182 0.923637 0.161038
H108  H     H_    0.692805 0.420499 0.547215 0.190981
H109  H     H_    0.099181 0.508059 0.923637 0.161037
H110  H     H_    0.508049 0.900818 0.923637 0.161037
H111  H     H_    0.900819 0.491941 0.923637 0.161037
H112  H     H_    0.595474 0.121672 0.734010 0.167794
H113  H     H_    0.878313 0.595454 0.734010 0.167794
H114  H     H_    0.404527 0.878328 0.734010 0.167794
H115  H     H_    0.121687 0.404547 0.734010 0.167794
H116  H     H_    0.095474 0.621672 0.234010 0.167794
H117  H     H_    0.378326 0.095471 0.234010 0.167794
H118  H     H_    0.904527 0.378328 0.234010 0.167794
H119  H     H_    0.579502 0.692805 0.547215 0.190981
H120  H     H_    0.621673 0.904529 0.234010 0.167794
H121  H     H_    0.307014 0.421538 0.475028 0.149538
H122  H     H_    0.578462 0.307014 0.475028 0.149538
H123  H     H_    0.692986 0.578462 0.475029 0.149538
H124  H     H_    0.421538 0.692986 0.475029 0.149538
H125  H     H_    0.807014 0.921538 0.975028 0.149538
H126  H     H_    0.078462 0.807014 0.975028 0.149538
H127  H     H_    0.192986 0.078462 0.975029 0.149538
H128  H     H_    0.921538 0.192986 0.975028 0.149538
H129  H     H_    0.193269 0.421227 0.475280 0.157558
H130  H     H_    0.807195 0.079502 0.047215 0.190980
H131  H     H_    0.578773 0.193269 0.475280 0.157558
H132  H     H_    0.806731 0.578773 0.475280 0.157558
H133  H     H_    0.421226 0.806731 0.475280 0.157558
H134  H     H_    0.693269 0.921227 0.975280 0.157558
H135  H     H_    0.078773 0.693269 0.975280 0.157557
H136  H     H_    0.306731 0.078774 0.975280 0.157559
H137  H     H_    0.921227 0.306731 0.975280 0.157558
H138  H     H_    0.193844 0.636235 0.521129 0.157289
H139  H     H_    0.363766 0.193843 0.521129 0.157289
H140  H     H_    0.806157 0.363765 0.521129 0.157289
H141  H     H_    0.920499 0.807195 0.047215 0.190981
H142  H     H_    0.636235 0.806157 0.521129 0.157289
H143  H     H_    0.693843 0.136235 0.021129 0.157289
H144  H     H_    0.863766 0.693843 0.021129 0.157289
H145  H     H_    0.306156 0.863765 0.021129 0.157289
H146  H     H_    0.136234 0.306157 0.021129 0.157290
H147  H     H_    0.585745 0.178701 0.694305 0.213075
H148  H     H_    0.648818 0.133229 0.692798 0.221581
H149  H     H_    0.821286 0.585717 0.694305 0.213074
H150  H     H_    0.866748 0.648797 0.692798 0.221581
H151  H     H_    0.414255 0.821299 0.694305 0.213075
H152  H     H_    0.192805 0.920498 0.047215 0.190981
H153  H     H_    0.351182 0.866771 0.692798 0.221581
H154  H     H_    0.178714 0.414284 0.694305 0.213075
H155  H     H_    0.133252 0.351203 0.692798 0.221582
H156  H     H_    0.085745 0.678701 0.194305 0.213075
H157  H     H_    0.148819 0.633228 0.192798 0.221581
H158  H     H_    0.321298 0.085742 0.194305 0.213075
H159  H     H_    0.366768 0.148817 0.192798 0.221581
H160  H     H_    0.914255 0.321299 0.194305 0.213075
H161  H     H_    0.851182 0.366771 0.192798 0.221581
H162  H     H_    0.678701 0.914259 0.194305 0.213075
H163  H     H_    0.079501 0.192805 0.047215 0.190981
H164  H     H_    0.633231 0.851184 0.192798 0.221581
H165  H     H_    0.624428 0.926640 0.579871 0.207937
H166  H     H_    0.644156 0.001815 0.579216 0.231866
H167  H     H_    0.073357 0.624429 0.579871 0.207938
H168  H     H_    0.998182 0.644156 0.579216 0.231864
H169  H     H_    0.375572 0.073360 0.579871 0.207936
H170  H     H_    0.355844 0.998185 0.579216 0.231866
H171  H     H_    0.926643 0.375571 0.579871 0.207937
H172  H     H_    0.001818 0.355844 0.579216 0.231864
H173  H     H_    0.124428 0.426640 0.079871 0.207937
H174  H     H_    0.595207 0.974580 0.620933 0.148288
H175  H     H_    0.144156 0.501815 0.079216 0.231866
H176  H     H_    0.573354 0.124431 0.079871 0.207936
H177  H     H_    0.498179 0.144156 0.079217 0.231866
H178  H     H_    0.875572 0.573360 0.079871 0.207937
H179  H     H_    0.855844 0.498185 0.079216 0.231866
H180  H     H_    0.426647 0.875568 0.079871 0.207937
H181  H     H_    0.501823 0.855845 0.079216 0.231866
H182  H     H_    0.830957 0.388493 0.267564 0.209186
H183  H     H_    0.810330 0.464113 0.267363 0.226323
H184  H     H_    0.611509 0.830959 0.267564 0.209186
N1    N     N_R   0.500000 1.000000 0.649512 -0.473932
N2    N     N_3   0.863404 0.602406 0.687990 -0.510802
N3    N     N_3   0.397573 0.863419 0.687990 -0.510802
N4    N     N_3   0.136596 0.397595 0.687990 -0.510803
N5    N     N_3   0.102427 0.636580 0.187990 -0.510802
N6    N     N_3   0.363418 0.102425 0.187990 -0.510803
N7    N     N_3   0.897573 0.363419 0.187990 -0.510802
N8    N     N_3   0.636582 0.897575 0.187990 -0.510802
N9    N     N_3   0.610473 0.970159 0.574013 -0.570602
N10   N     N_3   0.029839 0.610473 0.574013 -0.570601
N11   N     N_3   0.389527 0.029841 0.574013 -0.570602
N12   N     N_R   0.000000 0.500000 0.649512 -0.473934
N13   N     N_3   0.970161 0.389527 0.574013 -0.570600
N14   N     N_3   0.110473 0.470159 0.074013 -0.570603
N15   N     N_3   0.529836 0.110474 0.074013 -0.570599
N16   N     N_3   0.889527 0.529841 0.074013 -0.570602
N17   N     N_3   0.470165 0.889526 0.074013 -0.570599
N18   N     N_3   0.844893 0.432835 0.262758 -0.611367
N19   N     N_3   0.567166 0.844894 0.262758 -0.611367
N20   N     N_3   0.155107 0.567164 0.262758 -0.611367
N21   N     N_3   0.432832 0.155106 0.262758 -0.611367
N22   N     N_3   0.344894 0.932835 0.762758 -0.611368
N23   N     N_R   0.000000 0.500000 0.149512 -0.473932
N24   N     N_3   0.067189 0.344905 0.762758 -0.611368
N25   N     N_3   0.655107 0.067164 0.762758 -0.611367
N26   N     N_3   0.932810 0.655096 0.762758 -0.611369
N27   N     N_3   0.846368 0.426628 0.313313 -0.513447
N28   N     N_3   0.573374 0.846369 0.313313 -0.513445
N29   N     N_3   0.153632 0.573372 0.313313 -0.513446
N30   N     N_3   0.426626 0.153632 0.313313 -0.513446
N31   N     N_3   0.346368 0.926628 0.813313 -0.513447
N32   N     N_3   0.073397 0.346381 0.813313 -0.513446
N33   N     N_3   0.653632 0.073372 0.813313 -0.513446
N34   N     N_R   0.500000 0.000000 0.149512 -0.473931
N35   N     N_3   0.926602 0.653620 0.813313 -0.513446
N36   N     N_3   0.188453 0.576721 0.552148 -0.577452
N37   N     N_3   0.423280 0.188453 0.552149 -0.577453
N38   N     N_3   0.811547 0.423279 0.552148 -0.577452
N39   N     N_3   0.576721 0.811547 0.552148 -0.577453
N40   N     N_3   0.688453 0.076721 0.052148 -0.577453
N41   N     N_3   0.923280 0.688453 0.052149 -0.577453
N42   N     N_3   0.311547 0.923278 0.052148 -0.577453
N43   N     N_3   0.076720 0.311547 0.052149 -0.577453
N44   N     N_R   0.000000 0.500000 0.350904 -0.484196
N45   N     N_R   0.500000 0.000000 0.350904 -0.484196
N46   N     N_R   0.500000 1.000000 0.850904 -0.484196
N47   N     N_R   1.000000 0.500000 0.850904 -0.484196
N48   N     N_3   0.602427 0.136580 0.687990 -0.510802
O1    O     O_R   0.500120 0.409780 0.520070 -0.587434
O2    O     O_R   0.590150 0.500100 0.479710 -0.581672
O3    O     O_R   0.499900 0.590150 0.479710 -0.581672
O4    O     O_R   0.409850 0.499900 0.479710 -0.581672
O5    O     O_R   0.000100 0.909850 0.979710 -0.581673
O6    O     O_R   0.090150 0.000100 0.979710 -0.581672
O7    O     O_R   0.999900 0.090150 0.979710 -0.581672
O8    O     O_R   0.909850 0.999900 0.979710 -0.581672
O9    O     O_2   0.433761 0.915043 0.648769 -0.500479
O10   O     O_2   0.084965 0.433772 0.648769 -0.500476
O11   O     O_2   0.566239 0.084957 0.648769 -0.500479
O12   O     O_R   0.590220 0.500120 0.520070 -0.587434
O13   O     O_2   0.915035 0.566228 0.648769 -0.500477
O14   O     O_2   0.933761 0.415043 0.148769 -0.500479
O15   O     O_2   0.584956 0.933759 0.148770 -0.500479
O16   O     O_2   0.066239 0.584956 0.148769 -0.500478
O17   O     O_2   0.415044 0.066241 0.148769 -0.500479
O18   O     O_R   0.000080 0.552170 0.464990 -0.590642
O19   O     O_R   0.447830 0.000080 0.464990 -0.590642
O20   O     O_R   0.999920 0.447830 0.464990 -0.590643
O21   O     O_R   0.552170 0.999920 0.464990 -0.590642
O22   O     O_R   0.500080 0.052170 0.964990 -0.590642
O23   O     O_R   0.499880 0.590220 0.520070 -0.587435
O24   O     O_R   0.947830 0.500080 0.964990 -0.590642
O25   O     O_R   0.499920 0.947830 0.964990 -0.590643
O26   O     O_R   0.052170 0.499920 0.964990 -0.590642
O27   O     O_R   0.090280 0.552180 0.499860 -0.592140
O28   O     O_R   0.447820 0.090280 0.499860 -0.592140
O29   O     O_R   0.909720 0.447820 0.499860 -0.592140
O30   O     O_R   0.552180 0.909720 0.499860 -0.592140
O31   O     O_R   0.590280 0.052180 0.999860 -0.592140
O32   O     O_R   0.947820 0.590280 0.999860 -0.592139
O33   O     O_R   0.409720 0.947820 0.999860 -0.592140
O34   O     O_R   0.409780 0.499880 0.520070 -0.587434
O35   O     O_R   0.052180 0.409720 0.999860 -0.592139
O36   O     O_R   0.090280 0.447800 0.499890 -0.586163
O37   O     O_R   0.552200 0.090280 0.499890 -0.586163
O38   O     O_R   0.909720 0.552200 0.499890 -0.586163
O39   O     O_R   0.447800 0.909720 0.499890 -0.586163
O40   O     O_R   0.590280 0.947800 0.999890 -0.586163
O41   O     O_R   0.052200 0.590280 0.999890 -0.586163
O42   O     O_R   0.409720 0.052200 0.999890 -0.586163
O43   O     O_R   0.947800 0.409720 0.999890 -0.586163
O44   O     O_R   0.000120 0.552180 0.534730 -0.558472
O45   O     O_R   0.000120 0.909780 0.020070 -0.587434
O46   O     O_R   0.447820 0.000120 0.534730 -0.558472
O47   O     O_R   0.999880 0.447820 0.534730 -0.558472
O48   O     O_R   0.552180 0.999880 0.534730 -0.558472
O49   O     O_R   0.500120 0.052180 0.034730 -0.558472
O50   O     O_R   0.947820 0.500120 0.034730 -0.558472
O51   O     O_R   0.499880 0.947820 0.034730 -0.558472
O52   O     O_R   0.052180 0.499880 0.034730 -0.558472
O53   O     O_2   0.904808 0.450121 0.351779 -0.501846
O54   O     O_2   0.549882 0.904810 0.351779 -0.501846
O55   O     O_2   0.095192 0.549879 0.351779 -0.501846
O56   O     O_R   0.090220 0.000120 0.020070 -0.587435
O57   O     O_2   0.450118 0.095191 0.351779 -0.501846
O58   O     O_2   0.404808 0.950121 0.851779 -0.501846
O59   O     O_2   0.049894 0.404816 0.851779 -0.501848
O60   O     O_2   0.595192 0.049879 0.851779 -0.501847
O61   O     O_2   0.950106 0.595184 0.851779 -0.501848
O62   O     O_R   0.999880 0.090220 0.020070 -0.587435
O63   O     O_R   0.909780 0.999880 0.020070 -0.587435
O64   O     O_R   0.500100 0.409850 0.479710 -0.581673

loop_
_geom_bond_atom_site_label_1
_geom_bond_atom_site_label_2
_ccdc_geom_bond_type
C52   H79   S    
C54   C189  A    
H47   N41   S    
Cu12  O42   S    
H21   N29   S    
C159  H77   S    
C41   C61   A    
C74   C83   A    
C61   H112  S    
Cu2   O50   S    
C143  C209  S    
C70   N48   S    
C176  C182  A    
C101  H140  S    
C246  N27   S    
C226  C233  A    
Cu3   O25   S    
H178  N16   S    
H179  N16   S    
C135  C173  S    
C208  O37   A    
C39   C229  A    
C37   O60   S    
C125  H122  S    
C210  O30   A    
C85   C96   A    
H169  N11   S    
Cu2   Cu4   S    
C127  H124  S    
C240  N20   S    
C129  H126  S    
C35   C145  A    
C2    C90   S    
C131  C140  A    
C134  C143  A    
C59   C191  A    
C47   C228  A    
C41   C231  A    
C136  H133  S    
C20   C236  A    
C21   C220  A    
C151  H54   S    
C92   O9    S    
C230  C236  A    
C84   C91   A    
C142  C208  S    
C4    C12   A    
C53   C190  A    
C208  O28   A    
H30   N33   S    
C119  C128  A    
C56   C191  A    
Cu11  O30   S    
H22   N29   S    
C98   O16   S    
C215  C221  S    
C144  C210  S    
C161  H84   S    
C210  O39   A    
C56   C198  A    
H149  N2    S    
C100  C196  A    
C150  H56   S    
Cu5   O63   S    
C22   C221  A    
C73   N4    S    
C115  C123  A    
C138  H135  S    
H181  N17   S    
C127  C136  A    
H171  N13   S    
C23   C182  A    
C28   C187  A    
C188  H68   S    
C179  C188  A    
Cu11  O21   S    
Cu10  O29   S    
C244  N25   S    
C169  H108  S    
C166  H91   S    
C102  C203  S    
C55   C190  A    
C158  H71   S    
C194  O5    A    
C108  C118  A    
Cu3   Cu12  S    
C1    O64   A    
C155  H65   S    
C96   O14   S    
C16   C20   A    
C242  N22   S    
C48   C87   A    
C5    C243  A    
C154  H67   S    
C206  O26   A    
C55   H98   S    
C199  H109  S    
C154  C155  S    
Cu10  O47   S    
C182  H13   S    
Cu1   O1    S    
Cu11  O48   S    
C26   N14   S    
C77   N8    S    
H36   N36   S    
C46   C110  A    
C58   C192  A    
C245  N26   S    
C225  C239  A    
C180  H174  S    
C123  H121  S    
Cu6   O3    S    
C147  C212  S    
H50   N43   S    
C97   N34   A    
C107  C169  S    
C35   C124  S    
C239  N19   S    
H9    N22   S    
C36   O59   S    
Cu12  O49   S    
C132  H129  S    
H5    N20   S    
C18   C234  A    
C113  C170  S    
C160  H76   S    
C177  C184  A    
C197  H106  S    
C27   C223  A    
C8    C17   A    
C29   C188  A    
C212  O41   A    
C156  C158  S    
C74   N5    S    
C80   C88   A    
C214  O43   A    
C229  C242  A    
H48   N42   S    
C55   C197  A    
C152  H61   S    
C78   C94   A    
H147  N48   S    
Cu4   O52   S    
H183  N18   S    
C156  C170  S    
C26   C185  A    
C52   C189  A    
C120  C194  S    
C3    C11   A    
C65   C74   A    
C179  N34   S    
C28   N16   S    
C105  C167  S    
C162  H82   S    
C126  C134  A    
C28   C222  A    
H164  N8    S    
C164  H86   S    
H173  N14   S    
C79   C167  S    
C160  H74   S    
C76   C85   A    
Cu9   O19   S    
C78   C87   A    
Cu4   O41   S    
C11   C18   A    
C156  H73   S    
C108  C170  S    
C123  C132  A    
C146  H145  S    
C69   C77   A    
C121  C130  A    
C66   H117  S    
C218  C223  S    
C179  C186  A    
C57   C111  A    
Cu12  O31   S    
C133  C142  A    
C225  C234  A    
C45   C50   A    
C110  C173  S    
Cu1   O23   S    
C153  H58   S    
C3    C241  A    
C215  O47   A    
C75   C84   A    
Cu5   O56   S    
C155  H63   S    
C150  C167  S    
C205  O6    A    
C34   N46   A    
C67   H118  S    
C146  C174  S    
C232  C236  A    
C218  O51   A    
H4    N20   S    
C86   C97   A    
C206  O24   A    
C15   C37   A    
C90   N37   S    
C213  O42   A    
C81   C92   A    
C22   N10   S    
C181  H2    S    
C83   C98   A    
Cu8   Cu10  S    
C26   C222  A    
C64   C73   A    
C68   C149  A    
C42   C62   A    
C45   C226  A    
Cu2   O32   S    
C6    C244  A    
C9    C247  A    
C4    C242  A    
C178  N23   S    
Cu11  O37   S    
C83   C89   A    
C58   C199  A    
C120  C129  A    
C172  O3    A    
C200  H110  S    
C11   C33   A    
C209  O38   A    
C135  N41   S    
C102  C197  A    
C213  O33   A    
Cu6   O64   S    
C168  H97   S    
C2    C106  A    
H180  N17   S    
C80   C95   A    
C126  H123  S    
C171  H130  S    
Cu9   O28   S    
H6    N21   S    
H175  N14   S    
C59   C200  A    
C60   C192  A    
C163  H88   S    
C37   N46   A    
C36   N47   A    
C209  O29   A    
C64   H115  S    
C162  H80   S    
C24   C108  A    
C170  H119  S    
C116  C125  A    
C45   C65   A    
C237  N18   S    
C2    C142  A    
C187  H57   S    
H14   N25   S    
C118  C127  A    
C23   N11   S    
C122  C131  A    
C207  O27   A    
C117  C126  A    
H38   N37   S    
C30   N44   A    
C132  C141  A    
C90   C168  S    
H155  N4    S    
C105  C115  A    
C52   C193  A    
C153  H60   S    
C35   C109  A    
H39   N38   S    
C43   C50   A    
H148  N48   S    
C94   O11   S    
C7    C245  A    
Cu4   O26   S    
C112  C117  S    
H15   N26   S    
Cu6   O4    S    
C104  C201  A    
C218  O49   A    
C231  C244  A    
C183  O34   A    
H7    N21   S    
C219  C222  S    
Cu8   O38   S    
C82   C88   A    
C124  N40   S    
C122  C216  S    
C62   C71   A    
C103  C200  A    
H12   N25   S    
C94   N1    A    
C216  O62   A    
C211  O40   A    
C156  H72   S    
C9    C18   A    
C176  C180  A    
C93   N12   A    
C152  C153  S    
C43   C67   A    
C151  H53   S    
C150  C151  S    
H156  N5    S    
C134  H132  S    
C79   C238  S    
H18   N27   S    
C40   C230  A    
C140  C149  A    
Cu1   O12   S    
C109  C171  S    
C248  N29   S    
C145  C211  S    
C42   C232  A    
C61   C70   A    
C141  C238  A    
C76   N7    S    
C111  C174  S    
C121  C205  S    
C102  C195  A    
C211  O31   A    
C161  C162  S    
C161  H83   S    
H160  N7    S    
C100  C193  A    
C217  C220  S    
C15   C19   A    
Cu5   O62   S    
Cu7   O6    S    
C159  C171  S    
C137  C145  A    
C86   C91   A    
H31   N33   S    
Cu9   O46   S    
H44   N40   S    
H29   N32   S    
C111  C121  A    
C198  H107  S    
H151  N3    S    
C92   N1    A    
C239  C247  A    
C167  H1    S    
C166  H92   S    
C112  O12   A    
C103  C204  S    
C51   C91   A    
C46   C135  S    
C100  C202  S    
Cu1   O34   S    
C193  H103  S    
C228  C241  A    
C163  C164  S    
C217  O46   A    
H42   N39   S    
Cu4   O35   S    
C101  C169  S    
C185  H35   S    
C104  C206  S    
C175  H163  S    
C137  H134  S    
C47   C66   A    
C72   C81   A    
C25   C184  A    
C13   C107  A    
H176  N15   S    
C130  H127  S    
C8    C246  A    
Cu1   Cu6   S    
C99   O17   S    
C82   C93   A    
C57   C146  S    
C49   C88   A    
C159  H78   S    
C95   O13   S    
C158  H70   S    
C130  C139  A    
H161  N7    S    
C152  C168  S    
C214  O35   A    
C5    N32   S    
C195  H104  S    
C226  C240  A    
H182  N18   S    
Cu6   O2    S    
C32   O55   S    
C14   C20   A    
C54   C196  A    
H33   N35   S    
C38   O61   S    
H3    N19   S    
C135  H144  S    
C93   O10   S    
C133  H131  S    
C85   C89   A    
C47   C51   A    
Cu7   O8    S    
C162  H81   S    
C202  O18   A    
C154  C169  S    
Cu10  O20   S    
C172  O23   A    
C103  C198  A    
H16   N26   S    
C229  C235  A    
H153  N3    S    
C146  N42   S    
H11   N24   S    
H154  N4    S    
C174  H152  S    
C50   C89   A    
C159  C160  S    
C118  C172  S    
C128  H125  S    
Cu3   O33   S    
C31   O54   S    
H157  N5    S    
C79   N36   S    
C186  H46   S    
C191  N46   S    
C5    C14   A    
H28   N32   S    
C166  H93   S    
C27   N15   S    
C178  C187  A    
C114  C175  S    
C25   N13   S    
C163  H89   S    
C53   C195  A    
Cu8   O27   S    
C79   H138  S    
C12   C34   A    
C68   C157  S    
C73   C82   A    
C109  C119  A    
H165  N9    S    
C150  H55   S    
C29   C223  A    
C158  H69   S    
C23   C220  A    
C30   O53   S    
C34   O58   S    
C84   C99   A    
C204  O22   A    
H10   N24   S    
C202  O20   A    
C177  N12   S    
C19   C235  A    
C194  O45   A    
C115  C183  S    
C17   C233  A    
Cu10  O36   S    
C72   N3    S    
C90   H139  S    
C215  O44   A    
C8    C30   A    
C6    N33   S    
C99   N34   A    
C136  C144  A    
C96   N23   A    
C14   C36   A    
C124  C171  S    
Cu3   O51   S    
C243  N24   S    
C24   C144  A    
C173  H141  S    
C66   C75   A    
C12   C19   A    
Cu2   O24   S    
Cu5   O45   S    
C237  C246  A    
C203  O19   A    
C139  C148  A    
C13   C143  A    
C154  H66   S    
C124  H143  S    
Cu9   O39   S    
C60   C201  A    
C165  H95   S    
C189  N44   S    
C227  O63   A    
C63   C72   A    
H23   N30   S    
C57   C148  A    
C106  C116  A    
C38   N47   A    
C240  C248  A    
C63   H114  S    
C1    O1    A    
C107  C117  A    
H166  N9    S    
C40   C49   A    
C39   C48   A    
C113  H142  S    
Cu8   O18   S    
H184  N19   S    
C165  C166  S    
C131  H128  S    
C183  O4    A    
C70   C78   A    
C7    N35   S    
C207  O36   A    
C201  H111  S    
C224  C233  A    
C4    N31   S    
C54   H96   S    
C148  C213  S    
C141  C207  S    
C119  C227  S    
C247  N28   S    
C190  N45   S    
C160  H75   S    
H170  N11   S    
C101  N38   S    
H162  N8    S    
H167  N10   S    
C112  O2    A    
C196  H105  S    
C22   C181  A    
C177  C181  A    
C58   H100  S    
C10   C17   A    
C161  C173  S    
C157  N43   S    
C192  N47   S    
C232  C245  A    
H41   N39   S    
Cu7   O7    S    
H34   N36   S    
C216  O7    A    
C149  C214  S    
C219  O50   A    
C230  C243  A    
C53   H90   S    
C178  C185  A    
C21   C180  A    
C129  C138  A    
C46   C147  A    
C56   H99   S    
C21   N9    S    
C164  H85   S    
C105  C238  A    
H17   N27   S    
H168  N10   S    
C1    C116  S    
C152  H62   S    
C224  C237  A    
C228  C234  A    
C184  H24   S    
H49   N42   S    
Cu2   O43   S    
C205  O56   A    
C6    C15   A    
C60   H102  S    
C24   C113  S    
H45   N41   S    
H158  N6    S    
C176  N1    S    
H177  N15   S    
C3    N30   S    
H25   N30   S    
C71   C80   A    
C65   H116  S    
Cu8   O44   S    
H27   N31   S    
H19   N28   S    
C71   N2    S    
H37   N37   S    
H43   N40   S    
C241  N21   S    
C75   N6    S    
H51   N43   S    
C44   C69   A    
C212  O32   A    
C153  H59   S    
C110  C120  A    
Cu5   Cu7   S    
C44   C225  A    
C155  H64   S    
H159  N6    S    
C33   O57   S    
C203  O21   A    
Cu9   Cu11  S    
C27   C186  A    
C106  C168  S    
C128  C137  A    
C32   N44   A    
C31   N45   A    
H32   N35   S    
C138  C147  A    
C219  O52   A    
C97   O15   S    
C81   C87   A    
C140  H137  S    
C25   C221  A    
C59   H101  S    
C157  C175  S    
C44   C51   A    
C77   C86   A    
C104  C199  A    
C113  N39   S    
C10   C248  A    
C13   C101  S    
C33   N45   A    
C29   N17   S    
C98   N23   A    
C204  O25   A    
C125  C133  A    
C7    C16   A    
C62   H113  S    
Cu12  O22   S    
C95   N12   A    
C217  O48   A    
C231  C235  A    
C165  C175  S    
C39   C63   A    
Cu7   O5    S    
C165  H94   S    
C43   C224  A    
H8    N22   S    
H20   N28   S    
C164  H87   S    
C41   C48   A    
H150  N2    S    
C9    C31   A    
C42   C49   A    
C114  C122  A    
C10   C32   A    
C151  H52   S    
Cu3   O40   S    
C139  H136  S    
C16   C38   A    
C227  O8    A    
H172  N13   S    
C40   C64   A    
C67   C76   A    
C69   H120  S    
C157  H146  S    
C163  C174  S    
H40   N38   S    
C68   C114  A    
H26   N31   S    
