data_mof_unit_45832.cif
_audit_creation_date              2013-03-05T15:46:12-0500
_audit_creation_method            fapswitch 2.2
_symmetry_space_group_name_H-M    P1
_symmetry_Int_Tables_number       1
_space_group_crystal_system       triclinic
_cell_length_a                    10.201165
_cell_length_b                    10.653096
_cell_length_c                    12.839573
_cell_angle_alpha                 91.146935
_cell_angle_beta                  91.416985
_cell_angle_gamma                 95.197314
_cell_volume                      1388.81884493

loop_
_atom_site_label
_atom_site_type_symbol
_atom_site_description
_atom_site_fract_x
_atom_site_fract_y
_atom_site_fract_z
_atom_type_partial_charge
O1    O     O_R   0.567930 0.307680 0.508550 -0.549488
O2    O     O_R   0.432070 0.692320 0.491450 -0.549112
O3    O     O_R   0.351090 0.340020 0.481290 -0.600013
O4    O     O_R   0.648910 0.659980 0.518710 -0.608344
C1    C     C_R   0.445369 0.265996 0.490554 0.842770
C2    C     C_R   0.555424 0.733407 0.504531 0.845016
O5    O     O_R   0.590490 0.486480 0.665020 -0.620053
O6    O     O_R   0.409510 0.513520 0.334980 -0.603042
O7    O     O_R   0.373660 0.518820 0.637760 -0.546700
O8    O     O_R   0.626340 0.481180 0.362240 -0.545459
C3    C     C_R   0.475785 0.509805 0.698206 0.911091
C4    C     C_R   0.524788 0.491665 0.301550 0.900144
Zn1   Zn    Zn3+2 0.644780 0.478400 0.518200 1.120428
Zn2   Zn    Zn3+2 0.355220 0.521600 0.481800 1.132397
C5    C     C_R   0.539257 0.481283 0.190615 -0.064680
C6    C     C_R   0.463114 0.523674 0.808802 -0.062434
C7    C     C_R   0.382018 0.618223 0.963930 -0.258524
C8    C     C_R   0.623868 0.391466 0.034823 -0.265542
C9    C     C_R   0.385339 0.611935 0.855635 -0.030243
C10   C     C_R   0.622870 0.398734 0.142907 -0.031508
C11   C     C_R   0.539141 0.449073 0.869166 -0.249151
C12   C     C_R   0.461510 0.555087 0.130535 -0.239318
C13   C     C_R   0.541612 0.461634 0.975782 0.178970
C14   C     C_R   0.461045 0.545044 0.023575 0.177339
H1    H     H_    0.400080 0.620304 0.167350 0.194934
H2    H     H_    0.598642 0.381805 0.832709 0.188266
H3    H     H_    0.322362 0.684125 0.001826 0.155432
H4    H     H_    0.685914 0.327989 0.996538 0.154182
H5    H     H_    0.433216 0.881469 0.388700 0.216836
H6    H     H_    0.609059 0.116593 0.421142 0.264641
C15   C     C_2   0.416033 0.130331 0.474557 -0.254639
C16   C     C_2   0.589539 0.867852 0.498494 -0.203783
C17   C     C_2   0.515479 0.067013 0.439837 -0.070723
C18   C     C_2   0.511519 0.931310 0.436525 -0.105599
N1    N     N_2   0.162330 0.550370 0.457540 -0.041095
N2    N     N_2   0.837670 0.449630 0.542460 -0.059024
C19   C     C_2   0.073293 0.508803 0.522739 0.312235
C20   C     C_2   0.931205 0.527225 0.506468 0.288060
C21   C     C_2   0.705850 0.314064 0.199662 0.499313
H7    H     H_    0.796731 0.288953 0.165846 0.097755
O9    O     O_2   0.670666 0.265147 0.280491 -0.575177
C22   C     C_2   0.313571 0.704502 0.797335 0.500426
H8    H     H_    0.227239 0.740442 0.830712 0.093331
O10   O     O_2   0.353652 0.747457 0.715424 -0.551127
C23   C     C_2   0.702256 0.924984 0.564628 0.549481
H9    H     H_    0.746104 0.868228 0.623035 0.085024
O11   O     O_2   0.749376 0.033043 0.553989 -0.471791
C24   C     C_2   0.282929 0.071610 0.500980 0.509692
H10   H     H_    0.209240 0.131141 0.527762 0.146918
O12   O     O_2   0.253515 0.958053 0.494127 -0.483963
N3    N     N_R   0.899792 0.643914 0.462650 0.202673
O13   O     O_R   0.957342 0.749471 0.500759 -0.351340
O14   O     O_R   0.840336 0.643698 0.371924 -0.325500
N4    N     N_R   0.112801 0.460006 0.620717 0.209580
O15   O     O_R   0.071912 0.508272 0.706579 -0.398223
O16   O     O_R   0.160255 0.350885 0.623409 -0.358223
N5    N     N_R   0.866780 0.329048 0.568824 0.312050
O17   O     O_R   0.809502 0.275865 0.648035 -0.296259
O18   O     O_R   0.924741 0.259744 0.502602 -0.318429
N6    N     N_R   0.122035 0.572338 0.355593 0.302391
O19   O     O_R   0.184562 0.662767 0.305091 -0.329919
O20   O     O_R   0.046344 0.486877 0.303389 -0.372951

loop_
_geom_bond_atom_site_label_1
_geom_bond_atom_site_label_2
_geom_bond_distance
_ccdc_geom_bond_type
C2    C16   1.447057 S    
O7    Zn2   2.007699 S    
C15   C17   1.348025 D    
C6    C11   1.392984 A    
C11   H2    1.086514 S    
C3    C6    1.434947 S    
C9    C22   1.483919 S    
O6    C4    1.300732 A    
C13   C14   1.406077 A    
N2    C20   1.304410 D    
C17   C18   1.442301 S    
N3    O13   1.301055 A    
C21   O9    1.218035 D    
C23   H9    1.085638 S    
O5    C3    1.298305 A    
O7    C3    1.295379 A    
N5    O17   1.299707 A    
O2    C2    1.300029 A    
O3    Zn2   1.930905 S    
C22   O10   1.220370 D    
C6    C9    1.418184 A    
O1    C1    1.301830 A    
C19   N4    1.433280 S    
O8    C4    1.295140 A    
C12   C14   1.375196 A    
C24   O12   1.220608 D    
C24   H10   1.084414 S    
C7    C9    1.392125 A    
C19   C20   1.490407 S    
N2    N5    1.390840 S    
C4    C5    1.438715 S    
C8    C10   1.388708 A    
C15   C24   1.492474 S    
C11   C13   1.372145 A    
C5    C10   1.419946 A    
O2    Zn2   1.914542 S    
N4    O16   1.299859 A    
N5    O18   1.302482 A    
C7    C14   1.396915 A    
O1    Zn1   1.914540 S    
C22   H8    1.085833 S    
C21   H7    1.086176 S    
C8    C13   1.393690 A    
C7    H3    1.085521 S    
O3    C1    1.302494 A    
O5    Zn1   1.980286 S    
C8    H4    1.085898 S    
Zn1   N2    2.036071 S    
N6    O20   1.302667 A    
O4    C2    1.298748 A    
C16   C23   1.489237 S    
C23   O11   1.218270 D    
Zn2   N1    2.036070 S    
C10   C21   1.481652 S    
N4    O15   1.301013 A    
N1    N6    1.392903 S    
O6    Zn2   1.980286 S    
C20   N3    1.433794 S    
H6    C17   1.083038 S    
N1    C19   1.304380 D    
H5    C18   1.087607 S    
C12   H1    1.085915 S    
C5    C12   1.396152 A    
N3    O14   1.299821 A    
O4    Zn1   1.930905 S    
N6    O19   1.299798 A    
C1    C15   1.458497 S    
O8    Zn1   2.007701 S    
C16   C18   1.345809 D    
