data_mof_unit_51826.cif
_audit_creation_date              2012-10-26T19:03:47-0400
_audit_creation_method            fapswitch 2.2
_symmetry_space_group_name_H-M    P1
_symmetry_Int_Tables_number       1
_space_group_crystal_system       triclinic
_cell_length_a                    15.891575
_cell_length_b                    13.010725
_cell_length_c                    11.674726
_cell_angle_alpha                 99.682142
_cell_angle_beta                  93.912255
_cell_angle_gamma                 90.486563
_cell_volume                      2373.45934346

loop_
_atom_site_label
_atom_site_type_symbol
_atom_type_description
_atom_site_fract_x
_atom_site_fract_y
_atom_site_fract_z
_atom_type_partial_charge
C1    C     C_R   0.498285 0.298994 0.479184 0.569798
C2    C     C_R   0.495876 0.185389 0.468639 0.015149
C3    C     C_R   0.521065 0.016797 0.355702 -0.119653
C4    C     C_R   0.340242 0.499613 0.500185 0.578010
C5    C     C_R   0.516936 0.124161 0.364486 -0.150421
C6    C     C_R   0.474616 0.137608 0.563277 0.297023
C7    C     C_R   0.467021 0.028186 0.548475 -0.003468
C8    C     C_R   0.498221 0.968813 0.447864 -0.038234
C9    C     C_R   0.507195 0.862104 0.440637 -0.174035
C10   C     C_R   0.450110 0.869916 0.630143 0.255983
C11   C     C_R   0.432656 0.976076 0.632604 0.255605
C12   C     C_3   0.953403 0.412796 0.579042 0.180074
C13   C     C_R   0.419957 0.402947 0.021267 -0.142943
C14   C     C_R   0.426240 0.412905 0.144454 0.434113
C15   C     C_R   0.534822 0.541778 0.156945 0.007647
C16   C     C_R   0.497771 0.700678 0.521294 0.575164
C17   C     C_R   0.528981 0.535220 0.034254 -0.046376
C18   C     C_R   0.470668 0.465158 0.965762 -0.057410
C19   C     C_R   0.464529 0.459035 0.843129 0.010446
C20   C     C_R   0.574635 0.585793 0.855439 0.420206
C21   C     C_R   0.580390 0.596522 0.978615 -0.158785
C22   C     C_R   0.659830 0.500130 0.499882 0.537414
C23   C     C_3   0.917218 0.494470 0.504625 -0.020922
C24   C     C_3   0.053320 0.410935 0.580140 0.418493
C25   C     C_3   0.042413 0.460906 0.376196 -0.209189
C26   C     C_3   0.944226 0.464520 0.376704 0.122230
C27   C     C_1   0.749338 0.498889 0.500146 0.025760
C28   C     C_3   0.083540 0.494139 0.502145 -0.042932
C29   C     C_3   0.107520 0.518221 0.762913 -0.068689
C30   C     C_3   0.482361 0.839839 0.813902 -0.054677
C31   C     C_3   0.542590 0.197296 0.739701 -0.064621
C32   C     C_3   0.710595 0.631265 0.827290 -0.100186
C33   C     C_3   0.291539 0.360925 0.171648 -0.094413
C34   C     C_3   0.954371 0.604669 0.554382 -0.285743
C35   C     C_3   0.894190 0.360882 0.202619 -0.080549
C36   C     C_3   0.051017 0.608384 0.543423 0.050189
C37   C     C_1   0.824849 0.497138 0.502057 0.039000
C38   C     C_1   0.175513 0.495982 0.500843 0.034184
C39   C     C_1   0.250893 0.497866 0.500461 0.060935
C40   C     C_R   0.487018 0.813152 0.532946 -0.024286
Cu1   Cu    Cu3+1 0.506190 0.507730 0.615930 1.064466
Cu2   Cu    Cu3+1 0.493810 0.492270 0.384070 1.018278
H1    H     H_    0.927768 0.336838 0.531241 0.209753
H2    H     H_    0.064325 0.512315 0.317053 0.166861
H3    H     H_    0.063740 0.383675 0.335079 0.170526
H4    H     H_    0.921671 0.527963 0.329036 0.152105
H5    H     H_    0.081707 0.643934 0.628034 0.128600
H6    H     H_    0.940702 0.628383 0.646584 0.172060
H7    H     H_    0.050274 0.565452 0.766649 0.157208
H8    H     H_    0.162961 0.557723 0.735439 0.112495
H9    H     H_    0.124357 0.507431 0.853819 0.168995
H10   H     H_    0.888257 0.523978 0.874758 0.358509
H11   H     H_    0.477824 0.921344 0.859570 0.152243
H12   H     H_    0.922044 0.662820 0.507903 0.152796
H13   H     H_    0.548274 0.824861 0.789756 0.134430
H14   H     H_    0.467806 0.787577 0.876154 0.154930
H15   H     H_    0.247487 0.981213 0.804530 0.375429
H16   H     H_    0.536297 0.247523 0.825247 0.155027
H17   H     H_    0.595800 0.229537 0.698521 0.127412
H18   H     H_    0.557690 0.117638 0.756660 0.108591
H19   H     H_    0.183141 0.269864 0.401741 0.331309
H20   H     H_    0.724982 0.547195 0.824387 0.166747
H21   H     H_    0.731771 0.677258 0.913532 0.103506
H22   H     H_    0.747767 0.659696 0.761423 0.168721
H23   H     H_    0.532582 0.817382 0.364111 0.137007
H24   H     H_    0.271752 0.313533 0.085628 0.136552
H25   H     H_    0.274327 0.444083 0.173743 0.120437
H26   H     H_    0.255372 0.331056 0.237511 0.139535
H27   H     H_    0.953355 0.377367 0.162628 0.129473
H28   H     H_    0.844054 0.415196 0.181413 0.110369
H29   H     H_    0.872447 0.280602 0.163615 0.176959
H30   H     H_    0.011041 0.832016 0.550295 0.342564
H31   H     H_    0.542290 0.971223 0.276838 0.127668
H32   H     H_    0.534303 0.159683 0.291703 0.155516
H33   H     H_    0.419167 0.405784 0.789843 0.178487
H34   H     H_    0.376449 0.346391 0.969222 0.141983
H35   H     H_    0.624486 0.652475 0.030411 0.089799
H36   H     H_    0.579799 0.595542 0.210277 0.120529
N1    N     N_R   0.515490 0.519350 0.790130 -0.219857
N2    N     N_R   0.484510 0.480650 0.209890 -0.217164
O1    O     O_R   0.504390 0.354460 0.582000 -0.480637
O2    O     O_2   0.820323 0.369245 0.696452 -0.301480
O3    O     O_2   0.959341 0.346861 0.788943 -0.205906
O4    O     O_3   0.903671 0.534797 0.796803 -0.605104
O5    O     O_3   0.423494 0.818661 0.716334 -0.489490
O6    O     O_2   0.396913 0.089547 0.838469 -0.312613
O7    O     O_2   0.305595 0.111658 0.666687 -0.167074
O8    O     O_3   0.287744 0.942715 0.752812 -0.436169
O9    O     O_3   0.465730 0.197782 0.671259 -0.499940
O10   O     O_2   0.070190 0.209142 0.607569 -0.122494
O11   O     O_2   0.027177 0.232680 0.410585 -0.294142
O12   O     O_R   0.493940 0.341410 0.386200 -0.467462
O13   O     O_3   0.183677 0.272224 0.487003 -0.472570
O14   O     O_3   0.624308 0.646999 0.799592 -0.561022
O15   O     O_3   0.378384 0.349473 0.200125 -0.520988
O16   O     O_3   0.907485 0.366520 0.324298 -0.544332
O17   O     O_2   0.166724 0.691652 0.418767 -0.226453
O18   O     O_2   0.018800 0.698058 0.347885 -0.306326
O19   O     O_3   0.071460 0.824269 0.535390 -0.423498
O20   O     O_R   0.384660 0.506540 0.597940 -0.494740
O21   O     O_R   0.374210 0.493480 0.402140 -0.469877
O22   O     O_R   0.506060 0.658590 0.613800 -0.430200
O23   O     O_R   0.495610 0.645540 0.418000 -0.527060
O24   O     O_R   0.625790 0.506520 0.597860 -0.462632
O25   O     O_R   0.615340 0.493460 0.402060 -0.524148
O26   O     O_3   0.093686 0.419026 0.695099 -0.472497
S1    S     S_3+6 0.908486 0.414351 0.718712 -0.008981
S2    S     S_3+6 0.355060 0.034512 0.725140 0.090522
S3    S     S_3+6 0.081765 0.277681 0.517980 0.094174
S4    S     S_3+6 0.078041 0.704891 0.455097 0.012397

loop_
_geom_bond_atom_site_label_1
_geom_bond_atom_site_label_2
_ccdc_geom_bond_type
C32   O14   S    
C10   O5    S    
Cu2   N2    S    
O18   S4    D    
Cu1   Cu2   S    
Cu2   O23   S    
C7    C8    A    
C29   H7    S    
C35   O16   S    
C25   C28   S    
C7    C11   A    
C12   C23   S    
C13   C18   A    
C31   H16   S    
C18   C19   A    
C12   H1    S    
C38   C39   T    
O8    S2    S    
H19   O13   S    
C15   H36   S    
C1    O1    A    
O4    S1    S    
C22   O24   A    
Cu1   O22   S    
C36   H5    S    
C10   C40   A    
C1    C2    S    
C23   C26   S    
C31   H17   S    
C5    H32   S    
H10   O4    S    
O7    S2    D    
C35   H28   S    
C8    C9    A    
C31   O9    S    
C13   H34   S    
C14   N2    A    
Cu2   O12   S    
C35   H29   S    
C13   C14   A    
C2    C6    A    
C33   O15   S    
C25   H2    S    
C33   H24   S    
C29   H8    S    
C26   O16   S    
C30   H11   S    
C32   H22   S    
C3    C8    A    
C25   C26   S    
C23   C37   S    
O19   S4    S    
C30   H14   S    
C9    C40   A    
C17   C21   A    
C31   H18   S    
C16   O23   A    
C15   N2    A    
C4    C39   S    
C28   C38   S    
C23   C34   S    
Cu1   O1    S    
C4    O21   A    
C17   C18   A    
Cu1   O20   S    
O2    S1    D    
C30   O5    S    
C19   N1    A    
C28   C36   S    
C16   C40   S    
C16   O22   A    
C34   H12   S    
C1    O12   A    
C22   C27   S    
C4    O20   A    
C36   S4    S    
C29   O26   S    
C2    C5    A    
C24   O26   S    
C22   O25   A    
Cu2   O21   S    
C25   H3    S    
C14   O15   S    
C33   H25   S    
C29   H9    S    
C15   C17   A    
C20   O14   S    
C20   N1    A    
O6    S2    D    
C24   S3    S    
C24   C28   S    
C32   H21   S    
C3    C5    A    
Cu1   N1    S    
C12   S1    S    
Cu1   O24   S    
C6    C7    A    
C6    O9    S    
C30   H13   S    
C12   C24   S    
H15   O8    S    
O11   S3    D    
C19   H33   S    
C32   H20   S    
O17   S4    D    
C27   C37   T    
O3    S1    D    
C34   C36   S    
C3    H31   S    
Cu2   O25   S    
C9    H23   S    
C10   C11   A    
C26   H4    S    
C34   H6    S    
C20   C21   A    
C35   H27   S    
C21   H35   S    
C11   S2    S    
O10   S3    D    
C33   H26   S    
O13   S3    S    
H30   O19   S    
