data_mof_unit_6742.cif
_audit_creation_date              2012-10-26T19:06:31-0400
_audit_creation_method            fapswitch 2.2
_symmetry_space_group_name_H-M    P1
_symmetry_Int_Tables_number       1
_space_group_crystal_system       triclinic
_cell_length_a                    12.400634
_cell_length_b                    13.207356
_cell_length_c                    14.360981
_cell_angle_alpha                 76.640775
_cell_angle_beta                  101.62661
_cell_angle_gamma                 116.650106
_cell_volume                      2032.27549159

loop_
_atom_site_label
_atom_site_type_symbol
_atom_type_description
_atom_site_fract_x
_atom_site_fract_y
_atom_site_fract_z
_atom_type_partial_charge
C1    C     C_R   0.852374 0.284674 0.510144 0.535762
C2    C     C_R   0.436698 0.974880 0.433697 -0.027953
C3    C     C_R   0.392977 0.057574 0.385551 0.027057
C4    C     C_R   0.000956 0.499800 0.668902 0.527693
C5    C     C_R   0.480409 0.168018 0.357803 -0.037294
C6    C     C_R   0.584765 0.204038 0.423488 0.271478
C7    C     C_R   0.353110 0.865758 0.470463 -0.157039
C8    C     C_R   0.187421 0.924972 0.424345 0.026742
C9    C     C_R   0.763145 0.159538 0.508843 -0.006875
C10   C     C_R   0.394996 0.432989 0.687316 0.266645
C11   C     C_R   0.736919 0.612459 0.355541 0.110015
C12   C     C_1   0.997792 0.500944 0.228306 -0.033067
C13   C     C_R   0.620991 0.595597 0.311168 -0.078604
C14   C     C_R   0.522840 0.539476 0.362803 0.202067
C15   C     C_R   0.543682 0.519055 0.464366 -0.062381
C16   C     C_R   0.145364 0.714401 0.486252 0.541768
C17   C     C_R   0.660334 0.520548 0.507094 0.131917
C18   C     C_R   0.453273 0.493214 0.524862 -0.122183
C19   C     C_R   0.485640 0.481521 0.625460 0.079929
C20   C     C_R   0.607714 0.510497 0.662149 0.236835
C21   C     C_R   0.677494 0.491227 0.609178 0.007518
C22   C     C_R   0.335276 0.488178 0.491272 0.005100
C23   C     C_R   0.268688 0.033371 0.382250 0.252945
C24   C     C_R   0.273222 0.399888 0.646521 0.134557
C25   C     C_R   0.999327 0.500587 0.331058 0.541365
C26   C     C_1   0.002501 0.499546 0.771624 -0.058873
C27   C     C_1   0.002027 0.499655 0.856951 -0.045858
C28   C     C_1   0.000564 0.500033 0.957349 0.011069
C29   C     C_1   0.999224 0.500426 0.042475 0.015660
C30   C     C_1   0.998003 0.500828 0.142923 -0.026251
C31   C     C_3   0.063721 0.911195 0.439048 -0.338896
C32   C     C_3   0.836019 0.686163 0.291626 -0.346595
C33   C     C_3   0.688196 0.380694 0.658328 -0.300431
C34   C     C_R   0.228388 0.837475 0.462005 -0.040584
C35   C     C_3   0.459949 0.252291 0.273758 -0.381445
C36   C     C_3   0.909881 0.092662 0.626659 -0.388375
C37   C     C_3   0.559658 0.823696 0.424739 -0.392509
C38   C     C_3   0.784130 0.868583 0.561589 -0.384986
C39   C     C_3   0.175474 0.320260 0.709658 -0.351873
C40   C     C_R   0.800323 0.069828 0.552127 -0.008755
C41   C     C_R   0.732887 0.957907 0.527595 0.041244
C42   C     C_R   0.618514 0.930515 0.472067 0.008322
C43   C     C_R   0.565202 0.009074 0.453862 -0.006350
C44   C     C_R   0.640369 0.126726 0.461632 0.031782
Cu1   Cu    Cu3+1 0.098280 0.475420 0.520190 0.917246
Cu2   Cu    Cu3+1 0.901720 0.524580 0.479810 0.932766
H1    H     H_    0.314940 0.529630 0.420570 0.192098
H2    H     H_    0.828679 0.768503 0.261227 0.084565
H3    H     H_    0.928102 0.709363 0.327830 0.187321
H4    H     H_    0.359265 0.426005 0.343032 0.317385
H5    H     H_    0.738580 0.353475 0.624204 0.208768
H6    H     H_    0.733075 0.387580 0.733212 0.120912
H7    H     H_    0.596129 0.308676 0.661866 0.148519
H8    H     H_    0.538569 0.291623 0.231226 0.141730
H9    H     H_    0.377720 0.209011 0.224964 0.186066
H10   H     H_    0.451832 0.321711 0.298334 0.146801
H11   H     H_    0.283192 0.185312 0.379107 0.315900
H12   H     H_    0.606221 0.623205 0.234310 0.142576
H13   H     H_    0.909577 0.014347 0.675469 0.126379
H14   H     H_    0.993986 0.133563 0.590598 0.154463
H15   H     H_    0.908563 0.146613 0.674847 0.120595
H16   H     H_    0.529014 0.745478 0.479984 0.134352
H17   H     H_    0.481304 0.822388 0.370917 0.148802
H18   H     H_    0.625616 0.821448 0.384058 0.138551
H19   H     H_    0.780227 0.839312 0.640253 0.143363
H20   H     H_    0.735318 0.790564 0.527448 0.130455
H21   H     H_    0.879639 0.906330 0.545773 0.121473
H22   H     H_    0.526945 0.304474 0.458555 0.312935
H23   H     H_    0.385716 0.803310 0.511128 0.155468
H24   H     H_    0.173863 0.362457 0.767509 0.118005
H25   H     H_    0.086586 0.292733 0.668434 0.179256
H26   H     H_    0.190242 0.242004 0.742457 0.108900
H27   H     H_    0.997876 0.883573 0.375406 0.137739
H28   H     H_    0.031207 0.851216 0.505815 0.133397
H29   H     H_    0.067236 0.993308 0.449661 0.165801
H30   H     H_    0.736368 0.553374 0.767407 0.316414
H31   H     H_    0.364899 0.403363 0.821633 0.319381
H32   H     H_    0.824851 0.642489 0.230542 0.129538
N1    N     N_R   0.246290 0.438200 0.550780 -0.250105
N2    N     N_R   0.754310 0.561180 0.449760 -0.203589
O1    O     O_R   0.972510 0.318130 0.525390 -0.509947
O2    O     O_3   0.426140 0.406579 0.785066 -0.637947
O3    O     O_3   0.409832 0.503843 0.310771 -0.718746
O4    O     O_3   0.226814 0.117410 0.348522 -0.715537
O5    O     O_3   0.593387 0.279164 0.479958 -0.699434
O6    O     O_R   0.806530 0.359650 0.491290 -0.432718
O7    O     O_R   0.083010 0.479240 0.641000 -0.486676
O8    O     O_R   0.917030 0.520750 0.606900 -0.491847
O9    O     O_R   0.193470 0.640350 0.508710 -0.492878
O10   O     O_R   0.027490 0.681870 0.474610 -0.513787
O11   O     O_R   0.082970 0.479250 0.393100 -0.472770
O12   O     O_R   0.916990 0.520760 0.359000 -0.490973
O13   O     O_3   0.646900 0.527081 0.756905 -0.631259

loop_
_geom_bond_atom_site_label_1
_geom_bond_atom_site_label_2
_ccdc_geom_bond_type
C15   C18   A    
C20   O13   S    
C16   O10   A    
C41   C42   A    
C3    C23   A    
C2    C7    A    
C36   H13   S    
C24   C39   S    
C37   H16   S    
C4    O7    A    
Cu1   Cu2   S    
C33   H6    S    
C26   C27   T    
C6    O5    S    
C28   C29   T    
Cu1   O7    S    
C22   N1    A    
C5    C6    A    
C31   H27   S    
Cu2   O12   S    
C1    O1    A    
C8    C23   A    
C18   C19   A    
C37   C42   S    
C16   C34   S    
C38   H20   S    
C9    C44   A    
C39   H26   S    
Cu1   O9    S    
C10   C19   A    
C22   H1    S    
C16   O9    A    
C6    C44   A    
C13   C14   A    
C35   H8    S    
H22   O5    S    
C32   H2    S    
C14   O3    S    
C37   H17   S    
H4    O3    S    
Cu2   O8    S    
C33   H7    S    
C25   O11   A    
C23   O4    S    
C35   H9    S    
C36   C40   S    
C1    C9    S    
C38   C41   S    
C31   H28   S    
C13   H12   S    
C10   C24   A    
C10   O2    S    
C9    C40   A    
C17   C21   A    
C43   C44   A    
C29   C30   S    
H30   O13   S    
C24   N1    A    
C31   H29   S    
C38   H19   S    
C2    C43   A    
H11   O4    S    
Cu1   N1    S    
C8    C34   A    
C38   H21   S    
C4    O8    A    
C40   C41   A    
C11   C32   S    
C7    C34   A    
C42   C43   A    
C36   H15   S    
C37   H18   S    
C1    O6    A    
C15   C17   A    
C25   O12   A    
C39   H25   S    
C12   C30   T    
C35   H10   S    
C18   C22   A    
C8    C31   S    
Cu1   O1    S    
C3    C5    A    
C7    H23   S    
C4    C26   S    
Cu2   O10   S    
C33   H5    S    
C12   C25   S    
C19   C20   A    
C2    C3    A    
Cu2   N2    S    
C11   C13   A    
H31   O2    S    
C5    C35   S    
C39   H24   S    
C17   N2    A    
Cu1   O11   S    
C32   H3    S    
C11   N2    A    
C32   H32   S    
C21   C33   S    
C20   C21   A    
C27   C28   S    
C36   H14   S    
C14   C15   A    
Cu2   O6    S    
