data_mof_unit_52349.cif
_audit_creation_date              2012-12-11T15:26:56-0500
_audit_creation_method            fapswitch 2.2
_symmetry_space_group_name_H-M    P1
_symmetry_Int_Tables_number       1
_space_group_crystal_system       triclinic
_cell_length_a                    13.927287
_cell_length_b                    13.982417
_cell_length_c                    27.392443
_cell_angle_alpha                 89.868156
_cell_angle_beta                  89.64118
_cell_angle_gamma                 119.953016
_cell_volume                      4621.66596066

loop_
_atom_site_label
_atom_site_type_symbol
_atom_type_description
_atom_site_fract_x
_atom_site_fract_y
_atom_site_fract_z
_atom_type_partial_charge
C1    C     C_R   0.234457 0.786388 0.568703 0.537950
C2    C     C_R   0.213369 0.449080 0.569217 0.538248
C3    C     C_R   0.550949 0.764526 0.569164 0.537252
C4    C     C_3   0.758084 0.816912 0.782777 -0.181907
C5    C     C_3   0.217690 0.976191 0.775771 -0.186082
C6    C     C_3   0.059173 0.320158 0.789655 -0.160926
C7    C     C_3   0.747393 0.813887 0.725637 0.260575
C8    C     C_3   0.227523 0.961493 0.719468 0.261698
C9    C     C_3   0.068739 0.350488 0.733973 0.258140
C10   C     C_1   0.700573 0.860702 0.860297 -0.078812
C11   C     C_1   0.119528 0.882995 0.851685 -0.081621
C12   C     C_1   0.157755 0.302813 0.860710 -0.084166
C13   C     C_1   0.620648 0.812183 0.659624 -0.032295
C14   C     C_1   0.182317 0.815064 0.656998 -0.032877
C15   C     C_1   0.191505 0.387842 0.660856 -0.035422
C16   C     C_1   0.594945 0.793797 0.617336 -0.021033
C17   C     C_1   0.202128 0.802597 0.615696 -0.021177
C18   C     C_1   0.199172 0.409157 0.618064 -0.016037
C19   C     C_R   0.107790 0.221413 0.949457 0.562041
C20   C     C_R   0.779494 0.886876 0.949236 0.543302
C21   C     C_R   0.092268 0.929258 0.941808 0.562620
C22   C     C_R   0.616499 0.810935 0.385624 -0.002493
C23   C     C_R   0.193043 0.807515 0.385424 -0.001692
C24   C     C_R   0.193593 0.388324 0.385538 0.000665
C25   C     C_R   0.609752 0.896416 0.362058 -0.111796
C26   C     C_R   0.098303 0.720861 0.363738 -0.118038
C27   C     C_R   0.229368 0.312060 0.377630 -0.088103
C28   C     C_R   0.630759 0.915233 0.312221 0.146384
C29   C     C_R   0.076897 0.725560 0.314365 0.146926
C30   C     C_R   0.215689 0.261720 0.331851 0.160570
C31   C     C_R   0.668286 0.852936 0.285757 0.060173
C32   C     C_R   0.149474 0.820291 0.287020 0.053257
C33   C     C_R   0.165291 0.289957 0.293882 0.034305
C34   C     C_R   0.233367 0.787634 0.431491 0.541841
C35   C     C_R   0.212921 0.446448 0.431565 0.540276
C36   C     C_R   0.555209 0.767449 0.431647 0.542766
C37   C     C_R   0.693440 0.781115 0.311989 -0.152969
C38   C     C_R   0.236922 0.910871 0.310005 -0.163944
C39   C     C_R   0.136560 0.371830 0.302048 -0.155730
C40   C     C_R   0.664517 0.757616 0.361113 -0.139180
C41   C     C_R   0.258896 0.904789 0.358892 -0.138315
C42   C     C_R   0.148441 0.418726 0.347423 -0.139376
C43   C     C_R   0.651438 0.756822 0.206607 -0.104352
C44   C     C_R   0.228196 0.852737 0.203220 -0.103072
C45   C     C_R   0.032778 0.208708 0.226924 -0.080728
C46   C     C_R   0.671229 0.758340 0.156114 0.142598
C47   C     C_R   0.222178 0.869047 0.152945 0.137988
C48   C     C_R   0.011138 0.190661 0.177381 0.135961
C49   C     C_R   0.705561 0.946041 0.153197 -0.176175
C50   C     C_R   0.030022 0.824094 0.166052 -0.162782
C51   C     C_R   0.188977 0.198982 0.166651 -0.153258
C52   C     C_R   0.699023 0.948198 0.203639 -0.104002
C53   C     C_R   0.038069 0.809841 0.215443 -0.111735
C54   C     C_R   0.214562 0.230438 0.215335 -0.143549
C55   C     C_R   0.674285 0.853978 0.231419 0.007182
C56   C     C_R   0.137678 0.826240 0.234317 0.016946
C57   C     C_R   0.136466 0.236321 0.245682 -0.005502
C58   C     C_R   0.709628 0.859153 0.130484 0.012438
C59   C     C_R   0.122264 0.857239 0.135004 0.026571
C60   C     C_R   0.088863 0.182267 0.146411 0.022907
C61   C     C_R   0.067161 0.155373 0.093954 0.563399
C62   C     C_R   0.774659 0.882435 0.084970 0.538663
C63   C     C_R   0.114422 0.892965 0.086069 0.547455
C64   C     C_3   0.540310 0.741197 0.741181 -0.234672
C65   C     C_3   0.209945 0.775138 0.741920 -0.239504
C66   C     C_3   0.277708 0.467324 0.741082 -0.202298
C67   C     C_3   0.670923 0.946295 0.729495 -0.019768
C68   C     C_3   0.038136 0.783371 0.719731 -0.023900
C69   C     C_3   0.196651 0.265013 0.724971 -0.018683
C70   C     C_3   0.697492 0.959394 0.785149 -0.186661
C71   C     C_3   0.024282 0.811995 0.773206 -0.192723
C72   C     C_3   0.184907 0.241524 0.780781 -0.191749
C73   C     C_1   0.730465 0.871669 0.902073 -0.024851
C74   C     C_1   0.106301 0.902219 0.893109 -0.018209
C75   C     C_1   0.140849 0.271408 0.902368 -0.027164
C76   C     C_3   0.644833 0.828649 0.712309 0.133695
C77   C     C_3   0.164629 0.833248 0.708001 0.130857
C78   C     C_3   0.182865 0.367237 0.713776 0.146497
C79   C     C_3   0.557903 0.757540 0.796998 -0.238944
C80   C     C_3   0.186109 0.787499 0.796179 -0.233284
C81   C     C_3   0.266397 0.445033 0.796976 -0.220880
C82   C     C_3   0.677952 0.848961 0.807603 0.020509
C83   C     C_3   0.136319 0.864472 0.800478 0.019187
C84   C     C_3   0.167723 0.328139 0.808347 0.022555
Cr1   Cr    Cr6+3 0.164410 0.584450 0.499910 1.017426
Cr2   Cr    Cr6+3 0.415550 0.579960 0.499910 1.022436
Cr3   Cr    Cr6+3 0.420040 0.835590 0.499910 1.015655
Cr4   Cr    Cr6+3 0.156760 0.076070 0.017830 1.015409
Cr5   Cr    Cr6+3 0.923930 0.080690 0.017830 0.995798
Cr6   Cr    Cr6+3 0.919310 0.843240 0.017830 1.017456
H1    H     H_    0.498376 0.780482 0.812771 0.117750
H2    H     H_    0.127287 0.704918 0.811903 0.126928
H3    H     H_    0.344653 0.452655 0.811108 0.120039
H4    H     H_    0.520455 0.656446 0.731524 0.112405
H5    H     H_    0.300162 0.809136 0.736206 0.103357
H6    H     H_    0.276763 0.544863 0.733069 0.123787
H7    H     H_    0.540539 0.678416 0.814413 0.115653
H8    H     H_    0.264376 0.821499 0.817248 0.116397
H9    H     H_    0.253454 0.508371 0.815638 0.119746
H10   H     H_    0.843827 0.877215 0.794076 0.100464
H11   H     H_    0.189409 0.036499 0.782705 0.102508
H12   H     H_    0.989062 0.234963 0.796264 0.097359
H13   H     H_    0.575390 0.940911 0.380778 0.133106
H14   H     H_    0.045633 0.645473 0.383886 0.126184
H15   H     H_    0.265845 0.290253 0.407375 0.120370
H16   H     H_    0.620591 0.680879 0.227083 0.105107
H17   H     H_    0.302601 0.860912 0.218819 0.097559
H18   H     H_    0.971020 0.211161 0.250389 0.123493
H19   H     H_    0.717804 0.025560 0.220054 0.180965
H20   H     H_    0.967952 0.790093 0.239171 0.142602
H21   H     H_    0.296288 0.253655 0.228557 0.119743
H22   H     H_    0.716518 0.016066 0.132171 0.115479
H23   H     H_    0.953228 0.815875 0.152594 0.151463
H24   H     H_    0.250201 0.193256 0.144217 0.140825
H25   H     H_    0.729314 0.737430 0.293869 0.105773
H26   H     H_    0.291413 0.984368 0.289181 0.106272
H27   H     H_    0.103151 0.398981 0.272996 0.103081
H28   H     H_    0.465390 0.745140 0.730729 0.103161
H29   H     H_    0.172469 0.686310 0.732836 0.135056
H30   H     H_    0.359806 0.481883 0.728293 0.145085
H31   H     H_    0.674227 0.693876 0.379047 0.132816
H32   H     H_    0.331642 0.973269 0.374840 0.136968
H33   H     H_    0.124803 0.481157 0.352386 0.133927
H34   H     H_    0.745165 0.008917 0.709410 0.146508
H35   H     H_    0.003599 0.821186 0.694827 0.173845
H36   H     H_    0.131386 0.191299 0.705892 0.119458
H37   H     H_    0.645779 0.987293 0.804866 0.143818
H38   H     H_    0.960599 0.737568 0.793215 0.140536
H39   H     H_    0.259355 0.241643 0.795467 0.140449
H40   H     H_    0.785407 0.024678 0.790422 0.087345
H41   H     H_    0.994695 0.872268 0.772548 0.101126
H42   H     H_    0.112900 0.157561 0.787672 0.077439
H43   H     H_    0.741734 0.735765 0.797467 0.105540
H44   H     H_    0.299777 0.011429 0.793799 0.105028
H45   H     H_    0.040352 0.375524 0.811806 0.118035
O1    O     O_R   0.137310 0.468260 0.552980 -0.506512
O2    O     O_R   0.531740 0.669050 0.552980 -0.503202
O3    O     O_R   0.330950 0.862690 0.552980 -0.504987
O4    O     O_R   0.180530 0.983530 0.965090 -0.506594
O5    O     O_R   0.016470 0.197000 0.965090 -0.502980
O6    O     O_R   0.803000 0.819470 0.965090 -0.517715
O7    O     O_R   0.174120 0.688790 0.549730 -0.502731
O8    O     O_R   0.311210 0.485330 0.549730 -0.501269
O9    O     O_R   0.514670 0.825880 0.549730 -0.500846
O10   O     O_R   0.139940 0.470480 0.446230 -0.516495
O11   O     O_R   0.529520 0.669460 0.446230 -0.513080
O12   O     O_R   0.330540 0.860060 0.446230 -0.521606
O13   O     O_R   0.176560 0.690850 0.450770 -0.508290
O14   O     O_R   0.309150 0.485710 0.450770 -0.501620
O15   O     O_R   0.514290 0.823440 0.450770 -0.508756
O16   O     O_3   0.333333 0.666667 0.499990 -0.267165
O17   O     O_3   0.000000 0.000000 0.017910 -0.266470
O18   O     O_R   0.149710 0.171070 0.967700 -0.509828
O19   O     O_R   0.828930 0.978640 0.967700 -0.499435
O20   O     O_R   0.021360 0.850290 0.967700 -0.488289
O21   O     O_R   0.178510 0.985930 0.071830 -0.506907
O22   O     O_R   0.014070 0.192580 0.071830 -0.513854
O23   O     O_R   0.807420 0.821490 0.071830 -0.494920
O24   O     O_R   0.147830 0.173300 0.066650 -0.494847
O25   O     O_R   0.826700 0.974530 0.066650 -0.532269
O26   O     O_R   0.025470 0.852170 0.066650 -0.498885
N1    N     N_2   0.655398 0.662012 0.130700 -0.497304
H46   H     H_    0.622711 0.652807 0.096200 0.257825
C85   C     C_3   0.618612 0.559116 0.156753 -0.317085
H47   H     H_    0.616641 0.496501 0.131283 0.141806
H48   H     H_    0.533754 0.527936 0.171767 0.137105
H49   H     H_    0.677341 0.570570 0.186440 0.148071
N2    N     N_2   0.314058 0.898955 0.120323 -0.508985
H50   H     H_    0.293372 0.873452 0.084722 0.255287
C86   C     C_3   0.411668 0.897572 0.137226 -0.312391
H51   H     H_    0.471819 0.919491 0.106587 0.142283
H52   H     H_    0.389201 0.813998 0.150872 0.141646
H53   H     H_    0.452947 0.960153 0.166128 0.151951
N3    N     N_2   0.913300 0.186972 0.160001 -0.532714
H54   H     H_    0.881298 0.144149 0.128536 0.279596
C87   C     C_3   0.915457 0.291557 0.160406 -0.309357
H55   H     H_    0.834383 0.279263 0.147897 0.133475
H56   H     H_    0.981641 0.351298 0.135454 0.166319
H57   H     H_    0.929953 0.326077 0.197854 0.135079
N4    N     N_2   0.602539 0.988742 0.289108 -0.545957
H58   H     H_    0.621953 0.058014 0.309469 0.242640
C88   C     C_3   0.490034 0.935785 0.271815 -0.331189
H59   H     H_    0.474431 0.998481 0.254435 0.128421
H60   H     H_    0.431052 0.896587 0.302736 0.154806
H61   H     H_    0.476262 0.871675 0.244505 0.159476
N5    N     N_2   0.985883 0.632818 0.292177 -0.530128
H62   H     H_    0.918983 0.586789 0.314984 0.240417
C89   C     C_3   0.013352 0.566206 0.260914 -0.308467
H63   H     H_    0.971419 0.554460 0.225311 0.155188
H64   H     H_    0.983899 0.483954 0.277989 0.116921
H65   H     H_    0.104115 0.605231 0.254132 0.152347
N6    N     N_2   0.249373 0.181520 0.325701 -0.518460
H66   H     H_    0.212244 0.126142 0.297758 0.259488
C90   C     C_3   0.367810 0.224808 0.328855 -0.317132
H67   H     H_    0.386695 0.157106 0.324753 0.128967
H68   H     H_    0.399372 0.263481 0.364918 0.152479
H69   H     H_    0.411917 0.286894 0.299542 0.131861
N7    N     N_3   0.581912 0.970630 0.719106 -0.669269
H70   H     H_    0.511586 0.920166 0.740113 0.227137
H71   H     H_    0.560572 0.957037 0.682255 0.248251
N8    N     N_3   0.972322 0.663463 0.712069 -0.679301
H72   H     H_    0.989975 0.620699 0.738512 0.237649
H73   H     H_    0.989244 0.643020 0.677656 0.241320
N9    N     N_3   0.305268 0.284792 0.707653 -0.650497
H74   H     H_    0.316794 0.220231 0.719375 0.249201
H75   H     H_    0.305237 0.282282 0.669520 0.237045
N10   N     N_3   0.730730 0.707647 0.707210 -0.604604
H76   H     H_    0.668239 0.641419 0.726799 0.207956
H77   H     H_    0.802704 0.703938 0.713340 0.265263
N11   N     N_3   0.345533 0.013139 0.705312 -0.605863
H78   H     H_    0.387884 0.988713 0.728899 0.213638
H79   H     H_    0.382864 0.098641 0.709307 0.232446
N12   N     N_3   0.069003 0.455741 0.728275 -0.654509
H80   H     H_    0.002792 0.453654 0.747407 0.213783
H81   H     H_    0.060897 0.470047 0.691429 0.247119
N13   N     N_2   0.851832 0.903322 0.705139 -0.532394
H82   H     H_    0.887795 0.977819 0.723163 0.214000
C91   C     C_3   0.869253 0.914612 0.652733 -0.304387
H83   H     H_    0.959145 0.964232 0.644802 0.123836
H84   H     H_    0.829775 0.959506 0.636915 0.138586
H85   H     H_    0.837167 0.833094 0.635004 0.191927
N14   N     N_2   0.177728 0.018000 0.693559 -0.529108
H86   H     H_    0.102991 0.005673 0.706882 0.231480
C92   C     C_3   0.190881 0.034697 0.641105 -0.296287
H87   H     H_    0.176962 0.103559 0.630752 0.123041
H88   H     H_    0.128228 0.959816 0.621939 0.133075
H89   H     H_    0.275407 0.056406 0.628748 0.195389
N15   N     N_2   0.976074 0.262454 0.706872 -0.514770
H90   H     H_    0.970419 0.186284 0.709392 0.219733
C93   C     C_3   0.867957 0.253765 0.710336 -0.306639
H91   H     H_    0.809014 0.186310 0.686450 0.151446
H92   H     H_    0.870691 0.329838 0.696756 0.161306
H93   H     H_    0.836489 0.236049 0.748541 0.137574

loop_
_geom_bond_atom_site_label_1
_geom_bond_atom_site_label_2
_ccdc_geom_bond_type
C70   H37   S    
C58   C62   S    
C15   C18   T    
C90   H68   S    
Cr6   O23   S    
C2    C18   S    
C24   C42   A    
N8    H72   S    
C35   O14   A    
C24   C27   A    
C67   N7    S    
C54   C57   A    
C67   H34   S    
C6    C9    S    
N15   C93   S    
C24   C35   S    
Cr5   O19   S    
C72   H39   S    
N12   H80   S    
C25   C28   A    
C40   H31   S    
C45   C57   A    
C85   H48   S    
C33   C39   A    
C20   O19   A    
Cr5   O25   S    
C89   H65   S    
C50   C59   A    
Cr4   O21   S    
C85   H47   S    
N13   C91   S    
C63   O21   A    
C37   C40   A    
C32   C38   A    
C61   O24   A    
C5    C83   S    
C10   C73   T    
C14   C77   S    
C15   C78   S    
C86   H51   S    
C27   H15   S    
C88   H60   S    
C70   H40   S    
C64   H28   S    
C29   N5    S    
C12   C84   S    
C93   H93   S    
C89   H64   S    
C35   O10   A    
C23   C26   A    
N3    H54   S    
C1    O7    A    
C45   H18   S    
Cr2   O2    S    
C26   H14   S    
C88   H59   S    
C34   O13   A    
C54   H21   S    
C87   H57   S    
Cr1   O13   S    
C19   O5    A    
Cr3   O15   S    
Cr1   O1    S    
Cr2   O8    S    
C62   O23   A    
C48   C60   A    
N7    H70   S    
C3    O2    A    
C30   N6    S    
Cr3   O9    S    
C48   N3    S    
C7    N13   S    
C52   C55   A    
C49   C52   A    
N2    C86   S    
C90   H67   S    
C65   C80   S    
Cr3   O16   S    
C46   C58   A    
C27   C30   A    
C2    O8    A    
N8    H73   S    
C14   C17   T    
C69   C78   S    
N14   H86   S    
C4    C7    S    
C8    N11   S    
Cr2   O11   S    
N15   H90   S    
C21   O20   A    
C50   H23   S    
N4    C88   S    
C42   H33   S    
C72   H42   S    
C39   C42   A    
N1    C85   S    
C71   C83   S    
Cr5   O17   S    
C65   H29   S    
C5    H44   S    
C66   C78   S    
C5    H11   S    
C59   C63   S    
C50   C53   A    
C6    C84   S    
Cr6   O26   S    
N10   H76   S    
C51   H24   S    
C65   C77   S    
N13   H82   S    
C38   C41   A    
Cr6   O17   S    
Cr2   O14   S    
C25   H13   S    
C81   H9    S    
C92   H87   S    
C9    N12   S    
C39   H27   S    
C47   C59   A    
C21   C74   S    
C10   C82   S    
C2    O1    A    
C49   C58   A    
C31   C37   A    
C60   C61   S    
C43   H16   S    
N6    C90   S    
C41   H32   S    
C80   H2    S    
C69   C72   S    
C93   H92   S    
Cr1   O16   S    
Cr4   O4    S    
C6    H45   S    
C61   O22   A    
C5    C8    S    
C81   H3    S    
C34   O12   A    
C44   C56   A    
C91   H84   S    
C13   C76   S    
Cr5   O5    S    
C22   C40   A    
C44   H17   S    
C64   C76   S    
N14   C92   S    
C28   N4    S    
C72   C84   S    
Cr3   O12   S    
C26   C29   A    
C49   H22   S    
C7    N10   S    
C87   H55   S    
C22   C25   A    
N9    H75   S    
C69   H36   S    
C43   C55   A    
N11   H79   S    
C4    H10   S    
C8    C77   S    
C19   O18   A    
C64   C79   S    
C62   O25   A    
C71   H38   S    
C13   C16   T    
C21   O4    A    
Cr3   O3    S    
N5    C89   S    
C92   H89   S    
C81   C84   S    
C8    N14   S    
N4    H58   S    
C91   H85   S    
C66   H6    S    
N1    H46   S    
C45   C48   A    
C36   O11   A    
C68   C77   S    
C63   O26   A    
N2    H50   S    
C23   C34   S    
C33   C57   S    
C30   C33   A    
C80   H8    S    
C68   N8    S    
C79   H1    S    
C20   O6    A    
C79   H7    S    
C28   C31   A    
C3    O9    A    
Cr1   O10   S    
C11   C74   T    
C92   H88   S    
Cr1   O7    S    
Cr4   O17   S    
C79   C82   S    
N7    H71   S    
C44   C47   A    
Cr5   O22   S    
C7    C76   S    
C37   H25   S    
C29   C32   A    
C22   C36   S    
C1    C17   S    
C23   C41   A    
C51   C54   A    
C11   C83   S    
N6    H66   S    
C67   C70   S    
C19   C75   S    
N5    H62   S    
N12   H81   S    
C64   H4    S    
Cr2   O16   S    
Cr4   O18   S    
C66   C81   S    
C47   N2    S    
C36   O15   A    
C91   H83   S    
C86   H52   S    
C52   H19   S    
Cr4   O24   S    
C68   C71   S    
C87   H56   S    
C80   C83   S    
C32   C56   S    
C20   C73   S    
C9    N15   S    
C9    C78   S    
C6    H12   S    
C93   H91   S    
C70   C82   S    
C43   C46   A    
N3    C87   S    
Cr6   O6    S    
C1    O3    A    
C53   H20   S    
C71   H41   S    
C90   H69   S    
C65   H5    S    
C4    C82   S    
N9    H74   S    
C69   N9    S    
N11   H78   S    
C46   N1    S    
C12   C75   T    
C53   C56   A    
N10   H77   S    
C89   H63   S    
C66   H30   S    
C51   C60   A    
C85   H49   S    
C31   C55   S    
Cr6   O20   S    
C68   H35   S    
C88   H61   S    
C3    C16   S    
C67   C76   S    
C38   H26   S    
C4    H43   S    
C86   H53   S    
