data_mof_unit_36052.cif
_audit_creation_date              2012-10-26T21:25:51-0400
_audit_creation_method            fapswitch 2.2
_symmetry_space_group_name_H-M    P1
_symmetry_Int_Tables_number       1
_space_group_crystal_system       triclinic
_cell_length_a                    10.91343
_cell_length_b                    10.889801
_cell_length_c                    12.743912
_cell_angle_alpha                 91.524748
_cell_angle_beta                  91.544124
_cell_angle_gamma                 89.207521
_cell_volume                      1513.33487193

loop_
_atom_site_label
_atom_site_type_symbol
_atom_type_description
_atom_site_fract_x
_atom_site_fract_y
_atom_site_fract_z
_atom_type_partial_charge
C1    C     C_R   0.261980 0.499027 0.501745 0.544364
C2    C     C_R   0.826104 0.577134 0.249908 -0.041997
C3    C     C_R   0.121393 0.533085 0.700759 0.059733
C4    C     C_R   0.879754 0.473095 0.295849 0.060580
C5    C     C_R   0.125080 0.651814 0.745592 -0.080964
C6    C     C_R   0.890477 0.363267 0.236243 -0.102281
C7    C     C_R   0.171313 0.670114 0.847688 -0.119606
C8    C     C_R   0.847759 0.357805 0.131870 -0.109912
C9    C     C_R   0.211460 0.569753 0.906311 -0.103201
C10   C     C_R   0.794719 0.461882 0.086634 -0.098728
C11   C     C_R   0.935921 0.513737 0.591620 -0.161303
C12   C     C_R   0.738081 0.499944 0.498052 0.536641
C13   C     C_R   0.064442 0.480613 0.407494 -0.144086
C14   C     C_R   0.871759 0.499491 0.495451 -0.009964
C15   C     C_R   0.128374 0.496717 0.503582 -0.004888
C16   C     C_R   0.502790 0.262001 0.501949 0.538788
C17   C     C_R   0.499105 0.738044 0.498361 0.543304
C18   C     C_R   0.937330 0.483156 0.401825 -0.033976
C19   C     C_R   0.062845 0.513061 0.596679 -0.043126
C20   C     C_2   0.473780 0.458989 0.032149 -0.177529
C21   C     C_2   0.523641 0.540421 0.967713 -0.170603
C22   C     C_1   0.521061 0.526920 0.852387 0.160708
C23   C     C_R   0.501133 0.871670 0.496795 -0.003505
C24   C     C_1   0.477762 0.472692 0.147575 0.140210
C25   C     C_R   0.694837 0.229407 0.825748 0.298182
C26   C     C_R   0.243539 0.846586 0.193000 0.285322
C27   C     C_R   0.666756 0.184797 0.722767 -0.045680
C28   C     C_R   0.295505 0.875374 0.291995 -0.044068
C29   C     C_R   0.558028 0.120064 0.701573 0.013014
C30   C     C_R   0.422814 0.882116 0.307646 0.010871
C31   C     C_R   0.476730 0.101186 0.782926 -0.119236
C32   C     C_R   0.500443 0.857599 0.223931 -0.093542
C33   C     C_R   0.503294 0.146632 0.884113 -0.180566
C34   C     C_R   0.505996 0.128390 0.504625 -0.004033
C35   C     C_R   0.450797 0.826391 0.125164 -0.156009
C36   C     C_R   0.611510 0.210425 0.905166 -0.082625
C37   C     C_R   0.323838 0.819931 0.109222 -0.109862
C38   C     C_R   0.531914 0.935041 0.590853 -0.152863
C39   C     C_R   0.477018 0.064706 0.410576 -0.151093
C40   C     C_3   0.906715 0.252038 0.809487 -0.006093
C41   C     C_3   0.940049 0.122909 0.848153 -0.282193
C42   C     C_3   0.069198 0.084427 0.816309 -0.488241
C43   C     C_3   0.067442 0.833854 0.082105 0.007154
C44   C     C_3   0.929722 0.860973 0.081217 -0.252313
C45   C     C_R   0.471802 0.937834 0.406065 -0.037943
C46   C     C_3   0.868717 0.819838 0.977111 -0.493738
C47   C     C_R   0.532643 0.062538 0.596797 -0.033330
C48   C     C_R   0.208982 0.451274 0.861325 -0.106743
C49   C     C_R   0.782471 0.570831 0.146029 -0.117647
C50   C     C_R   0.165526 0.433010 0.758156 -0.073580
Cu1   Cu    Cu3+1 0.492140 0.492110 0.395880 0.987666
Cu2   Cu    Cu3+1 0.507860 0.507890 0.604120 0.996689
H1    H     H_    0.631275 0.245062 0.984117 0.121982
H2    H     H_    0.429300 0.378337 0.998342 0.115650
H3    H     H_    0.727211 0.200409 0.658800 0.094296
H4    H     H_    0.235800 0.898879 0.356334 0.121681
H5    H     H_    0.393034 0.050527 0.767928 0.114941
H6    H     H_    0.598776 0.866776 0.234381 0.108501
H7    H     H_    0.440111 0.132003 0.946484 0.109464
H8    H     H_    0.510794 0.811515 0.059827 0.102234
H9    H     H_    0.554657 0.885232 0.661508 0.141163
H10   H     H_    0.452857 0.113937 0.339884 0.144435
H11   H     H_    0.244340 0.583518 0.986480 0.115497
H12   H     H_    0.290931 0.796969 0.030948 0.077919
H13   H     H_    0.763317 0.458327 0.005549 0.168203
H14   H     H_    0.239126 0.373318 0.906529 0.094323
H15   H     H_    0.740332 0.650999 0.111458 0.091028
H16   H     H_    0.162941 0.340900 0.723978 0.093705
H17   H     H_    0.819134 0.663059 0.294310 0.105783
H18   H     H_    0.980030 0.314501 0.838279 0.167062
H19   H     H_    0.906272 0.255885 0.722522 0.123554
H20   H     H_    0.934893 0.121925 0.935103 0.165093
H21   H     H_    0.874219 0.055108 0.813821 0.149820
H22   H     H_    0.076883 0.086145 0.729619 0.147892
H23   H     H_    0.091009 0.729726 0.701870 0.100384
H24   H     H_    0.089566 0.989683 0.842337 0.133571
H25   H     H_    0.137991 0.147175 0.853602 0.141429
H26   H     H_    0.082958 0.736741 0.056112 0.146327
H27   H     H_    0.108985 0.898698 0.027507 0.118861
H28   H     H_    0.887149 0.812855 0.146377 0.174518
H29   H     H_    0.913861 0.961279 0.093914 0.154115
H30   H     H_    0.911632 0.865080 0.910649 0.146847
H31   H     H_    0.769688 0.844711 0.977269 0.138200
H32   H     H_    0.878156 0.718719 0.965524 0.159237
H33   H     H_    0.933734 0.282870 0.270108 0.105226
H34   H     H_    0.173969 0.762150 0.881085 0.076990
H35   H     H_    0.856993 0.273426 0.085780 0.122033
H36   H     H_    0.887368 0.526417 0.664374 0.154324
H37   H     H_    0.113464 0.468514 0.334941 0.148082
H38   H     H_    0.569000 0.620248 0.001495 0.106046
N1    N     N_1   0.480320 0.480250 0.239400 -0.186364
N2    N     N_1   0.519680 0.519750 0.760600 -0.180208
O1    O     O_R   0.313000 0.493330 0.412070 -0.507800
O2    O     O_3   0.115592 0.851082 0.185147 -0.580917
O3    O     O_R   0.687000 0.506670 0.587930 -0.505940
O4    O     O_R   0.326280 0.506660 0.587930 -0.487498
O5    O     O_R   0.673720 0.493340 0.412070 -0.492873
O6    O     O_R   0.493370 0.312980 0.412070 -0.509733
O7    O     O_R   0.506630 0.687020 0.587930 -0.511341
O8    O     O_R   0.506650 0.326310 0.587930 -0.492701
O9    O     O_R   0.493350 0.673690 0.412070 -0.489803
O10   O     O_3   0.796893 0.299671 0.851950 -0.601394

loop_
_geom_bond_atom_site_label_1
_geom_bond_atom_site_label_2
_ccdc_geom_bond_type
Cu1   O5    S    
C26   O2    S    
C23   C45   A    
C40   H19   S    
C27   C29   A    
C41   C42   S    
C14   C18   A    
C30   C45   S    
C32   H6    S    
C33   C36   A    
C28   H4    S    
C43   H26   S    
C15   C19   A    
C11   C19   A    
C17   C23   S    
C6    H33   S    
C40   H18   S    
C13   C18   A    
C29   C47   S    
C35   C37   A    
C11   C14   A    
C27   H3    S    
C25   O10   S    
C7    H34   S    
C43   H27   S    
C43   O2    S    
Cu2   O3    S    
C17   O9    A    
C36   H1    S    
C16   C34   S    
C46   H30   S    
C20   C24   S    
C31   C33   A    
C12   O3    A    
C3    C19   S    
C1    C15   S    
C2    H17   S    
C39   C45   A    
C38   H9    S    
C4    C18   S    
Cu1   O6    S    
C48   C50   A    
C33   H7    S    
C21   C22   S    
Cu1   N1    S    
C3    C50   A    
C44   C46   S    
C21   H38   S    
C42   H22   S    
Cu1   Cu2   S    
C32   C35   A    
C44   H28   S    
C20   H2    S    
C44   H29   S    
C5    C7    A    
C16   O8    A    
C6    C8    A    
C41   H21   S    
Cu2   O8    S    
C34   C39   A    
C35   H8    S    
C5    H23   S    
C2    C4    A    
C43   C44   S    
C2    C49   A    
C11   H36   S    
C38   C47   A    
C17   O7    A    
C12   O5    A    
Cu1   O1    S    
C41   H20   S    
C46   H32   S    
C4    C6    A    
C40   C41   S    
C12   C14   S    
C13   C15   A    
Cu2   N2    S    
Cu1   O9    S    
C24   N1    T    
C37   H12   S    
C10   H13   S    
C7    C9    A    
C39   H10   S    
C49   H15   S    
C13   H37   S    
C9    H11   S    
C42   H24   S    
C8    C10   A    
C3    C5    A    
C26   C37   A    
C25   C27   A    
C23   C38   A    
Cu2   O7    S    
C26   C28   A    
C8    H35   S    
C31   H5    S    
C28   C30   A    
C29   C31   A    
C30   C32   A    
C16   O6    A    
C1    O4    A    
Cu2   O4    S    
C25   C36   A    
C40   O10   S    
C46   H31   S    
C20   C21   D    
C9    C48   A    
C1    O1    A    
C22   N2    T    
C42   H25   S    
C34   C47   A    
C48   H14   S    
C10   C49   A    
C50   H16   S    
