data_mof_unit_37565.cif
_audit_creation_date              2012-12-11T14:24:47-0500
_audit_creation_method            fapswitch 2.2
_symmetry_space_group_name_H-M    P1
_symmetry_Int_Tables_number       1
_space_group_crystal_system       triclinic
_cell_length_a                    18.992828
_cell_length_b                    10.982173
_cell_length_c                    18.768194
_cell_angle_alpha                 90.555769
_cell_angle_beta                  90.678403
_cell_angle_gamma                 90.368452
_cell_volume                      3914.17482219

loop_
_atom_site_label
_atom_site_type_symbol
_atom_type_description
_atom_site_fract_x
_atom_site_fract_y
_atom_site_fract_z
_atom_type_partial_charge
C1    C     C_R   0.730111 0.372805 0.145072 0.532439
C2    C     C_R   0.272184 0.369221 0.856871 0.535904
C3    C     C_R   0.230100 0.872782 0.145061 0.532446
C4    C     C_R   0.772176 0.869245 0.856864 0.535862
C5    C     C_3   0.518828 0.045476 0.016615 -0.102434
C6    C     C_3   0.563398 0.095026 0.954786 -0.127429
C7    C     C_3   0.018692 0.545490 0.016649 -0.102359
C8    C     C_3   0.063329 0.594808 0.954801 -0.127392
C9    C     C_R   0.760773 0.885293 0.934080 0.009178
C10   C     C_R   0.248347 0.901730 0.070879 -0.006179
C11   C     C_R   0.260781 0.385256 0.934088 0.009181
C12   C     C_R   0.748391 0.401815 0.070907 -0.006198
C13   C     C_R   0.699085 0.845423 0.970198 0.005567
C14   C     C_R   0.296775 0.832668 0.028543 0.004609
C15   C     C_R   0.199099 0.345367 0.970210 0.005588
C16   C     C_R   0.796801 0.332726 0.028566 0.004650
C17   C     C_R   0.700831 0.842190 0.045573 -0.010741
C18   C     C_R   0.290789 0.837583 0.953183 -0.025970
C19   C     C_R   0.200844 0.342152 0.045585 -0.010713
C20   C     C_R   0.790807 0.337635 0.953207 -0.025954
C21   C     C_R   0.818408 0.925109 0.048172 -0.164068
C22   C     C_R   0.198917 0.988290 0.964293 -0.149017
C23   C     C_R   0.318413 0.425098 0.048177 -0.164092
C24   C     C_R   0.698981 0.488448 0.964332 -0.148979
C25   C     C_R   0.821292 0.913703 0.975103 -0.140384
C26   C     C_R   0.201294 0.979580 0.036890 -0.161444
C27   C     C_R   0.321297 0.413687 0.975108 -0.140402
C28   C     C_R   0.701374 0.479753 0.036929 -0.161459
C29   C     C_R   0.636721 0.805228 0.935249 -0.169877
C30   C     C_R   0.350147 0.757927 0.057173 -0.138236
C31   C     C_R   0.136740 0.305139 0.935266 -0.169898
C32   C     C_R   0.850168 0.257971 0.057196 -0.138216
C33   C     C_R   0.083202 0.247986 0.973298 -0.125728
C34   C     C_R   0.891236 0.185069 0.012956 -0.101268
C35   C     C_R   0.583181 0.748068 0.973274 -0.125740
C36   C     C_R   0.391225 0.685039 0.012934 -0.101245
C37   C     C_R   0.589427 0.730706 0.046665 0.257485
C38   C     C_R   0.383405 0.686077 0.939248 0.270918
C39   C     C_R   0.089447 0.230652 0.046689 0.257521
C40   C     C_R   0.883409 0.186100 0.939271 0.270922
C41   C     C_R   0.648811 0.777854 0.082206 -0.084693
C42   C     C_R   0.330174 0.758046 0.910079 -0.076587
C43   C     C_R   0.148830 0.277814 0.082224 -0.084594
C44   C     C_R   0.830179 0.258075 0.910103 -0.076578
C45   C     C_R   0.562086 0.150869 0.137203 0.571156
C46   C     C_R   0.468525 0.156223 0.855295 0.542353
C47   C     C_R   0.062091 0.650867 0.137203 0.571162
C48   C     C_R   0.968538 0.656225 0.855288 0.542329
C49   C     C_R   0.756084 0.900629 0.083105 0.000458
C50   C     C_R   0.245359 0.922452 0.921963 -0.004841
C51   C     C_R   0.256091 0.400614 0.083112 0.000435
C52   C     C_R   0.745385 0.422526 0.921990 -0.004848
C53   C     C_R   0.505083 0.167464 0.580618 -0.006320
C54   C     C_R   0.540170 0.153345 0.436107 0.006112
C55   C     C_R   0.005082 0.667461 0.580617 -0.006318
C56   C     C_R   0.040178 0.653349 0.436108 0.006112
C57   C     C_R   0.545819 0.069600 0.556339 0.024533
C58   C     C_R   0.554740 0.053444 0.482341 0.022307
C59   C     C_R   0.045814 0.569591 0.556336 0.024541
C60   C     C_R   0.054746 0.553447 0.482341 0.022298
C61   C     C_R   0.502569 0.252662 0.462278 -0.136190
C62   C     C_R   0.481554 0.255542 0.532678 -0.151595
C63   C     C_R   0.002578 0.752667 0.462280 -0.136184
C64   C     C_R   0.981561 0.755545 0.532680 -0.151600
C65   C     C_R   0.569758 0.978916 0.603669 -0.089652
C66   C     C_R   0.572494 0.934917 0.458457 -0.105658
C67   C     C_R   0.069748 0.478901 0.603662 -0.089651
C68   C     C_R   0.072518 0.434930 0.458455 -0.105680
C69   C     C_R   0.081031 0.361908 0.578775 -0.114696
C70   C     C_R   0.079098 0.339783 0.506140 -0.150947
C71   C     C_R   0.581034 0.861918 0.578788 -0.114683
C72   C     C_R   0.579086 0.839780 0.506151 -0.150942
C73   C     C_R   0.754059 0.909125 0.573197 0.011132
C74   C     C_R   0.242365 0.932270 0.424544 0.001674
C75   C     C_R   0.254061 0.409122 0.573196 0.011133
C76   C     C_R   0.742361 0.432262 0.424547 0.001679
C77   C     C_R   0.786651 0.012903 0.545517 0.022270
C78   C     C_R   0.182695 0.965653 0.466359 0.036330
C79   C     C_R   0.286651 0.512902 0.545517 0.022269
C80   C     C_R   0.682690 0.465637 0.466364 0.036333
C81   C     C_R   0.803495 0.010846 0.473444 0.042880
C82   C     C_R   0.183786 0.937053 0.538469 0.022211
C83   C     C_R   0.303495 0.510848 0.473443 0.042884
C84   C     C_R   0.683784 0.437038 0.538473 0.022209
C85   C     C_R   0.731065 0.828793 0.454717 -0.170446
C86   C     C_R   0.311549 0.922025 0.530486 -0.138526
C87   C     C_R   0.231074 0.328786 0.454715 -0.170471
C88   C     C_R   0.811548 0.422019 0.530488 -0.138526
C89   C     C_R   0.743114 0.964344 0.150722 0.540772
C90   C     C_R   0.257172 0.968859 0.850521 0.535300
C91   C     C_R   0.243116 0.464341 0.150724 0.540761
C92   C     C_R   0.757177 0.468873 0.850529 0.535290
C93   C     C_R   0.731677 0.813406 0.527643 -0.136340
C94   C     C_R   0.307072 0.914265 0.457289 -0.151881
C95   C     C_R   0.231683 0.313402 0.527641 -0.136347
C96   C     C_R   0.807070 0.414260 0.457291 -0.151880
C97   C     C_R   0.813104 0.107539 0.590183 -0.083981
C98   C     C_R   0.121715 0.023614 0.438968 -0.093648
C99   C     C_R   0.313102 0.607539 0.590183 -0.083985
C100  C     C_R   0.621709 0.523595 0.438974 -0.093646
C101  C     C_R   0.869300 0.178484 0.568429 -0.119966
C102  C     C_R   0.060628 0.030995 0.478641 -0.152664
C103  C     C_R   0.369297 0.678487 0.568430 -0.119965
C104  C     C_R   0.560624 0.530979 0.478651 -0.152670
C105  C     C_R   0.893529 0.167043 0.499335 -0.147555
C106  C     C_R   0.060083 0.990542 0.548313 -0.121889
C107  C     C_R   0.393527 0.667048 0.499336 -0.147554
C108  C     C_R   0.560082 0.490526 0.548323 -0.121880
C109  C     C_R   0.861189 0.084838 0.451941 -0.082433
C110  C     C_R   0.120266 0.938404 0.577250 -0.078734
C111  C     C_R   0.361188 0.584844 0.451941 -0.082432
C112  C     C_R   0.620267 0.438387 0.577257 -0.078732
C113  C     C_R   0.763048 0.931228 0.427234 0.009640
C114  C     C_R   0.249962 0.926431 0.571652 -0.002741
C115  C     C_R   0.263051 0.431227 0.427233 0.009637
C116  C     C_R   0.749961 0.426423 0.571654 -0.002742
C117  C     C_R   0.730291 0.383177 0.353378 0.542354
C118  C     C_R   0.269337 0.377937 0.645739 0.531982
C119  C     C_R   0.230292 0.883180 0.353377 0.542362
C120  C     C_R   0.769336 0.877938 0.645740 0.531975
C121  C     C_R   0.561450 0.152618 0.361124 0.565576
C122  C     C_R   0.468955 0.157855 0.648283 0.532586
C123  C     C_R   0.061454 0.652618 0.361124 0.565568
C124  C     C_R   0.968955 0.657855 0.648283 0.532581
C125  C     C_R   0.744536 0.970758 0.355848 0.542857
C126  C     C_R   0.257669 0.969741 0.643941 0.528184
C127  C     C_R   0.244537 0.470757 0.355847 0.542849
C128  C     C_R   0.757669 0.469739 0.643943 0.528191
C129  C     C_3   0.519657 0.277826 0.972500 -0.114202
C130  C     C_3   0.475308 0.227905 0.034658 -0.107501
C131  C     C_3   0.019828 0.777807 0.972450 -0.114177
C132  C     C_3   0.975413 0.728121 0.034628 -0.107414
C133  C     C_3   0.584731 0.207507 0.000829 -0.135030
C134  C     C_3   0.454209 0.115604 0.989077 -0.109594
C135  C     C_3   0.084812 0.707263 0.000805 -0.135135
C136  C     C_3   0.954164 0.615844 0.989086 -0.109601
C137  C     C_3   0.539678 0.157685 0.061637 0.049502
C138  C     C_3   0.499004 0.164958 0.927787 0.043589
C139  C     C_3   0.039692 0.657672 0.061632 0.049496
C140  C     C_3   0.999024 0.664964 0.927778 0.043590
Cr1   Cr    Cr6+3 0.772820 0.169820 0.252640 0.986152
Cr2   Cr    Cr6+3 0.227180 0.169820 0.747360 0.987086
Cr3   Cr    Cr6+3 0.272820 0.669820 0.252640 0.986143
Cr4   Cr    Cr6+3 0.727180 0.669820 0.747360 0.987101
Cr5   Cr    Cr6+3 0.615040 0.323610 0.249150 1.012272
Cr6   Cr    Cr6+3 0.384960 0.323610 0.750850 1.012456
Cr7   Cr    Cr6+3 0.115040 0.823610 0.249150 1.012270
Cr8   Cr    Cr6+3 0.884960 0.823610 0.750850 1.012455
Cr9   Cr    Cr6+3 0.616720 0.011130 0.250660 0.970599
Cr10  Cr    Cr6+3 0.383280 0.011130 0.749340 0.980235
Cr11  Cr    Cr6+3 0.116720 0.511130 0.250660 0.970588
Cr12  Cr    Cr6+3 0.883280 0.511130 0.749340 0.980239
H1    H     H_    0.639147 0.243324 0.007024 0.127318
H2    H     H_    0.400005 0.077778 0.983390 0.129952
H3    H     H_    0.139274 0.742829 0.006977 0.127269
H4    H     H_    0.899903 0.578228 0.983415 0.129892
H5    H     H_    0.485470 0.324742 0.427248 0.142360
H6    H     H_    0.445186 0.325672 0.549219 0.144985
H7    H     H_    0.985480 0.824750 0.427251 0.142365
H8    H     H_    0.945194 0.825678 0.549221 0.144984
H9    H     H_    0.573866 0.995148 0.660566 0.121425
H10   H     H_    0.578642 0.908302 0.403939 0.167041
H11   H     H_    0.073853 0.495121 0.660561 0.121436
H12   H     H_    0.078712 0.408346 0.403942 0.167092
H13   H     H_    0.092715 0.289089 0.615450 0.127600
H14   H     H_    0.090370 0.250832 0.486111 0.118084
H15   H     H_    0.592716 0.789100 0.615467 0.127595
H16   H     H_    0.590342 0.750820 0.486123 0.118071
H17   H     H_    0.705315 0.762254 0.420123 0.109095
H18   H     H_    0.363566 0.925988 0.554617 0.154270
H19   H     H_    0.205329 0.262242 0.420121 0.109087
H20   H     H_    0.863565 0.425986 0.554617 0.154271
H21   H     H_    0.795056 0.118945 0.644372 0.113128
H22   H     H_    0.120899 0.068073 0.387805 0.127640
H23   H     H_    0.295054 0.618943 0.644373 0.113128
H24   H     H_    0.620889 0.568053 0.387811 0.127646
H25   H     H_    0.712288 0.727978 0.548474 0.155617
H26   H     H_    0.353711 0.895893 0.426379 0.130861
H27   H     H_    0.212296 0.227972 0.548472 0.155616
H28   H     H_    0.853708 0.395892 0.426380 0.130866
H29   H     H_    0.894332 0.241812 0.605456 0.115970
H30   H     H_    0.014421 0.070936 0.455124 0.098767
H31   H     H_    0.394329 0.741815 0.605458 0.115969
H32   H     H_    0.514415 0.570919 0.455137 0.098765
H33   H     H_    0.936975 0.223373 0.482231 0.108093
H34   H     H_    0.013089 0.999563 0.579926 0.120660
H35   H     H_    0.436973 0.723379 0.482232 0.108081
H36   H     H_    0.513090 0.499547 0.579939 0.120661
H37   H     H_    0.885851 0.074981 0.400708 0.136166
H38   H     H_    0.118129 0.905570 0.631423 0.122661
H39   H     H_    0.385850 0.574990 0.400708 0.136164
H40   H     H_    0.618132 0.405554 0.631431 0.122658
H41   H     H_    0.520035 0.373154 0.953314 0.151081
H42   H     H_    0.439703 0.280708 0.069394 0.125562
H43   H     H_    0.020323 0.873114 0.953237 0.150990
H44   H     H_    0.939865 0.781093 0.069352 0.125551
H45   H     H_    0.516948 0.950607 0.035999 0.140709
H46   H     H_    0.599686 0.043718 0.920000 0.116038
H47   H     H_    0.016694 0.450621 0.036051 0.140676
H48   H     H_    0.099555 0.543323 0.920042 0.116085
H49   H     H_    0.864251 0.958076 0.077343 0.130728
H50   H     H_    0.161720 0.051170 0.941455 0.166820
H51   H     H_    0.364256 0.458068 0.077346 0.130747
H52   H     H_    0.661797 0.551367 0.941501 0.166874
H53   H     H_    0.627778 0.817118 0.878921 0.139723
H54   H     H_    0.363338 0.756279 0.113027 0.155142
H55   H     H_    0.127796 0.316997 0.878939 0.139732
H56   H     H_    0.863365 0.256335 0.113048 0.155108
H57   H     H_    0.871984 0.927190 0.950970 0.198722
H58   H     H_    0.163139 0.030625 0.066615 0.187213
H59   H     H_    0.371984 0.427188 0.950973 0.198673
H60   H     H_    0.663247 0.530856 0.066666 0.187115
H61   H     H_    0.037655 0.213065 0.944965 0.172179
H62   H     H_    0.928170 0.123128 0.036172 0.185057
H63   H     H_    0.537631 0.713168 0.944936 0.172186
H64   H     H_    0.428157 0.623097 0.036151 0.185051
H65   H     H_    0.657123 0.757193 0.137823 0.120721
H66   H     H_    0.318221 0.749767 0.853834 0.113460
H67   H     H_    0.157139 0.257174 0.137844 0.120711
H68   H     H_    0.818219 0.249786 0.853860 0.113462
O1    O     O_R   0.788190 0.043000 0.172520 -0.524642
O2    O     O_R   0.211810 0.043000 0.827480 -0.527687
O3    O     O_R   0.288190 0.543000 0.172520 -0.524657
O4    O     O_R   0.711810 0.543000 0.827480 -0.527669
O5    O     O_R   0.556550 0.253260 0.323480 -0.493277
O6    O     O_R   0.443450 0.253260 0.676520 -0.508727
O7    O     O_R   0.056550 0.753260 0.323480 -0.493273
O8    O     O_R   0.943450 0.753260 0.676520 -0.508729
O9    O     O_R   0.545830 0.051610 0.330160 -0.537655
O10   O     O_R   0.454170 0.051610 0.669840 -0.530849
O11   O     O_R   0.045830 0.551610 0.330160 -0.537647
O12   O     O_R   0.954170 0.551610 0.669840 -0.530860
O13   O     O_R   0.681920 0.959720 0.327070 -0.532079
O14   O     O_R   0.318080 0.959720 0.672930 -0.515979
O15   O     O_R   0.181920 0.459720 0.327070 -0.532116
O16   O     O_R   0.818080 0.459720 0.672930 -0.515978
O17   O     O_3   0.668190 0.168190 0.250820 -0.273400
O18   O     O_3   0.331810 0.168190 0.749180 -0.239090
O19   O     O_3   0.168190 0.668190 0.250820 -0.273407
O20   O     O_3   0.831810 0.668190 0.749180 -0.239084
O21   O     O_R   0.766240 0.292300 0.176860 -0.516045
O22   O     O_R   0.233760 0.292300 0.823140 -0.515675
O23   O     O_R   0.266240 0.792300 0.176860 -0.516053
O24   O     O_R   0.733760 0.792300 0.823140 -0.515662
O25   O     O_R   0.670310 0.409160 0.168720 -0.522596
O26   O     O_R   0.329690 0.409160 0.831280 -0.499046
O27   O     O_R   0.170310 0.909160 0.168720 -0.522613
O28   O     O_R   0.829690 0.909160 0.831280 -0.499045
O29   O     O_R   0.556160 0.251900 0.173380 -0.487028
O30   O     O_R   0.443840 0.251900 0.826620 -0.499757
O31   O     O_R   0.056160 0.751900 0.173380 -0.487042
O32   O     O_R   0.943840 0.751900 0.826620 -0.499744
O33   O     O_R   0.545410 0.050140 0.168240 -0.527780
O34   O     O_R   0.454590 0.050140 0.831760 -0.528232
O35   O     O_R   0.045410 0.550140 0.168240 -0.527780
O36   O     O_R   0.954590 0.550140 0.831760 -0.528221
O37   O     O_R   0.681530 0.958350 0.176970 -0.527369
O38   O     O_R   0.318470 0.958350 0.823030 -0.511828
O39   O     O_R   0.181530 0.458350 0.176970 -0.527368
O40   O     O_R   0.818470 0.458350 0.823030 -0.511821
O41   O     O_R   0.788610 0.044480 0.334450 -0.534057
O42   O     O_R   0.211390 0.044480 0.665550 -0.529253
O43   O     O_R   0.288610 0.544480 0.334450 -0.534052
O44   O     O_R   0.711390 0.544480 0.665550 -0.529247
O45   O     O_R   0.766630 0.293670 0.326970 -0.495097
O46   O     O_R   0.233370 0.293670 0.673030 -0.514947
O47   O     O_R   0.266630 0.793670 0.326970 -0.495092
O48   O     O_R   0.733370 0.793670 0.673030 -0.514952
O49   O     O_R   0.670730 0.410640 0.330640 -0.541393
O50   O     O_R   0.329270 0.410640 0.669360 -0.528667
O51   O     O_R   0.170730 0.910640 0.330640 -0.541384
O52   O     O_R   0.829270 0.910640 0.669360 -0.528664
O53   O     O_3   0.041322 0.154932 0.079757 -0.598201
C141  C     C_3   0.024478 0.196471 0.148956 -0.138035
H69   H     H_    0.017598 0.297064 0.151492 0.134049
H70   H     H_    0.064542 0.165960 0.188360 0.117640
H71   H     H_    0.973728 0.154387 0.164392 0.120092
O54   O     O_3   0.925543 0.108627 0.899168 -0.590329
C142  C     C_3   0.941980 0.156830 0.831805 -0.117890
H72   H     H_    0.954919 0.255896 0.834648 0.110113
H73   H     H_    0.898506 0.138471 0.792994 0.128060
H74   H     H_    0.989296 0.109579 0.811617 0.122236
O55   O     O_3   0.541307 0.654963 0.079724 -0.598118
C143  C     C_3   0.524458 0.696482 0.148938 -0.138003
H75   H     H_    0.517562 0.797081 0.151483 0.134042
H76   H     H_    0.564523 0.665967 0.188351 0.117590
H77   H     H_    0.473716 0.654374 0.164368 0.120091
O56   O     O_3   0.425545 0.608610 0.899148 -0.590330
C144  C     C_3   0.441978 0.656807 0.831782 -0.117876
H78   H     H_    0.454911 0.755875 0.834621 0.110093
H79   H     H_    0.398504 0.638436 0.792972 0.128065
H80   H     H_    0.489296 0.609561 0.811595 0.122253

loop_
_geom_bond_atom_site_label_1
_geom_bond_atom_site_label_2
_ccdc_geom_bond_type
C128  O16   A    
C99   C103  A    
C111  H39   S    
C55   C59   A    
Cr8   O52   S    
C73   C93   A    
C136  C140  S    
C75   C95   A    
C133  C137  S    
C84   C112  A    
C103  H31   S    
C79   C99   A    
C143  H75   S    
C5    C6    S    
Cr10  O34   S    
C123  O7    A    
C100  C104  A    
C121  O5    A    
C141  H69   S    
C94   H26   S    
C9    C13   A    
C46   O30   A    
C131  C140  S    
C92   O40   A    
C11   C15   A    
C50   C90   S    
C66   C72   A    
C12   C16   A    
Cr9   O17   S    
C87   C115  A    
C59   C60   A    
C8    C135  S    
C130  C134  S    
C68   H12   S    
Cr8   O32   S    
C97   H21   S    
C102  H30   S    
C56   C123  S    
C21   H49   S    
Cr6   O50   S    
C106  H34   S    
Cr12  O36   S    
C33   H61   S    
C98   C102  A    
Cr5   O5    S    
C110  H38   S    
C85   H17   S    
C32   C34   A    
C48   O32   A    
C135  C139  S    
C31   H55   S    
C78   C82   A    
C11   C27   A    
C16   C20   A    
C87   H19   S    
C96   H28   S    
C124  O12   A    
C129  C133  S    
C90   O38   A    
C93   H25   S    
Cr8   O20   S    
Cr1   O41   S    
C108  H36   S    
C143  H77   S    
C131  H43   S    
C42   H66   S    
Cr10  O10   S    
C117  O49   A    
C5    C137  S    
Cr12  O16   S    
C54   C61   A    
C30   C36   A    
C119  O51   A    
C29   C35   A    
C127  O15   A    
C120  O52   A    
Cr5   O25   S    
C8    C140  S    
C1    O25   A    
C76   C96   A    
Cr4   O24   S    
C142  H73   S    
C69   C70   A    
C65   H9    S    
C73   C77   A    
C103  C107  A    
C75   C79   A    
Cr1   O1    S    
C88   C116  A    
Cr8   O8    S    
C63   H7    S    
C21   C49   A    
C38   O56   S    
C7    C8    S    
C132  C139  S    
Cr5   O29   S    
C53   C122  S    
C18   C42   A    
C89   O1    A    
C114  C126  S    
Cr9   O33   S    
C29   H53   S    
Cr4   O20   S    
C59   C67   A    
C85   C93   A    
Cr11  O11   S    
Cr6   O18   S    
C87   C95   A    
Cr7   O51   S    
C77   C97   A    
C32   H56   S    
C47   O31   A    
C84   C116  A    
C71   H15   S    
C72   H16   S    
C1    C12   S    
C2    C11   S    
C27   H59   S    
C20   C44   A    
C121  O9    A    
C48   C140  S    
C83   C115  A    
C10   C14   A    
C17   C49   A    
Cr7   O7    S    
C5    H45   S    
Cr2   O22   S    
Cr9   O13   S    
C132  C136  S    
Cr11  O15   S    
C144  H78   S    
C26   H58   S    
C2    O22   A    
Cr9   O37   S    
C61   H5    S    
C54   C121  S    
C74   C78   A    
Cr3   O23   S    
C8    H48   S    
C47   C139  S    
C101  H29   S    
C129  C130  S    
C105  C109  A    
C86   H18   S    
C107  C111  A    
Cr2   O46   S    
C41   H65   S    
C15   C31   A    
Cr7   O19   S    
C16   C32   A    
C13   C17   A    
Cr9   O9    S    
C85   C113  A    
C71   C72   A    
C36   H64   S    
C57   C58   A    
C141  H70   S    
C37   C41   A    
C61   C62   A    
C126  O14   A    
C69   H13   S    
C91   O39   A    
C63   C64   A    
C67   H11   S    
C40   C44   A    
C99   H23   S    
C125  O41   A    
O55   C143  S    
O54   C142  S    
C4    C9    S    
C35   H63   S    
C4    O24   A    
C117  O45   A    
Cr12  O12   S    
C24   C52   A    
C88   C96   A    
C120  O48   A    
C141  H71   S    
C74   C94   A    
C80   C84   A    
C9    C25   A    
C15   C19   A    
Cr7   O31   S    
C12   C28   A    
C13   C29   A    
C6    C133  S    
C106  C110  A    
C122  O6    A    
C144  H80   S    
C66   H10   S    
C21   C25   A    
C51   C91   S    
C44   H68   S    
C100  H24   S    
C142  H72   S    
C62   H6    S    
C37   O55   S    
C22   C50   A    
C39   O53   S    
C40   O54   S    
C73   C120  S    
Cr4   O48   S    
C75   C118  S    
C3    O27   A    
C19   C43   A    
C22   H50   S    
Cr11  O39   S    
C24   C28   A    
C34   H62   S    
C53   C57   A    
Cr6   O6    S    
Cr1   O21   S    
C108  C112  A    
C47   O35   A    
Cr3   O19   S    
C112  H40   S    
C92   O4    A    
C64   H8    S    
C104  H32   S    
C81   C109  A    
C83   C111  A    
C52   C92   S    
Cr3   O43   S    
C91   O3    A    
C131  C132  S    
Cr4   O44   S    
C104  C108  A    
C18   C50   A    
Cr2   O18   S    
C55   C124  S    
C43   H67   S    
C57   C65   A    
C130  H42   S    
C38   C42   A    
C28   H60   S    
Cr11  O19   S    
Cr6   O26   S    
C76   C117  S    
C36   C38   A    
C2    O26   A    
Cr10  O14   S    
C79   C83   A    
C134  H2    S    
C136  H4    S    
C143  H76   S    
C127  O43   A    
C128  O44   A    
C56   C60   A    
C7    C136  S    
C123  O11   A    
C60   C68   A    
C77   C81   A    
C22   C26   A    
C81   C113  A    
Cr2   O42   S    
C130  C137  S    
C46   O34   A    
C88   H20   S    
C14   C18   A    
C135  H3    S    
C74   C119  S    
C33   C39   A    
Cr6   O30   S    
C133  H1    S    
C82   C110  A    
C35   C37   A    
C90   O2    A    
C131  C135  S    
C70   H14   S    
Cr3   O3    S    
C98   H22   S    
C113  C125  S    
C30   H54   S    
C107  H35   S    
Cr8   O28   S    
C115  C127  S    
C126  O42   A    
Cr5   O49   S    
C142  H74   S    
C105  H33   S    
C4    O28   A    
C86   C94   A    
C118  O46   A    
C58   C66   A    
C129  C138  S    
C109  H37   S    
Cr10  O18   S    
Cr5   O17   S    
C78   C98   A    
C31   C33   A    
C23   C27   A    
C48   O36   A    
C46   C138  S    
C45   O29   A    
C10   C26   A    
Cr7   O27   S    
C80   C100  A    
C14   C30   A    
C124  O8    A    
C101  C105  A    
C5    C134  S    
C122  O10   A    
C89   O37   A    
C82   C114  A    
C6    H46   S    
C39   C43   A    
C65   C71   A    
C23   H51   S    
C67   C69   A    
Cr1   O45   S    
C6    C138  S    
C53   C62   A    
Cr12  O40   S    
C23   C51   A    
Cr12  O20   S    
C119  O47   A    
C55   C64   A    
C45   C137  S    
O53   C141  S    
C56   C63   A    
C3    O23   A    
C25   H57   S    
C1    O21   A    
C95   H27   S    
C76   C80   A    
Cr11  O35   S    
C54   C58   A    
C24   H52   S    
Cr1   O17   S    
C49   C89   S    
C134  C138  S    
C129  H41   S    
C86   C114  A    
O56   C144  S    
C20   C52   A    
C3    C10   S    
Cr10  O38   S    
C7    C139  S    
C144  H79   S    
C102  C106  A    
Cr3   O47   S    
C7    H47   S    
C17   C41   A    
Cr4   O4    S    
C125  O13   A    
C19   C51   A    
C68   C70   A    
C116  C128  S    
C132  H44   S    
C34   C40   A    
C118  O50   A    
Cr2   O2    S    
C97   C101  A    
C45   O33   A    
