data_mof_unit_52171.cif
_audit_creation_date              2012-12-10T17:25:35-0500
_audit_creation_method            fapswitch 2.2
_symmetry_space_group_name_H-M    P1
_symmetry_Int_Tables_number       1
_space_group_crystal_system       triclinic
_cell_length_a                    10.279259
_cell_length_b                    10.687117
_cell_length_c                    23.413602
_cell_angle_alpha                 91.419896
_cell_angle_beta                  79.975769
_cell_angle_gamma                 95.774568
_cell_volume                      2519.92863788

loop_
_atom_site_label
_atom_site_type_symbol
_atom_type_description
_atom_site_fract_x
_atom_site_fract_y
_atom_site_fract_z
_atom_type_partial_charge
C1    C     C_R   0.555562 0.733066 0.493809 0.975458
C2    C     C_R   0.405841 0.452156 0.298430 -0.183925
C3    C     C_R   0.439533 0.614212 0.767273 0.454305
C4    C     C_R   0.416316 0.472588 0.238714 0.439324
C5    C     C_R   0.530568 0.546551 0.789199 0.095328
C6    C     C_R   0.537531 0.525425 0.206368 0.098639
C7    C     C_2   0.581682 0.868497 0.492921 -0.379042
C8    C     C_2   0.416678 0.140077 0.486354 -0.386190
C9    C     C_2   0.480458 0.932196 0.484818 0.460689
C10   C     C_2   0.460241 0.052138 0.514926 0.319318
C11   C     C_2   0.924286 0.503535 0.509188 0.314630
C12   C     C_R   0.444284 0.267854 0.502352 0.989205
C13   C     C_2   0.070048 0.477820 0.500780 0.390942
C14   C     C_R   0.501495 0.507399 0.610313 0.923003
C15   C     C_R   0.501581 0.499442 0.389438 0.954799
C16   C     C_R   0.540517 0.419107 0.114396 0.645694
C17   C     C_R   0.562287 0.656341 0.878198 0.647183
C18   C     C_R   0.560943 0.643844 0.117957 0.559318
C19   C     C_R   0.498429 0.434908 0.879309 0.545744
C20   C     C_R   0.563833 0.649300 0.058232 -0.043515
C21   C     C_R   0.508165 0.429055 0.937749 -0.036228
C22   C     C_R   0.544130 0.536555 0.027161 -0.078773
C23   C     C_R   0.618852 0.476272 0.751540 -0.030018
C24   C     C_R   0.538139 0.541110 0.967697 -0.074364
C25   C     C_R   0.529325 0.419435 0.055563 -0.148680
C26   C     C_R   0.561902 0.657409 0.938291 -0.142513
C27   C     C_R   0.582893 0.764791 0.029470 -0.277163
C28   C     C_R   0.489795 0.313484 0.966358 -0.272781
C29   C     C_R   0.586630 0.769855 0.969553 0.474688
C30   C     C_R   0.500482 0.307371 0.024782 0.473254
C31   C     C_2   0.124353 0.573165 0.584452 1.041405
C32   C     C_2   0.891430 0.422022 0.417079 1.011086
C33   C     C_3   0.735221 0.936151 0.937158 0.131055
C34   C     C_R   0.644842 0.569060 0.234219 -0.020982
C35   C     C_3   0.753798 0.058565 0.903594 -0.689362
C36   C     C_3   0.350148 0.151807 0.066942 0.128895
C37   C     C_3   0.333937 0.024932 0.096743 -0.698967
C38   C     C_2   0.729411 0.417927 0.770804 0.990802
C39   C     C_2   0.777449 0.617870 0.202035 0.978273
C40   C     C_2   0.391920 0.726128 0.681758 0.993812
C41   C     C_2   0.295277 0.364026 0.328640 1.055453
C42   C     C_3   0.236036 0.612915 0.823180 0.134429
C43   C     C_3   0.144969 0.690094 0.865021 -0.736128
C44   C     C_3   0.238971 0.523159 0.201056 0.101586
C45   C     C_R   0.602115 0.461811 0.694039 -0.258495
C46   C     C_3   0.140962 0.475535 0.161874 -0.743978
C47   C     C_3   0.568784 0.079565 0.593554 0.068440
C48   C     C_3   0.548706 0.141703 0.653050 -0.721046
C49   C     C_3   0.265437 0.874265 0.469288 0.103523
C50   C     C_3   0.187848 0.799331 0.428010 -0.758228
C51   C     C_3   0.054576 0.263129 0.497451 0.127969
C52   C     C_3   0.056762 0.153044 0.455015 -0.816680
C53   C     C_3   0.851667 0.689445 0.551688 0.152447
C54   C     C_3   0.929043 0.782309 0.586477 -0.916139
C55   C     C_R   0.626802 0.563060 0.294426 -0.251270
C56   C     C_R   0.510187 0.526860 0.671843 -0.195651
C57   C     C_R   0.509587 0.504769 0.326618 -0.189680
C58   C     C_R   0.441425 0.617100 0.707073 -0.198010
H1    H     H_    0.595978 0.852083 0.053251 0.210417
H2    H     H_    0.764042 0.957016 0.980337 0.137954
H3    H     H_    0.691177 0.127948 0.927730 0.259374
H4    H     H_    0.859376 0.097947 0.897839 0.193593
H5    H     H_    0.725340 0.041427 0.860220 0.279284
H6    H     H_    0.300148 0.141030 0.028292 0.126139
H7    H     H_    0.300451 0.220363 0.097893 0.165593
H8    H     H_    0.383768 0.031896 0.135321 0.286631
H9    H     H_    0.226847 0.994629 0.110916 0.195055
H10   H     H_    0.378279 0.953410 0.066218 0.249323
H11   H     H_    0.859817 0.286682 0.756281 0.350434
H12   H     H_    0.468765 0.226557 0.943393 0.212410
H13   H     H_    0.950675 0.724002 0.204098 0.337394
H14   H     H_    0.278317 0.871373 0.693927 0.356174
H15   H     H_    0.107784 0.283848 0.332919 0.345903
H16   H     H_    0.251446 0.526992 0.846181 0.134400
H17   H     H_    0.185866 0.584765 0.785634 0.163950
H18   H     H_    0.126142 0.775924 0.843180 0.273789
H19   H     H_    0.048801 0.633484 0.879758 0.212351
H20   H     H_    0.191623 0.718098 0.903384 0.248054
H21   H     H_    0.301580 0.605710 0.179644 0.133107
H22   H     H_    0.182557 0.554249 0.243101 0.198649
H23   H     H_    0.665244 0.402909 0.665546 0.226369
H24   H     H_    0.072553 0.396331 0.182896 0.277462
H25   H     H_    0.082078 0.552469 0.153477 0.227192
H26   H     H_    0.195312 0.442841 0.119819 0.228737
H27   H     H_    0.643746 0.140706 0.563656 0.145195
H28   H     H_    0.606945 0.987785 0.598705 0.173767
H29   H     H_    0.483723 0.077572 0.684978 0.273509
H30   H     H_    0.645889 0.163592 0.667413 0.238524
H31   H     H_    0.500781 0.229629 0.651155 0.241860
H32   H     H_    0.226374 0.967072 0.476331 0.135089
H33   H     H_    0.247208 0.825080 0.511558 0.196093
H34   H     H_    0.706845 0.600264 0.316557 0.215589
H35   H     H_    0.222191 0.704117 0.420704 0.280019
H36   H     H_    0.080557 0.789922 0.446608 0.186053
H37   H     H_    0.202401 0.848368 0.385773 0.266307
H38   H     H_    0.949206 0.266838 0.518586 0.109076
H39   H     H_    0.111733 0.243233 0.531765 0.182582
H40   H     H_    0.159839 0.141741 0.433706 0.287429
H41   H     H_    0.014331 0.065204 0.478511 0.194405
H42   H     H_    0.996370 0.168759 0.421427 0.263495
H43   H     H_    0.746851 0.700653 0.570329 0.211511
H44   H     H_    0.873972 0.719084 0.505404 0.129280
H45   H     H_    0.402876 0.124894 0.441617 0.172970
H46   H     H_    0.032164 0.801708 0.563511 0.250744
H47   H     H_    0.884270 0.873227 0.590288 0.216083
H48   H     H_    0.925757 0.746337 0.630835 0.297251
H49   H     H_    0.665142 0.911046 0.511454 0.066093
H50   H     H_    0.142948 0.689887 0.651277 0.340712
H51   H     H_    0.864158 0.317184 0.346553 0.340981
H52   H     H_    0.802449 0.870042 0.912758 0.146567
N1    N     N_R   0.550093 0.529947 0.144570 -0.330585
N2    N     N_R   0.529695 0.546412 0.850430 -0.333829
N3    N     N_2   0.842710 0.448880 0.476480 -0.217259
N4    N     N_2   0.157290 0.551120 0.523520 -0.236038
O1    O     O_R   0.431060 0.692470 0.504730 -0.557572
O2    O     O_2   0.596555 0.763152 0.847358 -0.481185
O3    O     O_2   0.567746 0.751112 0.149441 -0.564989
O4    O     O_2   0.459722 0.329718 0.851065 -0.570875
O5    O     O_2   0.058565 0.492429 0.616554 -0.622609
O6    O     O_R   0.178191 0.682900 0.608263 -0.802262
O7    O     O_2   0.983871 0.488668 0.389522 -0.633418
O8    O     O_R   0.825294 0.324570 0.389224 -0.786389
O9    O     O_3   0.601154 0.885912 0.943006 -0.560408
O10   O     O_3   0.486782 0.190779 0.050705 -0.561622
O11   O     O_2   0.774666 0.459133 0.813247 -0.649289
O12   O     O_R   0.568940 0.307530 0.495270 -0.608474
O13   O     O_R   0.784853 0.317671 0.739223 -0.805451
O14   O     O_2   0.813138 0.587507 0.151472 -0.641798
O15   O     O_R   0.863550 0.696771 0.230279 -0.799623
O16   O     O_2   0.438820 0.759719 0.632278 -0.630250
O17   O     O_R   0.299193 0.796828 0.715520 -0.766473
O18   O     O_2   0.314675 0.296870 0.367185 -0.641082
O19   O     O_R   0.171508 0.351882 0.311036 -0.742929
O20   O     O_3   0.357619 0.686198 0.804781 -0.546639
O21   O     O_3   0.315198 0.424835 0.209933 -0.579495
O22   O     O_3   0.444881 0.060485 0.575023 -0.598949
O23   O     O_R   0.651120 0.659650 0.489640 -0.678886
O24   O     O_3   0.401738 0.886004 0.444425 -0.610740
O25   O     O_3   0.112048 0.375121 0.467853 -0.564432
O26   O     O_3   0.872569 0.562703 0.560686 -0.587695
O27   O     O_R   0.348880 0.340350 0.510360 -0.586491
O28   O     O_R   0.389950 0.516450 0.591390 -0.596650
O29   O     O_R   0.610050 0.483550 0.408610 -0.606184
O30   O     O_R   0.610020 0.483630 0.576300 -0.593311
O31   O     O_R   0.389980 0.516370 0.423700 -0.582876
O32   O     O_2   0.540053 0.309519 0.141894 -0.479017
Zn1   Zn    Zn3+2 0.353060 0.521920 0.510080 1.042098
Zn2   Zn    Zn3+2 0.646940 0.478080 0.489920 0.989869

loop_
_geom_bond_atom_site_label_1
_geom_bond_atom_site_label_2
_ccdc_geom_bond_type
C51   H39   S    
C14   C56   S    
C14   O28   A    
C23   C45   A    
C47   O22   S    
C27   C29   A    
C53   O26   S    
C6    N1    S    
H50   O6    S    
O23   Zn2   S    
C49   H32   S    
O30   Zn2   S    
C45   H23   S    
C41   O19   S    
C38   O13   S    
C2    C57   A    
C53   C54   S    
C43   H20   S    
C42   H17   S    
C17   C26   A    
C47   H27   S    
N3    Zn2   S    
C54   H46   S    
C36   C37   S    
C19   C21   A    
C10   O22   S    
N4    Zn1   S    
C50   H37   S    
C12   O12   A    
C2    C41   S    
C37   H10   S    
O1    Zn1   S    
C25   C30   A    
C12   O27   A    
C16   O32   S    
C46   H24   S    
C19   O4    S    
C53   H43   S    
C22   C25   A    
C48   H30   S    
C32   N3    S    
C9    C10   S    
C31   N4    S    
C18   C20   A    
C13   N4    D    
C51   H38   S    
C44   O21   S    
C29   O9    S    
C34   C55   A    
C49   O24   S    
C15   C57   S    
C49   H33   S    
C32   O7    D    
O31   Zn1   S    
C44   C46   S    
O29   Zn2   S    
C14   O30   A    
C42   H16   S    
C40   C58   S    
C54   H48   S    
C51   C52   S    
C47   H28   S    
C32   O8    S    
C44   H22   S    
C18   N1    A    
C45   C56   A    
C4    C6    A    
C15   O31   A    
O12   Zn2   S    
C36   H7    S    
C50   H36   S    
C39   O15   S    
C19   N2    A    
C52   H42   S    
C34   C39   S    
C2    C4    A    
C11   O26   S    
C55   H34   S    
H13   O15   S    
C9    O24   S    
C47   C48   S    
C5    C23   A    
C53   H44   S    
C8    C12   S    
C37   H8    S    
C17   O2    S    
C48   H29   S    
C35   H3    S    
C18   O3    S    
C31   O5    D    
C4    O21   S    
C15   O29   A    
C5    N2    S    
C40   O17   S    
C30   O10   S    
C33   H2    S    
C48   H31   S    
C55   C57   A    
C22   C24   A    
C42   C43   S    
C17   N2    A    
C13   O25   S    
C38   O11   D    
C1    O23   A    
H14   O17   S    
H51   O8    S    
C16   C25   A    
C7    C9    D    
C40   O16   D    
C39   O14   D    
C54   H47   S    
C36   O10   S    
C1    C7    S    
O28   Zn1   S    
C21   C28   A    
C44   H21   S    
C28   H12   S    
C24   C26   A    
C20   C22   A    
C3    C5    A    
C41   O18   D    
C50   H35   S    
C20   C27   A    
C43   H19   S    
C23   C38   S    
C52   H41   S    
C42   O20   S    
C3    O20   S    
C28   C30   A    
C27   H1    S    
C11   C13   S    
C37   H9    S    
C52   H40   S    
C33   C35   S    
C56   C58   A    
C46   H26   S    
C35   H4    S    
C7    H49   S    
C11   N3    D    
C8    H45   S    
C31   O6    S    
O27   Zn1   S    
C46   H25   S    
C3    C58   A    
C6    C34   A    
H11   O13   S    
C26   C29   A    
C8    C10   D    
C49   C50   S    
H15   O19   S    
C21   C24   A    
C33   O9    S    
C43   H18   S    
C35   H5    S    
C33   H52   S    
C1    O1    A    
C36   H6    S    
C16   N1    A    
C51   O25   S    
