data_mof_unit_59299.cif
_audit_creation_date              2012-12-10T17:02:55-0500
_audit_creation_method            fapswitch 2.2
_symmetry_space_group_name_H-M    P1
_symmetry_Int_Tables_number       1
_space_group_crystal_system       triclinic
_cell_length_a                    9.827509
_cell_length_b                    11.067644
_cell_length_c                    13.518451
_cell_angle_alpha                 92.485463
_cell_angle_beta                  82.424206
_cell_angle_gamma                 109.584497
_cell_volume                      1373.21061692

loop_
_atom_site_label
_atom_site_type_symbol
_atom_type_description
_atom_site_fract_x
_atom_site_fract_y
_atom_site_fract_z
_atom_type_partial_charge
C1    C     C_R   0.550221 0.742320 0.513442 0.788353
C2    C     C_R   0.379800 0.456904 0.799351 -0.132519
C3    C     C_2   0.546475 0.861880 0.559506 -0.032107
C4    C     C_R   0.423115 0.481429 0.690409 0.813296
C5    C     C_2   0.554925 0.961230 0.500534 0.126392
C6    C     C_2   0.424188 0.116057 0.501832 0.225664
C7    C     C_2   0.520698 0.075517 0.543532 0.154511
C8    C     C_2   0.912196 0.475733 0.499333 0.485796
C9    C     C_2   0.059130 0.474305 0.523217 0.484070
C10   C     C_R   0.444131 0.254733 0.499463 0.719200
C11   C     C_R   0.578144 0.517418 0.310256 0.801211
C12   C     C_R   0.432977 0.487332 0.973309 -0.057496
C13   C     C_R   0.762648 0.700539 0.071956 0.174546
C14   C     C_R   0.624180 0.546605 0.203126 -0.252090
C15   C     C_R   0.231677 0.402176 0.833923 -0.358078
C16   C     C_R   0.182019 0.390128 0.936329 0.318481
C17   C     C_R   0.281110 0.443671 0.005946 0.496356
C18   C     C_3   0.869873 0.712707 0.234672 -0.423980
C19   C     C_3   0.961969 0.625942 0.238499 -0.665924
C20   C     C_3   0.608822 0.957286 0.388608 -0.399351
C21   C     C_3   0.634861 0.079060 0.328523 -0.775225
C22   C     C_3   0.485609 0.846412 0.669707 -0.398850
C23   C     C_R   0.482981 0.489273 0.870041 -0.074375
C24   C     C_3   0.598479 0.839622 0.735231 -0.855046
C25   C     C_3   0.928027 0.675739 0.583552 -0.251143
C26   C     C_3   0.007657 0.772676 0.500879 -0.767794
C27   C     C_3   0.894255 0.656190 0.865396 -0.434413
C28   C     C_3   0.983587 0.599063 0.921097 -0.789692
C29   C     C_3   0.848419 0.839561 0.043899 -0.397528
C30   C     C_3   0.792599 0.932853 0.109852 -0.844280
C31   C     C_3   0.607590 0.148678 0.626336 -0.459819
C32   C     C_3   0.509556 0.177612 0.715595 -0.754752
C33   C     C_R   0.539136 0.534341 0.040252 0.007872
C34   C     C_R   0.676393 0.621381 0.003685 -0.074000
C35   C     C_R   0.731971 0.605364 0.903808 0.029795
C36   C     C_R   0.635524 0.519480 0.843589 0.401106
C37   C     C_R   0.521811 0.485027 0.136718 0.430179
C38   C     C_R   0.748713 0.653797 0.169871 0.083936
Cu1   Cu    Cu3+1 0.362000 0.479240 0.482530 1.018834
Cu2   Cu    Cu3+1 0.638000 0.520760 0.517470 0.984866
H1    H     H_    0.153453 0.369078 0.780880 0.197114
H2    H     H_    0.714220 0.938823 0.381466 0.168657
H3    H     H_    0.530185 0.875987 0.352798 0.221944
H4    H     H_    0.267746 0.074694 0.418536 0.328987
H5    H     H_    0.626616 0.751268 0.718998 0.258923
H6    H     H_    0.699663 0.923464 0.722886 0.245588
H7    H     H_    0.552821 0.837136 0.815063 0.244513
H8    H     H_    0.440167 0.920892 0.697606 0.223316
H9    H     H_    0.391193 0.755991 0.680444 0.214733
H10   H     H_    0.989605 0.466303 0.664321 0.275585
H11   H     H_    0.882744 0.315098 0.428975 0.306426
H12   H     H_    0.040853 0.664323 0.293041 0.248943
H13   H     H_    0.195534 0.407834 0.322134 0.402596
H14   H     H_    0.930860 0.784090 0.452187 0.252639
H15   H     H_    0.060754 0.867196 0.534768 0.250716
H16   H     H_    0.093139 0.741935 0.455801 0.252536
H17   H     H_    0.851979 0.713596 0.632654 0.210355
H18   H     H_    0.009632 0.668945 0.629707 0.170350
H19   H     H_    0.926329 0.494965 0.932621 0.275101
H20   H     H_    0.001860 0.646153 0.994348 0.251275
H21   H     H_    0.091590 0.613870 0.877021 0.246836
H22   H     H_    0.911654 0.631687 0.786018 0.204132
H23   H     H_    0.894310 0.526235 0.259781 0.293861
H24   H     H_    0.940313 0.761789 0.865768 0.194395
H25   H     H_    0.674976 0.912516 0.105071 0.258104
H26   H     H_    0.807782 0.926176 0.188829 0.245533
H27   H     H_    0.853146 0.032618 0.083971 0.268935
H28   H     H_    0.966692 0.860693 0.045944 0.205445
H29   H     H_    0.832608 0.860240 0.967568 0.208416
H30   H     H_    0.445390 0.323966 0.211208 0.309308
H31   H     H_    0.124678 0.434505 0.114679 0.364761
H32   H     H_    0.983591 0.292776 0.912355 0.320369
H33   H     H_    0.770586 0.428504 0.796599 0.313132
H34   H     H_    0.024387 0.623443 0.164295 0.226457
H35   H     H_    0.566368 0.195189 0.783220 0.265426
H36   H     H_    0.482740 0.263277 0.700023 0.270466
H37   H     H_    0.404503 0.099034 0.731902 0.213943
H38   H     H_    0.669452 0.092532 0.653294 0.208638
H39   H     H_    0.694541 0.237707 0.598899 0.245084
H40   H     H_    0.946762 0.806048 0.206143 0.208843
H41   H     H_    0.823984 0.733757 0.309971 0.204458
H42   H     H_    0.531114 0.084963 0.309185 0.267277
H43   H     H_    0.690822 0.165516 0.370061 0.266777
H44   H     H_    0.704816 0.078527 0.257508 0.238620
N1    N     N_2   0.845330 0.551960 0.543750 -0.152120
N2    N     N_2   0.154690 0.448120 0.456210 -0.041188
O1    O     O_R   0.426290 0.668220 0.490680 -0.562343
O2    O     O_3   0.084244 0.484824 0.621480 -0.756626
O3    O     O_3   0.838467 0.383793 0.435730 -0.704075
O4    O     O_3   0.125690 0.443186 0.361395 -0.674183
O5    O     O_3   0.415426 0.367561 0.159732 -0.685528
O6    O     O_3   0.232304 0.461853 0.104442 -0.689863
O7    O     O_3   0.036866 0.329007 0.970093 -0.765125
O8    O     O_3   0.685413 0.443500 0.774499 -0.733583
O9    O     O_R   0.659360 0.703290 0.520190 -0.593837
O10   O     O_R   0.326580 0.473880 0.629020 -0.522758
O11   O     O_R   0.559660 0.508940 0.658530 -0.536213
O12   O     O_R   0.340640 0.296710 0.479810 -0.590866
O13   O     O_R   0.573710 0.331780 0.509320 -0.536971
O14   O     O_R   0.440340 0.491060 0.341470 -0.563517
O15   O     O_R   0.673420 0.526120 0.370980 -0.530508
O16   O     O_3   0.322993 0.028915 0.448906 -0.756212

loop_
_geom_bond_atom_site_label_1
_geom_bond_atom_site_label_2
_ccdc_geom_bond_type
C1    O1    A    
C22   H8    S    
C35   C36   A    
Cu1   O1    S    
C26   H15   S    
C32   H35   S    
C5    C20   S    
C12   C23   A    
C16   O7    S    
C24   H5    S    
C8    N1    D    
C13   C29   S    
C34   C35   A    
C9    O2    S    
C11   C14   S    
C15   C16   A    
C18   H41   S    
C18   C19   S    
C10   O12   A    
C32   H37   S    
C4    O10   A    
C19   H12   S    
H31   O6    S    
H30   O5    S    
C19   H23   S    
C8    C9    S    
C12   C17   A    
C30   H27   S    
H10   O2    S    
C28   H21   S    
Cu2   O15   S    
C4    O11   A    
H13   O4    S    
C17   O6    S    
C25   H17   S    
H33   O8    S    
Cu2   O13   S    
C26   H14   S    
C29   H29   S    
C28   H20   S    
C7    C31   S    
C37   O5    S    
C21   H43   S    
C15   H1    S    
N2    O4    S    
Cu1   Cu2   S    
C5    C7    S    
H4    O16   S    
C16   C17   A    
Cu1   O12   S    
C27   C35   S    
C25   C26   S    
C33   C37   A    
C11   O14   A    
C1    C3    S    
Cu2   N1    S    
C2    C4    S    
C32   H36   S    
C29   C30   S    
C27   H22   S    
C9    N2    D    
C14   C38   A    
C29   H28   S    
C31   C32   S    
C21   H44   S    
C1    O9    A    
C25   N1    S    
C33   C34   A    
C11   O15   A    
C20   C21   S    
C2    C15   A    
C13   C38   A    
C30   H26   S    
C22   H9    S    
H32   O7    S    
C22   C24   S    
C25   H18   S    
Cu2   O9    S    
Cu2   O11   S    
C20   H3    S    
C31   H38   S    
C28   H19   S    
C24   H7    S    
C19   H34   S    
C3    C5    D    
C26   H16   S    
C6    C10   S    
C20   H2    S    
C31   H39   S    
C6    C7    D    
C24   H6    S    
C18   C38   S    
C13   C34   A    
H11   O3    S    
C14   C37   A    
Cu1   O14   S    
C6    O16   S    
C10   O13   A    
Cu1   O10   S    
C30   H25   S    
C27   H24   S    
C36   O8    S    
C21   H42   S    
C18   H40   S    
C23   C36   A    
C2    C23   A    
C3    C22   S    
C8    O3    S    
Cu1   N2    S    
C12   C33   A    
C27   C28   S    
