data_mof_unit_7700.cif
_audit_creation_date              2012-12-10T20:49:44-0500
_audit_creation_method            fapswitch 2.2
_symmetry_space_group_name_H-M    P1
_symmetry_Int_Tables_number       1
_space_group_crystal_system       triclinic
_cell_length_a                    8.117419
_cell_length_b                    8.934118
_cell_length_c                    17.035626
_cell_angle_alpha                 89.996418
_cell_angle_beta                  86.548311
_cell_angle_gamma                 89.998083
_cell_volume                      1233.2160917

loop_
_atom_site_label
_atom_site_type_symbol
_atom_type_description
_atom_site_fract_x
_atom_site_fract_y
_atom_site_fract_z
_atom_type_partial_charge
C1    C     C_R   0.500000 0.781968 0.499983 0.940997
C2    C     C_R   0.500003 0.218031 0.499987 0.935941
C3    C     C_1   0.500000 0.934806 0.499972 -0.179588
C4    C     C_1   0.500004 0.065202 0.499972 -0.176753
C5    C     C_R   0.479381 0.498158 0.652911 0.906314
C6    C     C_R   0.520760 0.494335 0.347342 0.911362
C7    C     C_R   0.470924 0.481087 0.737608 -0.118811
C8    C     C_R   0.531220 0.456319 0.264756 -0.147456
C9    C     C_R   0.614755 0.447772 0.775069 -0.262447
C10   C     C_R   0.400948 0.378750 0.233198 -0.252854
C11   C     C_R   0.608282 0.422669 0.855036 0.700551
C12   C     C_R   0.414689 0.331626 0.155852 0.676730
C13   C     C_R   0.456410 0.431079 0.899331 -0.048276
C14   C     C_R   0.557259 0.365427 0.108746 -0.116621
C15   C     C_R   0.310502 0.464834 0.861557 -0.201122
C16   C     C_R   0.690143 0.442959 0.140375 -0.093174
C17   C     C_R   0.319348 0.489113 0.780658 -0.272610
C18   C     C_R   0.676705 0.484291 0.219259 -0.231465
C19   C     C_2   0.452439 0.425631 0.985205 -0.065585
C20   C     C_2   0.553249 0.339697 0.024791 -0.011170
H1    H     H_    0.733325 0.440488 0.742498 0.189419
H2    H     H_    0.289414 0.352500 0.268674 0.196398
H3    H     H_    0.776881 0.544256 0.244562 0.200624
H4    H     H_    0.207463 0.511762 0.751045 0.181599
H5    H     H_    0.639836 0.261669 0.996238 0.209173
H6    H     H_    0.367623 0.500966 0.017524 0.142863
N1    N     N_1   0.926360 0.500000 0.499990 -0.029750
N2    N     N_1   0.073640 0.500000 0.500010 -0.030153
O1    O     O_R   0.363150 0.714660 0.500000 -0.613162
O2    O     O_R   0.636850 0.285340 0.500000 -0.614240
O3    O     O_R   0.636850 0.714660 0.500000 -0.613754
O4    O     O_R   0.363150 0.285340 0.500000 -0.616468
O5    O     O_R   0.346950 0.500000 0.615800 -0.622202
O6    O     O_R   0.653050 0.500000 0.384200 -0.616638
O7    O     O_R   0.620700 0.500000 0.615800 -0.628223
O8    O     O_R   0.379300 0.500000 0.384200 -0.621026
Zn1   Zn    Zn3+2 0.317220 0.500000 0.500010 1.002069
Zn2   Zn    Zn3+2 0.682780 0.500000 0.499990 1.003373
C21   C     C_2   0.146335 0.471302 0.904421 1.021229
O9    O     O_2   0.106208 0.373721 0.951966 -0.500329
O10   O     O_R   0.034536 0.585854 0.890149 -0.687945
H7    H     H_    0.082324 0.666165 0.853501 0.298553
C22   C     C_2   0.837941 0.493876 0.092607 1.017574
O11   O     O_2   0.825411 0.537184 0.025294 -0.511305
O12   O     O_R   0.990551 0.500788 0.126453 -0.767049
H8    H     H_    0.081154 0.542692 0.089217 0.356599
F1    F     F_    0.286498 0.257669 0.125785 -0.623001
F2    F     F_    0.752630 0.396648 0.888570 -0.618189

loop_
_geom_bond_atom_site_label_1
_geom_bond_atom_site_label_2
_ccdc_geom_bond_type
C2    C4    S    
C22   O11   D    
C15   C17   A    
C14   C20   S    
C8    C18   A    
C11   C13   A    
O10   H7    S    
C19   C20   D    
O3    Zn2   S    
C2    O2    A    
C15   C21   S    
C1    O1    A    
C21   O10   S    
O6    Zn2   S    
O12   H8    S    
C10   H2    S    
C22   O12   S    
C16   C22   S    
C9    H1    S    
C11   F2    S    
C10   C12   A    
N2    Zn1   S    
C12   F1    S    
C5    O7    A    
C2    O4    A    
O8    Zn1   S    
C12   C14   A    
C13   C15   A    
C14   C16   A    
C17   H4    S    
C6    O6    A    
C20   H5    S    
C13   C19   S    
N1    Zn2   S    
C18   H3    S    
C21   O9    D    
C7    C9    A    
C1    O3    A    
O7    Zn2   S    
O2    Zn2   S    
C16   C18   A    
O1    Zn1   S    
N1    N2    T    
C5    C7    S    
C19   H6    S    
C9    C11   A    
C6    C8    S    
C1    C3    S    
O4    Zn1   S    
C8    C10   A    
O5    Zn1   S    
C3    C4    T    
C6    O8    A    
C7    C17   A    
C5    O5    A    
