data_mof_unit_46558.cif
_audit_creation_date              2012-10-26T19:09:54-0400
_audit_creation_method            fapswitch 2.2
_symmetry_space_group_name_H-M    P1
_symmetry_Int_Tables_number       1
_space_group_crystal_system       triclinic
_cell_length_a                    15.192844
_cell_length_b                    15.191823
_cell_length_c                    9.41175
_cell_angle_alpha                 89.899624
_cell_angle_beta                  90.001888
_cell_angle_gamma                 90.000648
_cell_volume                      2172.29441837

loop_
_atom_site_label
_atom_site_type_symbol
_atom_type_description
_atom_site_fract_x
_atom_site_fract_y
_atom_site_fract_z
_atom_type_partial_charge
Br1   Br    Br    0.078005 0.793188 0.699442 -0.585647
Br2   Br    Br    0.288612 0.577005 0.302969 -0.555446
Br3   Br    Br    0.287500 0.421916 0.700581 -0.555633
Br4   Br    Br    0.079472 0.208476 0.296335 -0.583561
Br5   Br    Br    0.578080 0.293059 0.699713 -0.585481
Br6   Br    Br    0.788553 0.077079 0.302753 -0.555502
Br7   Br    Br    0.787589 0.922029 0.700269 -0.555552
Br8   Br    Br    0.579365 0.708308 0.296703 -0.583744
C1    C     C_R   0.119477 0.379080 0.499977 0.615598
C2    C     C_R   0.878408 0.618355 0.499756 0.550853
C3    C     C_R   0.378398 0.881656 0.500232 0.550642
C4    C     C_R   0.378412 0.118359 0.499755 0.550852
C5    C     C_3   0.763968 0.308220 0.648817 -0.212603
C6    C     C_3   0.850870 0.223203 0.466983 -0.198438
C7    C     C_3   0.850665 0.776559 0.535343 -0.198067
C8    C     C_3   0.764970 0.692827 0.350460 -0.212634
C9    C     C_3   0.263919 0.808267 0.648785 -0.212581
C10   C     C_3   0.350873 0.723194 0.467095 -0.198430
C11   C     C_3   0.350659 0.276549 0.535488 -0.198065
C12   C     C_R   0.119404 0.620991 0.500021 0.615542
C13   C     C_3   0.265039 0.192895 0.350413 -0.212661
C14   C     C_3   0.190331 0.738742 0.647617 0.005629
C15   C     C_3   0.280566 0.649835 0.473691 0.002442
C16   C     C_3   0.280482 0.350008 0.528714 0.002559
C17   C     C_3   0.191469 0.262412 0.351511 0.006274
C18   C     C_3   0.690399 0.238676 0.647666 0.005703
C19   C     C_3   0.780565 0.149842 0.473558 0.002452
C20   C     C_3   0.780489 0.850016 0.528529 0.002555
C21   C     C_3   0.691376 0.762321 0.351580 0.006220
C22   C     C_3   0.737583 0.334650 0.387975 -0.234338
C23   C     C_R   0.619470 0.879073 0.499977 0.615598
C24   C     C_3   0.736843 0.664622 0.610327 -0.234521
C25   C     C_3   0.237613 0.834618 0.387897 -0.234323
C26   C     C_3   0.236803 0.164582 0.610216 -0.234520
C27   C     C_3   0.808990 0.313442 0.501020 -0.018073
C28   C     C_3   0.809006 0.686577 0.498941 -0.018798
C29   C     C_3   0.308986 0.813445 0.501020 -0.018071
C30   C     C_3   0.309012 0.186583 0.498937 -0.018804
C31   C     C_3   0.187658 0.690962 0.500204 0.049692
C32   C     C_3   0.187739 0.309119 0.499767 0.049182
C33   C     C_3   0.687666 0.190956 0.500207 0.049655
C34   C     C_R   0.619410 0.120985 0.500022 0.615568
C35   C     C_3   0.687731 0.809111 0.499771 0.049211
C36   C     C_3   0.168434 0.760535 0.382870 -0.209780
C37   C     C_3   0.167666 0.238724 0.615431 -0.209789
C38   C     C_3   0.668393 0.260574 0.382965 -0.209762
C39   C     C_3   0.667723 0.738778 0.615567 -0.209806
C40   C     C_3   0.959020 0.580250 0.083576 -0.108910
C41   C     C_3   0.959909 0.580700 0.916232 -0.102944
C42   C     C_3   0.953060 0.423218 0.083761 -0.103027
C43   C     C_3   0.952253 0.423719 0.916444 -0.109063
C44   C     C_3   0.458281 0.079854 0.083573 -0.108932
C45   C     C_3   0.091942 0.496917 0.083759 -0.097420
C46   C     C_3   0.459172 0.080316 0.916232 -0.102948
C47   C     C_3   0.453775 0.922772 0.083758 -0.103032
C48   C     C_3   0.452948 0.923274 0.916439 -0.109062
C49   C     C_3   0.091874 0.495352 0.916207 -0.096619
C50   C     C_3   0.591967 0.997749 0.083764 -0.097310
C51   C     C_3   0.591913 0.996161 0.916211 -0.096678
C52   C     C_R   0.878399 0.381655 0.500232 0.550633
Cu1   Cu    Cu3+1 0.000100 0.500000 0.642410 0.921348
Cu2   Cu    Cu3+1 0.000100 0.500000 0.357590 0.922137
Cu3   Cu    Cu3+1 0.500100 0.000000 0.642410 0.921425
Cu4   Cu    Cu3+1 0.500100 0.000000 0.357590 0.922057
H1    H     H_    0.813167 0.289947 0.731511 0.113077
H2    H     H_    0.296617 0.605347 0.564013 0.176750
H3    H     H_    0.297232 0.394965 0.439359 0.177498
H4    H     H_    0.206789 0.311931 0.267717 0.146725
H5    H     H_    0.705089 0.189740 0.732655 0.146874
H6    H     H_    0.796651 0.105320 0.563817 0.176834
H7    H     H_    0.797197 0.894916 0.439076 0.177448
H8    H     H_    0.706618 0.811795 0.267676 0.146765
H9    H     H_    0.704989 0.398263 0.413855 0.144613
H10   H     H_    0.767771 0.341698 0.280836 0.136414
H11   H     H_    0.766318 0.656687 0.717830 0.136578
H12   H     H_    0.904445 0.208293 0.544115 0.133324
H13   H     H_    0.704330 0.601264 0.582614 0.144903
H14   H     H_    0.205002 0.898234 0.413710 0.144647
H15   H     H_    0.267835 0.841644 0.280779 0.136414
H16   H     H_    0.266233 0.156621 0.717747 0.136579
H17   H     H_    0.204314 0.101226 0.582417 0.144857
H18   H     H_    0.889487 0.584315 0.119802 0.122211
H19   H     H_    0.890843 0.586374 0.878406 0.122848
H20   H     H_    0.883787 0.423609 0.121803 0.120126
H21   H     H_    0.882676 0.425585 0.879793 0.121743
H22   H     H_    0.388716 0.083279 0.119829 0.122189
H23   H     H_    0.904870 0.791918 0.459605 0.135756
H24   H     H_    0.390059 0.085353 0.878384 0.122586
H25   H     H_    0.384499 0.922515 0.121777 0.120353
H26   H     H_    0.383348 0.924525 0.879850 0.121769
H27   H     H_    0.129964 0.555053 0.120250 0.169892
H28   H     H_    0.132144 0.551050 0.875618 0.155666
H29   H     H_    0.127259 0.437855 0.123813 0.153660
H30   H     H_    0.124718 0.434031 0.880156 0.167662
H31   H     H_    0.629442 0.056257 0.120187 0.169604
H32   H     H_    0.631687 0.052218 0.875652 0.155377
H33   H     H_    0.627839 0.939039 0.123900 0.153817
H34   H     H_    0.814731 0.711717 0.269021 0.113141
H35   H     H_    0.625302 0.935141 0.880142 0.167942
H36   H     H_    0.737505 0.374032 0.678104 0.173758
H37   H     H_    0.881432 0.226114 0.359720 0.216415
H38   H     H_    0.880313 0.772928 0.643220 0.216540
H39   H     H_    0.738717 0.627231 0.319470 0.174186
H40   H     H_    0.237467 0.874093 0.678021 0.173798
H41   H     H_    0.381457 0.726070 0.359846 0.216480
H42   H     H_    0.380280 0.272869 0.643381 0.216484
H43   H     H_    0.238773 0.127318 0.319349 0.174154
H44   H     H_    0.101463 0.788868 0.396159 0.160091
H45   H     H_    0.313089 0.789993 0.731522 0.113018
H46   H     H_    0.169832 0.729346 0.276051 0.162488
H47   H     H_    0.168398 0.269157 0.722834 0.162156
H48   H     H_    0.100757 0.210571 0.600424 0.160240
H49   H     H_    0.601432 0.288908 0.396368 0.160099
H50   H     H_    0.669736 0.229426 0.276114 0.162458
H51   H     H_    0.668536 0.769267 0.722928 0.162183
H52   H     H_    0.600799 0.710630 0.600722 0.160230
H53   H     H_    0.992803 0.640103 0.124285 0.128165
H54   H     H_    0.995274 0.640057 0.877154 0.169474
H55   H     H_    0.983188 0.361001 0.122815 0.168326
H56   H     H_    0.404427 0.708309 0.544273 0.133374
H57   H     H_    0.980906 0.361177 0.876011 0.128201
H58   H     H_    0.491519 0.140014 0.124270 0.128149
H59   H     H_    0.493998 0.139996 0.877158 0.169362
H60   H     H_    0.484474 0.860839 0.122812 0.168514
H61   H     H_    0.482143 0.860994 0.875960 0.128202
H62   H     H_    0.404884 0.291946 0.459809 0.135731
H63   H     H_    0.314838 0.211788 0.269035 0.113214
H64   H     H_    0.204963 0.689838 0.732683 0.146919
N1    N     N_3   0.001260 0.500000 0.143650 -0.246735
N2    N     N_3   0.001260 0.500000 0.856350 -0.247726
N3    N     N_3   0.501260 0.000000 0.143650 -0.246841
N4    N     N_3   0.501260 0.000000 0.856350 -0.247627
O1    O     O_R   0.091250 0.408820 0.620260 -0.489546
O2    O     O_R   0.908940 0.408800 0.379740 -0.508118
O3    O     O_R   0.908940 0.591200 0.620260 -0.507952
O4    O     O_R   0.908940 0.591200 0.379740 -0.525359
O5    O     O_R   0.408940 0.908800 0.620260 -0.525593
O6    O     O_R   0.408940 0.908800 0.379740 -0.508094
O7    O     O_R   0.408940 0.091200 0.620260 -0.507977
O8    O     O_R   0.408940 0.091200 0.379740 -0.525388
O9    O     O_R   0.091250 0.408820 0.379740 -0.482233
O10   O     O_R   0.091250 0.591180 0.620260 -0.483241
O11   O     O_R   0.091250 0.591180 0.379740 -0.489613
O12   O     O_R   0.591250 0.908820 0.620260 -0.489539
O13   O     O_R   0.591250 0.908820 0.379740 -0.482330
O14   O     O_R   0.591250 0.091180 0.620260 -0.483143
O15   O     O_R   0.591250 0.091180 0.379740 -0.489629
O16   O     O_R   0.908940 0.408800 0.620260 -0.525620

loop_
_geom_bond_atom_site_label_1
_geom_bond_atom_site_label_2
_ccdc_geom_bond_type
C47   C48   S    
C49   H28   S    
C52   O2    A    
Cu4   O13   S    
C51   H35   S    
C33   C34   S    
C12   O11   A    
Cu2   O11   S    
C46   H59   S    
C43   H21   S    
C24   H11   S    
Br4   C17   S    
C37   H48   S    
Cu1   O1    S    
Cu4   O6    S    
C39   H51   S    
C50   H33   S    
C23   C35   S    
C22   C27   S    
Br8   C21   S    
C24   C28   S    
C15   H2    S    
C42   N1    S    
C3    O6    A    
C2    O4    A    
C5    C27   S    
C17   C32   S    
C22   H10   S    
C25   H14   S    
Cu2   O4    S    
C23   O12   A    
C3    C29   S    
C16   H3    S    
C26   H16   S    
C24   H13   S    
C44   H58   S    
C13   C30   S    
C41   H54   S    
C45   H27   S    
Cu3   O12   S    
C4    O8    A    
C26   H17   S    
C6    C19   S    
C13   H63   S    
Cu3   O14   S    
C21   H8    S    
C48   H26   S    
Br1   C14   S    
C21   C35   S    
Cu3   O5    S    
Cu2   N1    S    
Br3   C16   S    
C32   C37   S    
C17   H4    S    
C31   C36   S    
C34   O15   A    
C43   N2    S    
C44   C46   S    
C36   H44   S    
C39   H52   S    
C51   N4    S    
C38   H50   S    
C45   H29   S    
C42   H55   S    
C12   O10   A    
C49   N2    S    
C2    O3    A    
C6    C27   S    
C12   C31   S    
C1    O9    A    
C25   H15   S    
C6    H37   S    
C5    H1    S    
C50   C51   S    
Cu3   N4    S    
C1    C32   S    
C25   C29   S    
Br7   C20   S    
C10   C15   S    
C27   C52   S    
C6    H12   S    
C50   H31   S    
C11   C30   S    
C19   C33   S    
C8    H39   S    
C14   H64   S    
Br6   C19   S    
Cu4   N3    S    
C50   N3    S    
C33   C38   S    
C42   C43   S    
C4    O7    A    
C26   C37   S    
C9    C29   S    
C48   H61   S    
C48   N4    S    
C19   H6    S    
Cu1   N2    S    
C40   C41   S    
C13   H43   S    
C47   N3    S    
C49   H30   S    
Cu4   O15   S    
C43   H57   S    
C24   C39   S    
C40   N1    S    
C44   N3    S    
C20   H7    S    
C45   N1    S    
C51   H32   S    
Cu2   O9    S    
C34   O14   A    
C10   H56   S    
C7    C28   S    
Cu1   O3    S    
C7    H23   S    
Cu4   O8    S    
C22   H9    S    
C13   C17   S    
C47   H60   S    
C45   C49   S    
C11   H62   S    
C38   H49   S    
C26   C30   S    
C25   C36   S    
Cu3   O7    S    
Cu1   O16   S    
C10   C29   S    
Cu3   Cu4   S    
C9    H45   S    
C37   H47   S    
C40   H53   S    
C46   N4    S    
C41   N2    S    
C20   C35   S    
C9    C14   S    
C41   H19   S    
C22   C38   S    
Cu2   O2    S    
C5    H36   S    
C44   H22   S    
C11   C16   S    
C3    O5    A    
C10   H41   S    
C47   H25   S    
C36   H46   S    
C8    C28   S    
C46   H24   S    
C8    H34   S    
C7    C20   S    
C15   C31   S    
C14   C31   S    
C16   C32   S    
C40   H18   S    
C42   H20   S    
C7    H38   S    
C4    C30   S    
Cu1   Cu2   S    
C5    C18   S    
Br5   C18   S    
C23   O13   A    
C11   H42   S    
Cu1   O10   S    
C8    C21   S    
Br2   C15   S    
C18   H5    S    
C2    C28   S    
C52   O16   A    
C35   C39   S    
C18   C33   S    
C9    H40   S    
C1    O1    A    
