data_mof_unit_8306.cif
_audit_creation_date              2012-10-26T21:08:05-0400
_audit_creation_method            fapswitch 2.2
_symmetry_space_group_name_H-M    P1
_symmetry_Int_Tables_number       1
_space_group_crystal_system       triclinic
_cell_length_a                    15.847987
_cell_length_b                    10.948097
_cell_length_c                    9.788458
_cell_angle_alpha                 90.17485
_cell_angle_beta                  88.431844
_cell_angle_gamma                 95.9742
_cell_volume                      1688.49271553

loop_
_atom_site_label
_atom_site_type_symbol
_atom_type_description
_atom_site_fract_x
_atom_site_fract_y
_atom_site_fract_z
_atom_type_partial_charge
C1    C     C_R   0.498636 0.262450 0.500502 0.564998
C2    C     C_R   0.492345 0.072794 0.864656 -0.042669
C3    C     C_R   0.433464 0.964937 0.863002 0.290917
C4    C     C_R   0.340334 0.497799 0.501871 0.547953
C5    C     C_R   0.430346 0.888193 0.747151 0.316646
C6    C     C_R   0.471910 0.933337 0.624123 -0.067375
C7    C     C_R   0.503690 0.057945 0.620388 -0.091571
C8    C     C_R   0.490973 0.126610 0.502126 0.031862
C9    C     C_R   0.453882 0.062362 0.391947 0.222908
C10   C     C_R   0.465024 0.936708 0.378316 -0.010050
C11   C     C_R   0.475069 0.867752 0.499634 -0.042763
C12   C     C_3   0.082277 0.478469 0.516613 -0.003265
C13   C     C_R   0.654048 0.570793 0.128920 0.063911
C14   C     C_R   0.724149 0.537076 0.049496 -0.033697
C15   C     C_R   0.722135 0.556503 0.907189 0.219159
C16   C     C_R   0.492838 0.736253 0.499751 0.508303
C17   C     C_R   0.648721 0.597787 0.855976 0.127270
C18   C     C_R   0.570638 0.552094 0.922940 0.046377
C19   C     C_R   0.573127 0.541071 0.069883 0.016145
C20   C     C_R   0.430745 0.454651 0.077240 0.408641
C21   C     C_R   0.431637 0.451871 0.929477 0.336192
C22   C     C_R   0.658932 0.493370 0.499019 0.512666
C23   C     C_3   0.976842 0.590892 0.532801 -0.029494
C24   C     C_3   0.962582 0.403109 0.608442 0.232274
C25   C     C_3   0.020503 0.362214 0.491375 0.011758
C26   C     C_1   0.250279 0.491459 0.507565 0.026292
C27   C     C_1   0.747810 0.483039 0.498752 -0.010021
C28   C     C_3   0.025019 0.518324 0.636808 -0.132401
C29   C     C_3   0.047676 0.233643 0.468277 -0.265291
C30   C     C_3   0.971761 0.138835 0.445413 -0.418012
C31   C     C_3   0.490576 0.899588 0.236197 -0.250120
C32   C     C_3   0.581365 0.957112 0.205086 -0.460726
C33   C     C_3   0.667770 0.700862 0.184676 -0.231876
C34   C     C_3   0.914474 0.475113 0.506837 0.078537
C35   C     C_3   0.723312 0.727300 0.309373 -0.414165
C36   C     C_3   0.803796 0.506431 0.116482 -0.239869
C37   C     C_3   0.875728 0.611367 0.102822 -0.396008
C38   C     C_3   0.662325 0.715204 0.770049 -0.216727
C39   C     C_3   0.627113 0.824766 0.838627 -0.456497
C40   C     C_3   0.949380 0.719189 0.556892 -0.291689
C41   C     C_3   0.024245 0.811201 0.593893 -0.427067
C42   C     C_3   0.501243 0.158880 0.985525 -0.277055
C43   C     C_3   0.591151 0.222061 0.004907 -0.440141
C44   C     C_3   0.034561 0.550969 0.415232 0.248757
C45   C     C_3   0.973168 0.436140 0.390260 0.233632
C46   C     C_1   0.174374 0.485119 0.513337 0.004973
C47   C     C_1   0.822859 0.476840 0.501768 0.020526
C48   C     C_R   0.531673 0.112628 0.741529 -0.133574
Cu1   Cu    Cu3+1 0.499990 0.499990 0.640660 0.970951
Cu2   Cu    Cu3+1 0.500010 0.500010 0.359340 1.013376
H1    H     H_    0.046690 0.549949 0.739089 0.131931
H2    H     H_    0.586586 0.058180 0.216308 0.171158
H3    H     H_    0.625672 0.925189 0.279421 0.148709
H4    H     H_    0.600903 0.934827 0.099584 0.134390
H5    H     H_    0.481106 0.801822 0.210657 0.189763
H6    H     H_    0.447878 0.933864 0.164060 0.182217
H7    H     H_    0.313887 0.376478 0.091078 0.349790
H8    H     H_    0.774074 0.666770 0.316771 0.146073
H9    H     H_    0.754646 0.822760 0.302954 0.109845
H10   H     H_    0.683883 0.722409 0.404823 0.148751
H11   H     H_    0.695431 0.761993 0.101526 0.113664
H12   H     H_    0.576176 0.194046 0.738304 0.172572
H13   H     H_    0.605604 0.730152 0.209483 0.177354
H14   H     H_    0.916960 0.597943 0.011731 0.170139
H15   H     H_    0.850934 0.702174 0.094449 0.150368
H16   H     H_    0.915301 0.613600 0.194210 0.171159
H17   H     H_    0.789779 0.484840 0.225465 0.175432
H18   H     H_    0.824487 0.420704 0.071792 0.173666
H19   H     H_    0.828666 0.493338 0.856461 0.354268
H20   H     H_    0.563985 0.798577 0.887856 0.180294
H21   H     H_    0.672129 0.865269 0.914798 0.120838
H22   H     H_    0.621557 0.896777 0.761023 0.147497
H23   H     H_    0.929517 0.130294 0.537980 0.184948
H24   H     H_    0.731310 0.742338 0.751673 0.156182
H25   H     H_    0.639072 0.705147 0.666276 0.182592
H26   H     H_    0.385565 0.347507 0.786792 0.361119
H27   H     H_    0.969373 0.295306 0.760623 0.320579
H28   H     H_    0.998898 0.382060 0.208946 0.342774
H29   H     H_    0.039332 0.692419 0.297747 0.314590
H30   H     H_    0.054536 0.781200 0.687299 0.169935
H31   H     H_    0.072087 0.820864 0.508597 0.177874
H32   H     H_    0.001470 0.902112 0.614564 0.135943
H33   H     H_    0.919789 0.750292 0.463286 0.121641
H34   H     H_    0.935063 0.164904 0.357054 0.193375
H35   H     H_    0.901209 0.714667 0.641810 0.186262
H36   H     H_    0.367834 0.064012 0.256257 0.317532
H37   H     H_    0.638798 0.154835 0.994544 0.150811
H38   H     H_    0.606571 0.297104 0.929691 0.153069
H39   H     H_    0.595400 0.264095 0.108239 0.169451
H40   H     H_    0.456581 0.228247 0.974066 0.175629
H41   H     H_    0.481911 0.110183 0.079456 0.196006
H42   H     H_    0.994534 0.048153 0.423345 0.124083
H43   H     H_    0.091376 0.235726 0.377447 0.156570
H44   H     H_    0.082364 0.206736 0.558662 0.145193
H45   H     H_    0.359240 0.015530 0.007815 0.309892
H46   H     H_    0.355367 0.761974 0.658487 0.319917
N1    N     N_R   0.500800 0.501210 0.147910 -0.239205
N2    N     N_R   0.500830 0.501290 0.852040 -0.257117
O1    O     O_R   0.499990 0.319640 0.618810 -0.554526
O2    O     O_3   0.374072 0.782959 0.752144 -0.607630
O3    O     O_3   0.362009 0.399384 0.151486 -0.629549
O4    O     O_3   0.791781 0.552239 0.820116 -0.719872
O5    O     O_3   0.363199 0.390259 0.866797 -0.714069
O6    O     O_3   0.922688 0.325843 0.709518 -0.707351
O7    O     O_3   0.946270 0.393149 0.262529 -0.738165
O8    O     O_3   0.075661 0.625661 0.312640 -0.683931
O9    O     O_3   0.411300 0.123782 0.297074 -0.688196
O10   O     O_R   0.500000 0.319660 0.381240 -0.422809
O11   O     O_R   0.379070 0.499980 0.618770 -0.473644
O12   O     O_R   0.379080 0.500000 0.381190 -0.420288
O13   O     O_R   0.500000 0.680340 0.618760 -0.486974
O14   O     O_R   0.500010 0.680360 0.381190 -0.530549
O15   O     O_R   0.620920 0.500000 0.618810 -0.502641
O16   O     O_R   0.620930 0.500020 0.381230 -0.509203
O17   O     O_3   0.372275 0.937784 0.964089 -0.673027

loop_
_geom_bond_atom_site_label_1
_geom_bond_atom_site_label_2
_ccdc_geom_bond_type
Cu1   O15   S    
C4    O11   A    
C1    C8    S    
H36   O9    S    
C1    O1    A    
C41   H30   S    
C19   N1    A    
C36   H17   S    
C7    C8    A    
H19   O4    S    
C43   H39   S    
Cu2   O16   S    
C12   C28   S    
C35   H8    S    
C5    C6    A    
C43   H38   S    
C36   C37   S    
C42   H41   S    
C14   C36   S    
C29   H44   S    
C28   H1    S    
C23   C40   S    
Cu2   O12   S    
C35   H9    S    
C18   C19   A    
C32   H2    S    
Cu1   N2    S    
C10   C31   S    
C22   O15   A    
C20   N1    A    
H45   O17   S    
C8    C9    A    
C37   H15   S    
C39   H22   S    
C31   H6    S    
C9    C10   A    
Cu1   O13   S    
H26   O5    S    
C13   C14   A    
Cu2   O10   S    
C40   H33   S    
C32   H4    S    
C45   O7    S    
C38   H25   S    
C25   C29   S    
C13   C19   A    
C24   C25   S    
C12   C46   S    
C6    C11   A    
C30   H23   S    
C20   O3    S    
C2    C48   A    
C24   C34   S    
C23   C44   S    
H29   O8    S    
C35   H10   S    
C24   O6    S    
C40   H35   S    
C13   C33   S    
C29   C30   S    
Cu1   O1    S    
C11   C16   S    
C48   H12   S    
C31   C32   S    
C5    O2    S    
C33   H13   S    
C23   C34   S    
C41   H31   S    
C37   H16   S    
Cu2   O14   S    
C17   C18   A    
C34   C45   S    
C23   C28   S    
C31   H5    S    
C30   H42   S    
C40   C41   S    
C22   C27   S    
H28   O7    S    
C42   C43   S    
C25   C45   S    
C32   H3    S    
C37   H14   S    
C44   C45   S    
C16   O14   A    
Cu1   O11   S    
C38   H24   S    
C27   C47   T    
C15   C17   A    
C4    O12   A    
Cu2   N1    S    
C24   C28   S    
C3    C5    A    
C4    C26   S    
C36   H18   S    
C6    C7    A    
C44   O8    S    
C9    O9    S    
H7    O3    S    
C12   C25   S    
C43   H37   S    
C7    C48   A    
C2    C3    A    
C12   C44   S    
C3    O17   S    
C29   H43   S    
C21   N2    A    
C38   C39   S    
C2    C42   S    
C41   H32   S    
H46   O2    S    
C33   C35   S    
C39   H20   S    
C17   C38   S    
C15   O4    S    
C30   H34   S    
C10   C11   A    
C26   C46   T    
C1    O10   A    
C21   O5    S    
C22   O16   A    
C20   C21   A    
C33   H11   S    
Cu1   Cu2   S    
C39   H21   S    
C14   C15   A    
H27   O6    S    
C34   C47   S    
C18   N2    A    
C42   H40   S    
C16   O13   A    
