data_mof_unit_50826.cif
_audit_creation_date              2012-12-11T14:41:09-0500
_audit_creation_method            fapswitch 2.2
_symmetry_space_group_name_H-M    P1
_symmetry_Int_Tables_number       1
_space_group_crystal_system       triclinic
_cell_length_a                    6.935568
_cell_length_b                    17.752524
_cell_length_c                    18.988331
_cell_angle_alpha                 89.997015
_cell_angle_beta                  89.992791
_cell_angle_gamma                 92.670642
_cell_volume                      2335.37690017

loop_
_atom_site_label
_atom_site_type_symbol
_atom_type_description
_atom_site_fract_x
_atom_site_fract_y
_atom_site_fract_z
_atom_type_partial_charge
O1    O     O_R   0.377350 0.828520 0.186660 -0.537101
O2    O     O_R   0.622650 0.171480 0.813340 -0.537536
O3    O     O_R   0.122650 0.171480 0.686660 -0.537366
O4    O     O_R   0.877350 0.828520 0.313340 -0.537982
O5    O     O_R   0.877350 0.671480 0.313340 -0.538542
O6    O     O_R   0.122650 0.328520 0.686660 -0.538842
O7    O     O_R   0.622650 0.328520 0.813340 -0.538617
O8    O     O_R   0.377350 0.671480 0.186660 -0.538528
O9    O     O_R   0.707090 0.671930 0.178410 -0.541526
O10   O     O_R   0.292910 0.328070 0.821590 -0.541512
O11   O     O_R   0.792910 0.328070 0.678410 -0.541377
O12   O     O_R   0.207090 0.671930 0.321590 -0.541578
O13   O     O_R   0.207090 0.828070 0.321590 -0.542416
O14   O     O_R   0.792910 0.171930 0.678410 -0.541308
O15   O     O_R   0.292910 0.171930 0.821590 -0.543226
O16   O     O_R   0.707090 0.828070 0.178410 -0.543233
C1    C     C_R   0.534029 0.645577 0.161673 0.716429
C2    C     C_R   0.465972 0.354419 0.838331 0.716229
C3    C     C_R   0.965990 0.354394 0.661646 0.715268
C4    C     C_R   0.034017 0.645542 0.338294 0.716136
C5    C     C_R   0.042134 0.854104 0.339027 0.716702
C6    C     C_R   0.957740 0.145804 0.661040 0.717126
C7    C     C_R   0.457793 0.145850 0.838992 0.716072
C8    C     C_R   0.542205 0.854131 0.160986 0.717145
O17   O     O_3   0.543850 0.750000 0.294270 -0.367256
O18   O     O_3   0.456150 0.250000 0.705730 -0.366504
O19   O     O_3   0.956150 0.250000 0.794270 -0.367486
O20   O     O_3   0.043850 0.750000 0.205730 -0.367293
V1    V     V_3+5 0.818700 0.750000 0.241790 1.398941
V2    V     V_3+5 0.181300 0.250000 0.758210 1.398569
V3    V     V_3+5 0.681300 0.250000 0.741790 1.402080
V4    V     V_3+5 0.318700 0.750000 0.258210 1.399598
C9    C     C_R   0.994515 0.416036 0.609123 -0.129764
C10   C     C_R   0.005565 0.583786 0.390718 -0.129795
C11   C     C_R   0.505564 0.583874 0.109205 -0.129655
C12   C     C_R   0.494439 0.416117 0.890805 -0.129610
C13   C     C_R   0.452004 0.084604 0.892887 -0.123166
C14   C     C_R   0.548017 0.915351 0.107060 -0.122974
C15   C     C_R   0.047347 0.915284 0.392929 -0.101133
C16   C     C_R   0.951181 0.084718 0.606975 -0.145776
C17   C     C_R   0.795945 0.479726 0.436882 0.320102
C18   C     C_R   0.204436 0.519917 0.562836 0.318977
C19   C     C_R   0.704318 0.520039 0.937028 0.319121
C20   C     C_R   0.295687 0.479948 0.062986 0.319081
C21   C     C_R   0.729494 0.021166 0.050224 0.308112
C22   C     C_R   0.270592 0.978753 0.949685 0.308359
C23   C     C_R   0.765981 0.980318 0.549113 0.309830
C24   C     C_R   0.224637 0.021635 0.449175 0.304062
C25   C     C_R   0.842482 0.534285 0.384914 -0.192844
C26   C     C_R   0.157645 0.465502 0.614891 -0.192690
C27   C     C_R   0.657573 0.465584 0.885008 -0.192360
C28   C     C_R   0.342425 0.534409 0.115002 -0.192646
C29   C     C_R   0.709157 0.966015 0.103692 -0.207627
C30   C     C_R   0.290905 0.033920 0.896230 -0.208402
C31   C     C_R   0.787306 0.035373 0.602657 -0.173982
C32   C     C_R   0.208678 0.965859 0.396782 -0.249528
C33   C     C_R   0.126712 0.577915 0.449079 -0.248147
C34   C     C_R   0.873581 0.421780 0.550685 -0.250924
C35   C     C_R   0.373408 0.421929 0.949220 -0.248219
C36   C     C_R   0.626609 0.578053 0.050796 -0.248117
C37   C     C_R   0.403024 0.920160 0.056202 -0.243334
C38   C     C_R   0.597013 0.079781 0.943734 -0.243353
C39   C     C_R   0.097630 0.078763 0.556791 -0.242033
C40   C     C_R   0.899739 0.920995 0.442901 -0.239910
C41   C     C_R   0.083621 0.524620 0.502963 0.048083
C42   C     C_R   0.916738 0.475035 0.496766 0.047230
C43   C     C_R   0.416536 0.475213 0.003110 0.047860
C44   C     C_R   0.583476 0.524770 0.996905 0.047945
C45   C     C_R   0.417282 0.974651 0.001602 0.047421
C46   C     C_R   0.582782 0.025275 0.998319 0.047324
C47   C     C_R   0.079151 0.025871 0.501115 0.087556
C48   C     C_R   0.913044 0.975737 0.497425 0.018990
H1    H     H_    0.748366 0.383262 0.547137 0.148753
H2    H     H_    0.251950 0.616420 0.452635 0.149453
H3    H     H_    0.751850 0.616558 0.047228 0.149364
H4    H     H_    0.248177 0.383420 0.952791 0.149368
H5    H     H_    0.717259 0.120738 0.941422 0.146439
H6    H     H_    0.282757 0.879213 0.058523 0.146465
H7    H     H_    0.778772 0.880404 0.440189 0.144517
H8    H     H_    0.223802 0.116848 0.560501 0.173653
H9    H     H_    0.247886 0.461414 0.661064 0.127474
H10   H     H_    0.752137 0.538450 0.338778 0.127509
H11   H     H_    0.252128 0.538542 0.161165 0.127335
H12   H     H_    0.747857 0.461456 0.838841 0.127334
H13   H     H_    0.179156 0.038908 0.857043 0.131077
H14   H     H_    0.820917 0.961028 0.142875 0.131438
H15   H     H_    0.323265 0.962527 0.358243 0.124639
H16   H     H_    0.674835 0.040937 0.641480 0.131201
N1    N     N_2   0.630453 0.428880 0.429691 -0.520311
H17   H     H_    0.660255 0.372530 0.431183 0.242276
C49   C     C_3   0.476846 0.446539 0.381670 -0.536717
H18   H     H_    0.347259 0.409499 0.393188 0.200784
H19   H     H_    0.521896 0.436655 0.326424 0.174746
H20   H     H_    0.437265 0.505948 0.388479 0.217132
N2    N     N_2   0.370218 0.570617 0.569950 -0.520049
H21   H     H_    0.340702 0.626996 0.568579 0.246527
C50   C     C_3   0.523999 0.552720 0.617810 -0.530714
H22   H     H_    0.653943 0.589480 0.606088 0.203514
H23   H     H_    0.562708 0.493206 0.611040 0.215575
H24   H     H_    0.479590 0.562781 0.673097 0.174670
N3    N     N_2   0.870139 0.570724 0.929897 -0.519932
H25   H     H_    0.840685 0.627109 0.931316 0.246583
C51   C     C_3   0.023845 0.552849 0.881982 -0.530636
H26   H     H_    0.153781 0.589641 0.893636 0.203467
H27   H     H_    0.979289 0.562888 0.826707 0.174685
H28   H     H_    0.062654 0.493346 0.888755 0.215484
N4    N     N_2   0.129862 0.429263 0.070119 -0.519860
H29   H     H_    0.159329 0.372881 0.068729 0.246246
C52   C     C_3   0.976142 0.447146 0.118017 -0.531920
H30   H     H_    0.846226 0.410351 0.106358 0.203290
H31   H     H_    0.937335 0.506646 0.111233 0.215817
H32   H     H_    0.020663 0.437118 0.173292 0.174055
N5    N     N_2   0.897404 0.071428 0.046658 -0.527328
H33   H     H_    0.965012 0.073696 0.998330 0.260922
C53   C     C_3   0.029254 0.077965 0.105683 -0.560511
H34   H     H_    0.135769 0.125539 0.096233 0.203916
H35   H     H_    0.109274 0.025568 0.111406 0.192158
H36   H     H_    0.949515 0.089859 0.154884 0.203131
N6    N     N_2   0.102727 0.928468 0.953226 -0.527337
H37   H     H_    0.035022 0.926207 0.001539 0.260850
C54   C     C_3   0.971011 0.921885 0.894158 -0.559589
H38   H     H_    0.864592 0.874271 0.903574 0.204308
H39   H     H_    0.050900 0.910024 0.844978 0.203377
H40   H     H_    0.890857 0.974252 0.888414 0.191591
N7    N     N_2   0.597766 0.930224 0.545683 -0.523004
H41   H     H_    0.530984 0.927033 0.497249 0.253619
C55   C     C_3   0.465604 0.924092 0.604654 -0.543997
H42   H     H_    0.358486 0.876718 0.595265 0.200146
H43   H     H_    0.386420 0.976688 0.610247 0.199855
H44   H     H_    0.544977 0.912149 0.653918 0.197418
N8    N     N_2   0.389663 0.072517 0.449779 -0.525711
H45   H     H_    0.513902 0.049093 0.431856 0.255944
C56   C     C_3   0.359131 0.144173 0.416289 -0.572842
H46   H     H_    0.489539 0.182147 0.423297 0.200301
H47   H     H_    0.234231 0.171679 0.440231 0.203673
H48   H     H_    0.332607 0.135918 0.358998 0.193251

loop_
_geom_bond_atom_site_label_1
_geom_bond_atom_site_label_2
_ccdc_geom_bond_type
C33   H2    S    
C17   N1    S    
C9    C34   A    
O3    V2    S    
C38   H5    S    
N2    H21   S    
O14   V3    S    
C12   C35   A    
C19   C27   A    
C55   H43   S    
C13   C38   A    
O5    C4    A    
O6    C3    A    
O11   C3    A    
N3    H25   S    
C16   C39   A    
O20   V1    S    
C52   H31   S    
C53   H34   S    
C50   H22   S    
C38   C46   A    
C31   H16   S    
C22   C45   A    
O13   V4    S    
C35   C43   A    
C34   C42   A    
C19   C44   A    
C53   H35   S    
C56   H48   S    
C8    C14   S    
N4    H29   S    
C24   N8    S    
C29   H14   S    
N1    C49   S    
O4    V1    S    
O9    V1    S    
C14   C37   A    
C4    C10   S    
C53   H36   S    
O17   V4    S    
O15   C7    A    
O11   V3    S    
O18   V3    S    
N3    C51   S    
O12   V4    S    
O19   V2    S    
N4    C52   S    
C22   C30   A    
C17   C25   A    
C50   H23   S    
C23   N7    S    
O5    V1    S    
C39   H8    S    
N6    C54   S    
O17   V1    S    
O7    V3    S    
C20   C43   A    
O19   V3    S    
C18   N2    S    
O8    V4    S    
O20   V4    S    
C3    C9    S    
C52   H32   S    
C49   H18   S    
C54   H40   S    
C32   H15   S    
C9    C26   A    
C7    C13   S    
O1    V4    S    
C43   C44   A    
C11   C36   A    
C25   H10   S    
C28   H11   S    
C19   N3    S    
C15   C40   A    
C49   H19   S    
O10   V2    S    
C15   C32   A    
C5    C15   S    
C37   H6    S    
O7    C2    A    
C6    C16   S    
O12   C4    A    
O13   C5    A    
C51   H27   S    
N7    C55   S    
C54   H38   S    
C12   C27   A    
C18   C26   A    
C13   C30   A    
O9    C1    A    
O6    V2    S    
C39   C47   A    
O18   V2    S    
C56   H46   S    
C40   H7    S    
C24   C47   A    
N8    H45   S    
C11   C28   A    
C50   H24   S    
O15   V2    S    
C23   C31   A    
N5    H33   S    
C26   H9    S    
C20   N4    S    
C37   C45   A    
C24   C32   A    
C18   C41   A    
C10   C25   A    
C21   C46   A    
C33   C41   A    
N8    C56   S    
C16   C31   A    
C30   H13   S    
N6    H37   S    
N2    C50   S    
C17   C42   A    
C36   H3    S    
O8    C1    A    
O14   C6    A    
O16   V1    S    
C55   H44   S    
C47   C48   A    
C52   H30   S    
C49   H20   S    
O4    C5    A    
C20   C28   A    
N7    H41   S    
C14   C29   A    
O10   C2    A    
C10   C33   A    
C27   H12   S    
C22   N6    S    
C51   H28   S    
O2    C7    A    
C40   C48   A    
C45   C46   A    
C23   C48   A    
C54   H39   S    
C21   C29   A    
C21   N5    S    
C36   C44   A    
O1    C8    A    
O16   C8    A    
C41   C42   A    
C51   H26   S    
C56   H47   S    
O2    V3    S    
O3    C6    A    
C1    C11   S    
N1    H17   S    
C2    C12   S    
C35   H4    S    
C55   H42   S    
C34   H1    S    
N5    C53   S    
