data_mof_unit_40944.cif
_audit_creation_date              2012-12-10T17:55:30-0500
_audit_creation_method            fapswitch 2.2
_symmetry_space_group_name_H-M    P1
_symmetry_Int_Tables_number       1
_space_group_crystal_system       triclinic
_cell_length_a                    10.859691
_cell_length_b                    9.620866
_cell_length_c                    10.891007
_cell_angle_alpha                 90.048923
_cell_angle_beta                  92.516031
_cell_angle_gamma                 89.987412
_cell_volume                      1136.79101979

loop_
_atom_site_label
_atom_site_type_symbol
_atom_type_description
_atom_site_fract_x
_atom_site_fract_y
_atom_site_fract_z
_atom_type_partial_charge
C1    C     C_R   0.262084 0.499440 0.493444 0.862966
C2    C     C_R   0.939127 0.371248 0.518719 0.276580
C3    C     C_R   0.872668 0.497699 0.512046 -0.223022
C4    C     C_R   0.127300 0.497446 0.487937 -0.222501
C5    C     C_R   0.936353 0.623452 0.501254 -0.154926
C6    C     C_R   0.063501 0.623399 0.497039 -0.154573
C7    C     C_R   0.447701 0.076523 0.404937 0.007096
C8    C     C_R   0.552375 0.076653 0.595068 0.010021
C9    C     C_R   0.440860 0.929725 0.405494 0.436808
C10   C     C_R   0.558767 0.929903 0.594677 0.437247
C11   C     C_R   0.737903 0.499496 0.506544 0.865595
C12   C     C_R   0.502344 0.499709 0.265538 0.876756
C13   C     C_R   0.497850 0.499863 0.734495 0.875111
C14   C     C_2   0.501948 0.384221 0.932978 -0.137290
C15   C     C_2   0.493840 0.384409 0.066760 -0.135187
C16   C     C_2   0.489110 0.500858 0.866496 -0.259255
C17   C     C_2   0.512000 0.500077 0.133669 -0.274132
C18   C     C_R   0.060900 0.370827 0.483057 0.277046
Cu1   Cu    Cu3+1 0.500000 0.640660 0.500000 1.101266
Cu2   Cu    Cu3+1 0.500000 0.359340 0.500000 1.063309
H1    H     H_    0.516109 0.284629 0.888636 0.197401
H2    H     H_    0.847153 0.336137 0.763555 0.344109
H3    H     H_    0.404710 0.819874 0.086753 0.378215
H4    H     H_    0.772916 0.949144 0.862570 0.390640
H5    H     H_    0.474508 0.285915 0.110698 0.198643
H6    H     H_    0.467932 0.599731 0.908070 0.186471
H7    H     H_    0.538347 0.597284 0.092515 0.191304
H8    H     H_    0.888522 0.722298 0.499444 0.231458
H9    H     H_    0.111240 0.722262 0.497493 0.231481
H10   H     H_    0.408587 0.135309 0.328487 0.219653
H11   H     H_    0.591676 0.135458 0.671482 0.227755
H12   H     H_    0.151775 0.330086 0.238771 0.345177
N1    N     N_R   0.500000 0.852070 0.500000 -0.295424
N2    N     N_R   0.500000 0.147940 0.500000 -0.238792
O1    O     O_R   0.319640 0.618740 0.499990 -0.561784
O2    O     O_2   0.011402 0.135531 0.353339 -0.203788
O3    O     O_3   0.205359 0.269882 0.292003 -0.519887
O4    O     O_2   0.810028 0.132605 0.508885 -0.216105
O5    O     O_2   0.988707 0.139704 0.653151 -0.207516
O6    O     O_3   0.793805 0.275186 0.710715 -0.516388
O7    O     O_2   0.284632 0.733884 0.295908 -0.278245
O8    O     O_2   0.266142 0.971634 0.226503 -0.235711
O9    O     O_3   0.456588 0.834758 0.162734 -0.543420
O10   O     O_2   0.551720 0.835209 0.825044 -0.326638
O11   O     O_2   0.715952 0.735993 0.704080 -0.278059
O12   O     O_R   0.680360 0.618740 0.500010 -0.559392
O13   O     O_3   0.740922 0.985578 0.782323 -0.473891
O14   O     O_R   0.319620 0.381170 0.499990 -0.522585
O15   O     O_R   0.680380 0.381170 0.500010 -0.522675
O16   O     O_R   0.500000 0.618750 0.321940 -0.512087
O17   O     O_R   0.500000 0.618750 0.678060 -0.517089
O18   O     O_R   0.499970 0.381180 0.321940 -0.596969
O19   O     O_R   0.500030 0.381180 0.678060 -0.597237
O20   O     O_2   0.190835 0.132760 0.496753 -0.223658
S1    S     S_3+6 0.116491 0.220831 0.406995 0.091997
S2    S     S_3+6 0.883577 0.223232 0.597307 0.092673
S3    S     S_3+6 0.356469 0.863474 0.273404 0.049991
S4    S     S_3+6 0.641818 0.863848 0.727323 0.041460

loop_
_geom_bond_atom_site_label_1
_geom_bond_atom_site_label_2
_ccdc_geom_bond_type
C12   C17   S    
C12   O16   A    
C1    O14   A    
Cu2   O15   S    
C11   O15   A    
C2    C18   A    
C5    H8    S    
O6    S2    S    
O20   S1    D    
C17   H7    S    
C13   O19   A    
O5    S2    D    
H2    O6    S    
C1    C4    S    
Cu2   N2    S    
C7    C9    A    
C2    C3    A    
Cu1   O12   S    
C4    C18   A    
Cu2   O18   S    
O2    S1    D    
Cu1   O1    S    
H12   O3    S    
O13   S4    S    
C9    N1    A    
C8    H11   S    
Cu1   O16   S    
C1    O1    A    
Cu2   O14   S    
C18   S1    S    
C2    S2    S    
C14   H1    S    
C8    C10   A    
C12   O18   A    
C10   N1    A    
C9    S3    S    
C16   H6    S    
C5    C6    A    
C7    N2    A    
C14   C16   D    
O11   S4    D    
C15   H5    S    
C3    C11   S    
O9    S3    S    
O7    S3    D    
O3    S1    S    
Cu1   O17   S    
C6    H9    S    
O4    S2    D    
C13   O17   A    
O8    S3    D    
C4    C6    A    
Cu1   N1    S    
C13   C16   S    
C15   C17   D    
C14   C15   S    
C11   O12   A    
C8    N2    A    
C10   S4    S    
H3    O9    S    
H4    O13   S    
Cu1   Cu2   S    
O10   S4    D    
Cu2   O19   S    
C3    C5    A    
C7    H10   S    
