data_mof_unit_9471.cif
_audit_creation_date              2012-12-10T18:13:29-0500
_audit_creation_method            fapswitch 2.2
_symmetry_space_group_name_H-M    P1
_symmetry_Int_Tables_number       1
_space_group_crystal_system       triclinic
_cell_length_a                    12.571431
_cell_length_b                    13.066338
_cell_length_c                    17.133226
_cell_angle_alpha                 91.000937
_cell_angle_beta                  97.778458
_cell_angle_gamma                 98.003619
_cell_volume                      2759.39886363

loop_
_atom_site_label
_atom_site_type_symbol
_atom_type_description
_atom_site_fract_x
_atom_site_fract_y
_atom_site_fract_z
_atom_type_partial_charge
C1    C     C_R   0.560187 0.691581 0.512935 0.856147
C2    C     C_R   0.519900 0.418109 0.222712 0.447909
C3    C     C_R   0.560470 0.514555 0.867658 -0.214570
C4    C     C_R   0.569906 0.529059 0.789294 0.149038
C5    C     C_R   0.377967 0.461266 0.755642 -0.257127
C6    C     C_R   0.368111 0.449681 0.834758 0.191346
C7    C     C_R   0.459891 0.477299 0.891061 0.095944
C8    C     C_2   0.511434 0.540763 0.025522 -0.182250
C9    C     C_2   0.452956 0.469232 0.974680 -0.216740
C10   C     C_R   0.478272 0.500276 0.732644 -0.119762
C11   C     C_R   0.288057 0.063518 0.553126 -0.175611
C12   C     C_R   0.514115 0.498748 0.351219 0.968619
C13   C     C_R   0.401994 0.199360 0.497610 -0.046089
C14   C     C_R   0.703616 0.840962 0.510233 -0.212642
C15   C     C_R   0.733227 0.946830 0.504689 0.209190
C16   C     C_R   0.656275 0.013002 0.508460 -0.260318
C17   C     C_R   0.550279 0.974515 0.523840 0.046409
C18   C     C_R   0.527210 0.870228 0.542500 0.090215
C19   C     C_R   0.466586 0.036283 0.521982 0.092556
C20   C     C_R   0.369174 0.999905 0.552353 0.151675
C21   C     C_R   0.355133 0.901321 0.582309 -0.256524
C22   C     C_R   0.432954 0.836791 0.577064 -0.183612
C23   C     C_R   0.439390 0.308451 0.491586 0.879709
C24   C     C_R   0.476663 0.132848 0.489135 -0.266383
C25   C     C_R   0.305470 0.164279 0.527294 -0.197981
C26   C     C_R   0.598845 0.801946 0.525235 -0.141639
C27   C     C_R   0.906252 0.374453 0.627998 0.419201
C28   C     C_R   0.214490 0.633625 0.411315 -0.209840
C29   C     C_R   0.114396 0.670993 0.395973 0.322540
C30   C     C_R   0.023779 0.616926 0.426513 0.435920
C31   C     C_R   0.039500 0.532780 0.477809 -0.111839
C32   C     C_R   0.145056 0.506026 0.495084 0.155499
C33   C     C_R   0.957203 0.478311 0.517351 -0.121893
C34   C     C_R   0.486904 0.503834 0.649659 0.881713
C35   C     C_R   0.985538 0.416942 0.582645 -0.000025
C36   C     C_R   0.090584 0.393422 0.597930 -0.193780
C37   C     C_R   0.167141 0.432897 0.551595 -0.181790
C38   C     C_R   0.846426 0.473658 0.490965 0.633192
C39   C     C_R   0.801241 0.397736 0.608994 -0.202295
C40   C     C_R   0.524217 0.507296 0.269845 -0.148132
C41   C     C_R   0.530754 0.605817 0.239497 -0.429018
C42   C     C_R   0.524786 0.617351 0.158795 0.525687
C43   C     C_R   0.518108 0.529040 0.109906 0.045485
C44   C     C_R   0.517692 0.430242 0.141426 -0.347097
H1    H     H_    0.537139 0.673432 0.278431 0.160886
H2    H     H_    0.246679 0.215752 0.534221 0.154961
H3    H     H_    0.282838 0.873122 0.607916 0.170049
H4    H     H_    0.213679 0.036917 0.576680 0.166436
H5    H     H_    0.545141 0.160350 0.459561 0.144438
H6    H     H_    0.761394 0.789334 0.500921 0.200686
H7    H     H_    0.682844 0.094293 0.502556 0.147520
H8    H     H_    0.419320 0.760986 0.601386 0.182319
H9    H     H_    0.739864 0.373319 0.645927 0.188816
H10   H     H_    0.113216 0.341613 0.644026 0.194335
H11   H     H_    0.286295 0.670676 0.389722 0.183588
H12   H     H_    0.244573 0.407564 0.563140 0.200005
H13   H     H_    0.307447 0.438355 0.712091 0.176126
H14   H     H_    0.400745 0.404572 0.994708 0.186945
H15   H     H_    0.513736 0.363732 0.102235 0.148712
H16   H     H_    0.632421 0.533676 0.910631 0.170643
H17   H     H_    0.554064 0.610875 0.004555 0.195470
N1    N     N_R   0.774070 0.445420 0.541180 -0.180690
N2    N     N_R   0.226730 0.554050 0.459240 -0.141772
O1    O     O_R   0.631480 0.627510 0.519670 -0.580993
O2    O     O_R   0.455770 0.662400 0.493360 -0.627766
O3    O     O_R   0.598240 0.480510 0.398910 -0.581429
O4    O     O_R   0.422540 0.515400 0.372600 -0.618291
O5    O     O_R   0.544230 0.337600 0.506640 -0.623561
O6    O     O_R   0.368520 0.372490 0.480330 -0.632043
O7    O     O_R   0.577460 0.484600 0.627400 -0.592331
O8    O     O_R   0.401760 0.519490 0.601090 -0.643136
Zn1   Zn    Zn3+2 0.617320 0.476700 0.517570 0.993111
Zn2   Zn    Zn3+2 0.382680 0.523300 0.482430 0.933678
I1    I     I_    0.212483 0.393806 0.864593 -0.368806
I2    I     I_    0.892023 0.007171 0.485762 -0.487878
I3    I     I_    0.723748 0.601839 0.764494 -0.336193
O9    O     O_3   0.932891 0.316121 0.692622 -0.613792
C45   C     C_3   0.880471 0.212697 0.679356 0.085579
H18   H     H_    0.944193 0.161326 0.682207 0.183022
H19   H     H_    0.829660 0.196344 0.620467 0.127974
C46   C     C_3   0.810393 0.184416 0.744268 -0.335882
H20   H     H_    0.862745 0.191565 0.802387 0.247437
H21   H     H_    0.749938 0.238759 0.744982 0.223669
C47   C     C_3   0.750569 0.074191 0.731590 -0.902864
H22   H     H_    0.693243 0.067104 0.675845 0.271931
H23   H     H_    0.703601 0.054887 0.781076 0.267861
H24   H     H_    0.809069 0.018230 0.729190 0.279396
O10   O     O_3   0.810130 0.479221 0.411876 -0.633943
C48   C     C_3   0.788753 0.378356 0.376114 0.074110
H25   H     H_    0.730305 0.381461 0.321825 0.193733
H26   H     H_    0.748946 0.319858 0.413677 0.130142
C49   C     C_3   0.891920 0.343708 0.352045 -0.427542
H27   H     H_    0.933352 0.405210 0.318157 0.227495
H28   H     H_    0.948154 0.330091 0.405338 0.231854
C50   C     C_3   0.866024 0.243499 0.301854 -0.897659
H29   H     H_    0.823895 0.181086 0.334490 0.281873
H30   H     H_    0.942523 0.219172 0.287501 0.277046
H31   H     H_    0.814157 0.255172 0.245889 0.252276
O11   O     O_3   0.926399 0.658139 0.419228 -0.596998
C51   C     C_3   0.883824 0.671023 0.339056 0.197698
H32   H     H_    0.807636 0.616665 0.323185 0.178071
H33   H     H_    0.937604 0.653845 0.295291 0.117124
C52   C     C_3   0.854198 0.780250 0.329174 -0.319937
H34   H     H_    0.788226 0.790103 0.364418 0.219248
H35   H     H_    0.925269 0.838693 0.351006 0.290148
C53   C     C_3   0.815530 0.799783 0.243147 -0.932551
H36   H     H_    0.881623 0.794722 0.206900 0.266253
H37   H     H_    0.791563 0.878353 0.238514 0.280185
H38   H     H_    0.744288 0.742197 0.219898 0.283572
O12   O     O_3   0.102128 0.765109 0.360424 -0.635795
C54   C     C_3   0.181933 0.801050 0.312545 0.059278
H39   H     H_    0.142404 0.843783 0.263927 0.163928
H40   H     H_    0.212858 0.737381 0.282342 0.118295
C55   C     C_3   0.272409 0.877376 0.360148 -0.307030
H41   H     H_    0.241646 0.951636 0.370001 0.235342
H42   H     H_    0.296822 0.846740 0.418782 0.241356
C56   C     C_3   0.372258 0.897563 0.318131 -0.988437
H43   H     H_    0.409107 0.825599 0.313909 0.256805
H44   H     H_    0.433318 0.956774 0.352478 0.279275
H45   H     H_    0.350405 0.925957 0.258165 0.267227
O13   O     O_3   0.507153 0.322765 0.258545 -0.660674
C57   C     C_3   0.544281 0.242822 0.217885 0.067640
H46   H     H_    0.624101 0.269745 0.198215 0.129555
H47   H     H_    0.483106 0.213695 0.166397 0.158390
C58   C     C_3   0.557583 0.153983 0.273647 -0.330587
H48   H     H_    0.618436 0.181620 0.325531 0.213907
H49   H     H_    0.478961 0.127927 0.294984 0.235687
C59   C     C_3   0.594011 0.062590 0.233055 -0.957153
H50   H     H_    0.532208 0.031393 0.182662 0.261135
H51   H     H_    0.604347 0.000408 0.275631 0.276844
H52   H     H_    0.672702 0.086685 0.211350 0.271910
O14   O     O_3   0.530216 0.714795 0.127480 -0.654765
C60   C     C_3   0.434220 0.757502 0.134633 0.065088
H53   H     H_    0.455502 0.843007 0.137653 0.173999
H54   H     H_    0.398996 0.736349 0.189412 0.130225
C61   C     C_3   0.348748 0.726559 0.062540 -0.340079
H55   H     H_    0.383528 0.749403 0.008052 0.239797
H56   H     H_    0.324618 0.641322 0.059634 0.233525
C62   C     C_3   0.248039 0.778442 0.066673 -0.933896
H57   H     H_    0.211078 0.755207 0.120192 0.253087
H58   H     H_    0.187488 0.754440 0.013889 0.282983
H59   H     H_    0.269476 0.863927 0.068186 0.261742

loop_
_geom_bond_atom_site_label_1
_geom_bond_atom_site_label_2
_ccdc_geom_bond_type
C8    C9    D    
C15   I2    S    
C1    O1    A    
C41   C42   A    
C23   O6    A    
C50   H29   S    
C18   C26   A    
C8    C43   S    
C59   H50   S    
C46   H20   S    
C50   H31   S    
C39   H9    S    
O9    C45   S    
C5    C6    A    
C28   C29   A    
C47   H23   S    
C3    C7    A    
C56   H44   S    
C30   C31   A    
C62   H59   S    
C45   H19   S    
C53   H36   S    
C11   C25   A    
C44   H15   S    
C15   C16   A    
O2    Zn2   S    
C13   C23   S    
C9    H14   S    
O12   C54   S    
C49   H27   S    
C17   C19   A    
C37   H12   S    
C52   H35   S    
O3    Zn1   S    
C19   C20   A    
C27   C39   A    
O14   C60   S    
C42   O14   S    
C60   C61   S    
C1    O2    A    
C47   H24   S    
O6    Zn2   S    
O4    Zn2   S    
C48   H26   S    
C34   O7    A    
C8    H17   S    
C3    H16   S    
O1    Zn1   S    
C21   C22   A    
C60   H54   S    
C13   C25   A    
C11   H4    S    
C61   C62   S    
C52   C53   S    
C49   H28   S    
C46   H21   S    
C28   H11   S    
C6    I1    S    
C12   O4    A    
C11   C20   A    
C1    C26   S    
C31   C33   A    
C10   C34   S    
C29   O12   S    
C47   H22   S    
C61   H56   S    
C56   H45   S    
C2    C44   A    
O8    Zn2   S    
C45   H18   S    
C16   C17   A    
N2    Zn2   S    
C27   C35   A    
C12   O3    A    
C30   O11   S    
C51   C52   S    
C13   C24   A    
C38   O10   S    
C35   C36   A    
C23   O5    A    
C12   C40   S    
C43   C44   A    
C29   C30   A    
C58   C59   S    
C60   H53   S    
C31   C32   A    
O5    Zn1   S    
C20   C21   A    
C51   H33   S    
C17   C18   A    
N1    Zn1   S    
C54   H40   S    
C32   C37   A    
C14   C26   A    
C48   C49   S    
O13   C57   S    
C40   C41   A    
C58   H48   S    
C42   C43   A    
C57   H47   S    
C3    C4    A    
C59   H52   S    
C46   C47   S    
C22   H8    S    
C2    O13   S    
C24   H5    S    
C7    C9    S    
C39   N1    A    
C36   C37   A    
C16   H7    S    
C54   H39   S    
C18   C22   A    
C32   N2    A    
C61   H55   S    
C27   O9    S    
C59   H51   S    
C55   H42   S    
C62   H57   S    
C50   H30   S    
C55   H41   S    
C6    C7    A    
C33   C38   A    
O11   C51   S    
C5    H13   S    
C57   C58   S    
C19   C24   A    
C48   H25   S    
C5    C10   A    
C56   H43   S    
C62   H58   S    
C45   C46   S    
C14   H6    S    
C53   H37   S    
C34   O8    A    
C51   H32   S    
C33   C35   A    
C54   C55   S    
C49   C50   S    
C4    I3    S    
C55   C56   S    
C36   H10   S    
C28   N2    A    
C2    C40   A    
O10   C48   S    
C52   H34   S    
C58   H49   S    
C41   H1    S    
C14   C15   A    
O7    Zn1   S    
C38   N1    A    
C57   H46   S    
C4    C10   A    
C25   H2    S    
C21   H3    S    
C53   H38   S    
