data_mof_unit_57181.cif
_audit_creation_date              2012-12-10T19:41:53-0500
_audit_creation_method            fapswitch 2.2
_symmetry_space_group_name_H-M    P1
_symmetry_Int_Tables_number       1
_space_group_crystal_system       triclinic
_cell_length_a                    18.299222
_cell_length_b                    18.233461
_cell_length_c                    18.365165
_cell_angle_alpha                 119.830519
_cell_angle_beta                  89.92474
_cell_angle_gamma                 119.924815
_cell_volume                      4351.70651418

loop_
_atom_site_label
_atom_site_type_symbol
_atom_type_description
_atom_site_fract_x
_atom_site_fract_y
_atom_site_fract_z
_atom_type_partial_charge
C1    C     C_R   0.139753 0.779968 0.140482 0.828855
C2    C     C_R   0.795741 0.107953 0.804311 -0.132297
C3    C     C_R   0.721655 0.053844 0.826301 0.160289
C4    C     C_R   0.858941 0.219890 0.860317 0.842461
C5    C     C_R   0.662906 0.943834 0.768042 0.180470
C6    C     C_R   0.683678 0.890818 0.692830 -0.123476
C7    C     C_R   0.747436 0.947561 0.667010 -0.017989
C8    C     C_3   0.815101 0.938377 0.623616 0.367838
C9    C     C_3   0.878410 0.059333 0.687375 0.352002
C10   C     C_R   0.813066 0.585337 0.260332 0.076501
C11   C     C_R   0.796824 0.493438 0.188933 -0.143888
C12   C     C_R   0.841094 0.664298 0.719076 0.188410
C13   C     C_R   0.716064 0.398338 0.161765 0.163861
C14   C     C_R   0.659254 0.398232 0.215056 0.173435
C15   C     C_R   0.687110 0.492998 0.295861 -0.104712
C16   C     C_R   0.140171 0.500124 0.860220 0.808628
C17   C     C_R   0.759319 0.584937 0.312505 -0.010179
C18   C     C_3   0.835078 0.678843 0.396147 -0.485003
C19   C     C_3   0.895696 0.679904 0.338565 0.367444
C20   C     C_R   0.183366 0.948597 0.179854 -0.037617
C21   C     C_R   0.194435 0.891475 0.202458 -0.083947
C22   C     C_R   0.254174 0.943587 0.287461 0.171664
C23   C     C_R   0.793624 0.589404 0.739130 -0.002424
C24   C     C_R   0.311259 0.053906 0.341603 0.161724
C25   C     C_R   0.304260 0.108430 0.310630 -0.123991
C26   C     C_R   0.236640 0.054526 0.233047 0.026174
C27   C     C_3   0.236951 0.063495 0.155952 0.359931
C28   C     C_R   0.859027 0.499115 0.139252 0.839207
C29   C     C_3   0.177029 0.944303 0.095965 -0.034873
C30   C     C_R   0.286450 0.550134 0.211235 0.067325
C31   C     C_R   0.194612 0.496882 0.193268 -0.080214
C32   C     C_R   0.156291 0.439486 0.229526 -0.219735
C33   C     C_R   0.210472 0.439579 0.283569 -0.220498
C34   C     C_R   0.839095 0.599469 0.809590 -0.010573
C35   C     C_R   0.303879 0.497152 0.302308 -0.080148
C36   C     C_R   0.338684 0.550312 0.263395 0.064575
C37   C     C_3   0.423400 0.621899 0.257615 -0.037595
C38   C     C_3   0.363260 0.621711 0.197528 -0.029524
C39   C     C_R   0.289056 0.569657 0.841676 0.068602
C40   C     C_R   0.139798 0.499411 0.139470 0.814064
C41   C     C_R   0.196588 0.495925 0.804940 -0.078964
C42   C     C_R   0.159779 0.414379 0.714239 -0.221429
C43   C     C_R   0.213520 0.414159 0.660193 -0.216794
C44   C     C_R   0.304784 0.495012 0.696432 -0.088381
C45   C     C_R   0.806699 0.508770 0.808095 -0.072770
C46   C     C_R   0.342500 0.568195 0.788536 0.048165
C47   C     C_3   0.404847 0.683816 0.842272 -0.047595
C48   C     C_3   0.344846 0.686001 0.901514 0.346895
C49   C     C_R   0.639047 0.499123 0.359022 0.828512
C50   C     C_R   0.359971 0.499732 0.639947 0.802847
C51   C     C_R   0.637719 0.779664 0.639336 0.836355
C52   C     C_R   0.862844 0.504247 0.860912 0.831128
C53   C     C_R   0.360260 0.220062 0.361237 0.838549
C54   C     C_R   0.360104 0.499480 0.359525 0.810904
C55   C     C_R   0.640860 0.500155 0.639079 0.822326
C56   C     C_R   0.720698 0.418548 0.750704 0.184851
C57   C     C_R   0.914987 0.699608 0.876968 0.116677
C58   C     C_R   0.960328 0.773097 0.858407 -0.200029
C59   C     C_R   0.927092 0.754760 0.778644 0.236758
C60   C     C_3   0.681696 0.323028 0.750067 -0.895933
C61   C     C_3   0.782356 0.891626 0.523852 -0.860189
C62   C     C_3   0.960964 0.105433 0.759890 -0.893527
C63   C     C_3   0.903181 0.117484 0.642818 -0.843758
C64   C     C_3   0.692569 0.299549 0.077141 -0.886223
C65   C     C_3   0.570396 0.298840 0.184953 -0.885342
C66   C     C_3   0.938283 0.773184 0.333128 -0.837792
C67   C     C_R   0.668279 0.419394 0.696834 -0.216622
C68   C     C_3   0.963273 0.661109 0.360216 -0.874537
C69   C     C_3   0.257114 0.883530 0.320713 -0.894864
C70   C     C_3   0.934018 0.741270 0.973934 -0.823414
C71   C     C_3   0.379569 0.114554 0.431061 -0.884079
C72   C     C_3   0.188258 0.111610 0.154823 -0.899427
C73   C     C_3   0.330299 0.117165 0.147663 -0.847134
C74   C     C_3   0.214694 0.889289 0.032745 -0.906732
C75   C     C_3   0.472951 0.572861 0.214001 -0.814992
C76   C     C_3   0.358677 0.572527 0.099779 -0.832596
C77   C     C_3   0.500452 0.724520 0.885286 -0.850611
C78   C     C_R   0.703105 0.503604 0.691605 -0.071968
C79   C     C_3   0.386864 0.729199 0.998287 -0.806701
C80   C     C_3   0.296371 0.732575 0.895354 -0.925330
C81   C     C_3   0.982378 0.836680 0.762346 -0.934957
C82   C     C_3   0.805124 0.644323 0.631964 -0.901958
C83   C     C_3   0.706261 0.113874 0.910510 -0.872561
C84   C     C_3   0.578513 0.885488 0.785027 -0.888221
C85   C     C_3   0.843732 0.879097 0.638695 -0.917996
C86   C     C_R   0.801837 0.052993 0.721218 -0.016686
H1    H     H_    0.684016 0.343107 0.818277 0.226575
H2    H     H_    0.843160 0.098130 0.602615 0.227519
H3    H     H_    0.944954 0.202224 0.693682 0.260788
H4    H     H_    0.942312 0.098588 0.599668 0.228329
H5    H     H_    0.741323 0.283103 0.086036 0.263331
H6    H     H_    0.625653 0.230450 0.056941 0.241773
H7    H     H_    0.694601 0.308679 0.021596 0.220907
H8    H     H_    0.529073 0.309840 0.227671 0.238064
H9    H     H_    0.529710 0.264302 0.117843 0.231473
H10   H     H_    0.581529 0.243604 0.183390 0.249845
H11   H     H_    0.828952 0.744552 0.425084 0.200800
H12   H     H_    0.611004 0.262800 0.706146 0.232060
H13   H     H_    0.845956 0.661926 0.444003 0.183368
H14   H     H_    0.988976 0.844577 0.398193 0.232309
H15   H     H_    0.971456 0.762448 0.281632 0.252600
H16   H     H_    0.887212 0.783110 0.315687 0.225830
H17   H     H_    0.929348 0.590330 0.359541 0.231801
H18   H     H_    0.998813 0.651930 0.310705 0.225981
H19   H     H_    0.013233 0.727915 0.427171 0.239974
H20   H     H_    0.205751 0.799243 0.276008 0.233561
H21   H     H_    0.323532 0.896607 0.329198 0.244359
H22   H     H_    0.244273 0.908951 0.385144 0.234141
H23   H     H_    0.720002 0.289145 0.725394 0.259328
H24   H     H_    0.954531 0.822416 0.014539 0.207043
H25   H     H_    0.872687 0.698837 0.986909 0.264988
H26   H     H_    0.988840 0.739614 0.996702 0.259475
H27   H     H_    0.447837 0.157064 0.428664 0.258349
H28   H     H_    0.368687 0.170717 0.483240 0.219576
H29   H     H_    0.377315 0.066573 0.452274 0.240676
H30   H     H_    0.176827 0.101521 0.090143 0.237102
H31   H     H_    0.122594 0.074640 0.164285 0.225866
H32   H     H_    0.229008 0.195465 0.208968 0.257902
H33   H     H_    0.369305 0.090930 0.159683 0.235433
H34   H     H_    0.748535 0.922496 0.511168 0.226560
H35   H     H_    0.324037 0.101371 0.080478 0.239111
H36   H     H_    0.368332 0.201973 0.197262 0.217621
H37   H     H_    0.108523 0.912717 0.061533 0.157393
H38   H     H_    0.278063 0.910711 0.069082 0.259409
H39   H     H_    0.165281 0.804518 0.996124 0.228334
H40   H     H_    0.226031 0.908419 0.983305 0.251582
H41   H     H_    0.085006 0.395739 0.217338 0.177078
H42   H     H_    0.179225 0.395797 0.311332 0.177583
H43   H     H_    0.466715 0.697982 0.322692 0.147738
H44   H     H_    0.426226 0.491093 0.156461 0.239791
H45   H     H_    0.839581 0.908144 0.498295 0.228252
H46   H     H_    0.521572 0.617578 0.191703 0.236756
H47   H     H_    0.510757 0.575092 0.263090 0.261349
H48   H     H_    0.373218 0.697690 0.229266 0.147567
H49   H     H_    0.020636 0.847647 0.908815 0.153475
H50   H     H_    0.335575 0.490863 0.065794 0.242727
H51   H     H_    0.311569 0.574404 0.063980 0.261258
H52   H     H_    0.425438 0.617350 0.095647 0.234138
H53   H     H_    0.089127 0.352887 0.684322 0.173082
H54   H     H_    0.183036 0.352817 0.589847 0.175334
H55   H     H_    0.537700 0.807620 0.940506 0.233949
H56   H     H_    0.733328 0.806585 0.485260 0.264302
H57   H     H_    0.501305 0.680948 0.910794 0.245727
H58   H     H_    0.535969 0.717511 0.835843 0.276146
H59   H     H_    0.403096 0.714374 0.803245 0.154615
H60   H     H_    0.442612 0.812176 0.034653 0.230267
H61   H     H_    0.336829 0.722841 0.033258 0.263397
H62   H     H_    0.412247 0.686454 0.001415 0.217381
H63   H     H_    0.262520 0.696422 0.824978 0.224648
H64   H     H_    0.245344 0.720461 0.928978 0.254564
H65   H     H_    0.345145 0.816884 0.928218 0.245757
H66   H     H_    0.045037 0.904559 0.818942 0.233841
H67   H     H_    0.997276 0.190640 0.805453 0.230633
H68   H     H_    0.001675 0.804878 0.702707 0.243902
H69   H     H_    0.943945 0.864637 0.753137 0.252604
H70   H     H_    0.778704 0.564050 0.576068 0.246819
H71   H     H_    0.856302 0.693624 0.614911 0.235714
H72   H     H_    0.752840 0.658928 0.634814 0.233603
H73   H     H_    0.599668 0.353238 0.657501 0.142527
H74   H     H_    0.704421 0.173900 0.910842 0.229941
H75   H     H_    0.643410 0.067197 0.918723 0.238078
H76   H     H_    0.760857 0.150283 0.969206 0.260816
H77   H     H_    0.532315 0.802950 0.729679 0.236844
H78   H     H_    0.942122 0.074702 0.801056 0.230347
H79   H     H_    0.595996 0.891345 0.846413 0.249826
H80   H     H_    0.539299 0.918022 0.792011 0.228003
H81   H     H_    0.793161 0.794474 0.592230 0.239853
H82   H     H_    0.908048 0.896876 0.626425 0.245534
H83   H     H_    0.850509 0.898818 0.707128 0.228828
H84   H     H_    0.007361 0.088220 0.728750 0.244764
O1    O     O_3   0.000000 0.500000 0.000000 -0.474941
O2    O     O_R   0.323450 0.268330 0.384170 -0.641382
O3    O     O_R   0.444860 0.560620 0.384150 -0.649359
O4    O     O_R   0.055050 0.731580 0.115780 -0.656702
O5    O     O_R   0.615780 0.439200 0.555040 -0.645228
O6    O     O_R   0.323420 0.439190 0.384160 -0.650832
O7    O     O_R   0.615760 0.560630 0.676470 -0.633076
O8    O     O_R   0.615740 0.731500 0.676460 -0.642720
O9    O     O_R   0.444900 0.268330 0.384170 -0.643618
O10   O     O_R   0.615750 0.560630 0.384150 -0.652173
O11   O     O_R   0.323430 0.439200 0.555040 -0.646654
O12   O     O_R   0.055090 0.439280 0.823480 -0.651580
O13   O     O_R   0.884220 0.268410 0.823490 -0.643753
O14   O     O_R   0.176520 0.560720 0.944920 -0.655815
O15   O     O_R   0.884200 0.439290 0.115800 -0.642355
O16   O     O_R   0.176530 0.560720 0.115800 -0.650454
O17   O     O_R   0.884180 0.560710 0.944910 -0.653616
O18   O     O_R   0.055100 0.439290 0.115810 -0.647489
O19   O     O_R   0.884190 0.439280 0.823480 -0.634394
O20   O     O_R   0.884180 0.560710 0.115790 -0.640940
O21   O     O_R   0.176500 0.731590 0.115790 -0.643012
O22   O     O_R   0.884220 0.268420 0.944930 -0.644793
O23   O     O_3   0.499960 0.499910 0.499960 -0.478799
O24   O     O_R   0.615770 0.439200 0.384160 -0.636720
O25   O     O_R   0.444870 0.560630 0.676470 -0.645630
O26   O     O_R   0.615730 0.731500 0.555020 -0.647744
Zn1   Zn    Zn3+2 0.956630 0.413250 0.869870 0.951132
Zn2   Zn    Zn3+2 0.130130 0.586750 0.043370 0.932690
Zn3   Zn    Zn3+2 0.956630 0.413250 0.043380 0.949739
Zn4   Zn    Zn3+2 0.956610 0.586750 0.043370 0.942867
Zn5   Zn    Zn3+2 0.543330 0.586660 0.630080 0.947811
Zn6   Zn    Zn3+2 0.543320 0.586660 0.456570 0.936408
Zn7   Zn    Zn3+2 0.369830 0.413160 0.456580 0.953180
Zn8   Zn    Zn3+2 0.543350 0.413170 0.456590 0.950824

loop_
_geom_bond_atom_site_label_1
_geom_bond_atom_site_label_2
_ccdc_geom_bond_type
C80   H65   S    
C74   H38   S    
C47   H59   S    
C1    C21   S    
C73   H33   S    
C63   H2    S    
C27   C29   S    
C41   C42   A    
C4    O22   A    
C35   C36   A    
C66   H15   S    
C68   H17   S    
O23   Zn7   S    
C69   H21   S    
O20   Zn4   S    
C7    C8    S    
C39   C41   A    
C38   C76   S    
C76   H51   S    
C80   H64   S    
O12   Zn1   S    
C12   C23   A    
C30   C38   S    
C26   C27   S    
C37   C38   S    
O23   Zn8   S    
C48   C79   S    
C5    C6    A    
C32   H41   S    
C36   C37   S    
C25   C53   S    
C64   H7    S    
C18   C19   S    
O1    Zn2   S    
O10   Zn6   S    
C51   O26   A    
C30   C31   A    
C82   H72   S    
C16   O12   A    
C7    C86   A    
C40   O16   A    
C49   O24   A    
C10   C17   A    
C66   H14   S    
O23   Zn5   S    
C31   C40   S    
C71   H27   S    
C19   C66   S    
C15   C17   A    
C8    C85   S    
O22   Zn3   S    
C54   O6    A    
C66   H16   S    
O1    Zn3   S    
C84   H79   S    
C70   H24   S    
C53   O2    A    
C12   C59   A    
C60   H1    S    
C65   H10   S    
C62   H78   S    
C83   H74   S    
C47   C48   S    
C45   C56   A    
C8    C9    S    
C72   H31   S    
C34   C57   A    
O21   Zn2   S    
C60   H23   S    
C18   H11   S    
C57   C70   S    
C51   O8    A    
C22   C69   S    
C75   H44   S    
C8    C61   S    
C49   O10   A    
C82   H70   S    
C38   H48   S    
C83   H75   S    
C23   C78   A    
C13   C14   A    
C35   C54   S    
C55   O7    A    
O6    Zn7   S    
O11   Zn7   S    
C67   C78   A    
C53   O9    A    
C69   H22   S    
C44   C46   A    
C79   H60   S    
C20   C29   S    
C76   H50   S    
C80   H63   S    
C62   H84   S    
C1    O4    A    
C81   H68   S    
C12   C82   S    
C9    C62   S    
C85   H81   S    
C68   H18   S    
C19   C68   S    
C24   C25   A    
C70   H25   S    
C5    C84   S    
C82   H71   S    
C79   H61   S    
C29   C74   S    
C45   C52   S    
C25   C26   A    
C33   H42   S    
C85   H83   S    
O23   Zn6   S    
C56   C60   S    
C71   H28   S    
O3    Zn6   S    
O2    Zn7   S    
C2    C4    S    
C43   C44   A    
C77   H57   S    
O1    Zn4   S    
C9    C86   S    
C50   O25   A    
C31   C32   A    
C10   C19   S    
C23   C34   A    
O24   Zn8   S    
C63   H3    S    
C75   H47   S    
C17   C18   S    
C71   H29   S    
C43   H54   S    
C34   C45   A    
O13   Zn1   S    
O15   Zn3   S    
C55   O5    A    
C6    C7    A    
C84   H77   S    
C70   H26   S    
C39   C46   A    
C40   O18   A    
C1    O21   A    
C65   H8    S    
C52   O17   A    
C83   H76   S    
C73   H35   S    
C3    C83   S    
C6    C51   S    
C22   C24   A    
O8    Zn5   S    
C50   O11   A    
C68   H19   S    
C47   C77   S    
O26   Zn6   S    
C81   H66   S    
C81   H69   S    
C75   H46   S    
C54   O3    A    
O19   Zn1   S    
C55   C78   S    
C46   C47   S    
C42   H53   S    
C9    C63   S    
C85   H82   S    
O4    Zn4   S    
C59   C81   S    
C3    C5    A    
C28   O20   A    
C18   H13   S    
O5    Zn8   S    
C69   H20   S    
C16   O14   A    
C79   H62   S    
O25   Zn5   S    
C76   H52   S    
C58   H49   S    
C56   C67   A    
C72   H30   S    
O14   Zn2   S    
O18   Zn3   S    
C62   H67   S    
C30   C36   A    
O17   Zn4   S    
C32   C33   A    
C48   C80   S    
C2    C3    A    
C58   C59   A    
C77   H58   S    
O1    Zn1   S    
C27   C73   S    
C28   O15   A    
C11   C13   A    
C57   C58   A    
C74   H40   S    
C13   C64   S    
C20   C26   A    
C11   C28   S    
C29   H37   S    
C63   H4    S    
C33   C35   A    
C14   C65   S    
C37   H43   S    
C2    C86   A    
O7    Zn5   S    
C52   O19   A    
C15   C49   S    
C4    O13   A    
C37   C75   S    
C77   H55   S    
O9    Zn8   S    
C84   H80   S    
C10   C11   A    
C61   H45   S    
C74   H39   S    
C61   H56   S    
C65   H9    S    
C20   C21   A    
C44   C50   S    
C73   H36   S    
C42   C43   A    
C60   H12   S    
C72   H32   S    
C64   H6    S    
C14   C15   A    
O16   Zn2   S    
C67   H73   S    
C64   H5    S    
C21   C22   A    
C16   C41   S    
C27   C72   S    
C24   C71   S    
C39   C48   S    
C61   H34   S    
