data_mof_unit_43592.cif
_audit_creation_date              2012-12-10T20:42:42-0500
_audit_creation_method            fapswitch 2.2
_symmetry_space_group_name_H-M    P1
_symmetry_Int_Tables_number       1
_space_group_crystal_system       triclinic
_cell_length_a                    8.893954
_cell_length_b                    10.687425
_cell_length_c                    9.900224
_cell_angle_alpha                 89.722065
_cell_angle_beta                  89.692287
_cell_angle_gamma                 90.279213
_cell_volume                      941.014671267

loop_
_atom_site_label
_atom_site_type_symbol
_atom_type_description
_atom_site_fract_x
_atom_site_fract_y
_atom_site_fract_z
_atom_type_partial_charge
C1    C     C_R   0.497455 0.260198 0.500417 0.877661
C2    C     C_R   0.406284 0.421971 0.930337 0.193643
C3    C     C_3   0.237626 0.417717 0.929640 -0.273659
C4    C     C_R   0.218836 0.499842 0.500206 0.930498
C5    C     C_3   0.242477 0.410332 0.083146 -0.537697
C6    C     C_R   0.497489 0.739756 0.499814 0.878134
C7    C     C_R   0.781161 0.500052 0.499796 0.943176
C8    C     C_1   0.065450 0.499843 0.500312 -0.183939
C9    C     C_1   0.934551 0.499937 0.499689 -0.172177
C10   C     C_R   0.509939 0.062844 0.621683 0.051445
C11   C     C_R   0.481571 0.128396 0.502481 -0.108769
C12   C     C_R   0.431140 0.935681 0.386679 -0.206654
C13   C     C_R   0.431015 0.065136 0.387334 -0.192241
C14   C     C_1   0.601470 0.119550 0.849843 0.204704
C15   C     C_1   0.778682 0.123681 0.659340 0.184382
C16   C     C_1   0.701349 0.654041 0.139021 0.238434
C17   C     C_1   0.167702 0.534708 0.882491 0.292624
C18   C     C_R   0.481218 0.871317 0.501358 -0.079277
C19   C     C_R   0.509055 0.935116 0.620690 0.101345
C20   C     C_3   0.639328 0.924857 0.715090 -0.539546
C21   C     C_3   0.640892 0.067423 0.717175 -0.020025
C22   C     C_R   0.409354 0.419237 0.072395 0.202196
C23   C     C_R   0.598902 0.571966 0.070349 0.005373
C24   C     C_R   0.599516 0.570890 0.926629 -0.157073
H1    H     H_    0.398923 0.114988 0.296463 0.174772
H2    H     H_    0.191762 0.332183 0.881169 0.168369
H3    H     H_    0.192187 0.491725 0.136234 0.226677
H4    H     H_    0.205822 0.317778 0.123469 0.199938
H5    H     H_    0.399460 0.886831 0.295431 0.173069
H6    H     H_    0.605701 0.879772 0.812304 0.202402
H7    H     H_    0.739223 0.881623 0.666071 0.197302
H8    H     H_    0.677499 0.629912 0.870788 0.154225
N1    N     N_R   0.499010 0.499140 0.142800 -0.128130
N2    N     N_R   0.499010 0.499180 0.857150 -0.116176
N3    N     N_1   0.570904 0.159681 0.954747 -0.227846
N4    N     N_1   0.886797 0.167950 0.613901 -0.217766
N5    N     N_1   0.784003 0.720405 0.193702 -0.208115
N6    N     N_1   0.112490 0.626599 0.845965 -0.211670
O1    O     O_R   0.500020 0.316790 0.614690 -0.621464
O2    O     O_R   0.500000 0.316760 0.385350 -0.616298
O3    O     O_R   0.285350 0.500020 0.614650 -0.613788
O4    O     O_R   0.285340 0.499980 0.385310 -0.625969
O5    O     O_R   0.500000 0.683240 0.614650 -0.615638
O6    O     O_R   0.499980 0.683210 0.385310 -0.624060
O7    O     O_R   0.714660 0.500020 0.614690 -0.615625
O8    O     O_R   0.714650 0.499980 0.385350 -0.610528
Zn1   Zn    Zn3+2 0.500010 0.500020 0.653130 0.963200
Zn2   Zn    Zn3+2 0.499990 0.499980 0.346870 0.960562

loop_
_geom_bond_atom_site_label_1
_geom_bond_atom_site_label_2
_ccdc_geom_bond_type
C2    C22   A    
C23   C24   A    
C24   H8    S    
C12   H5    S    
C5    H4    S    
C10   C19   A    
C19   C20   S    
C1    C11   S    
C16   N5    T    
C4    C8    S    
C2    N2    A    
C2    C3    S    
O3    Zn1   S    
C20   H6    S    
C20   C21   S    
N1    Zn2   S    
C11   C13   A    
C13   H1    S    
O4    Zn2   S    
C4    O4    A    
C7    O7    A    
C14   C21   S    
C3    C17   S    
C16   C23   S    
C17   N6    T    
O7    Zn1   S    
C10   C21   S    
C6    C18   S    
O8    Zn2   S    
C10   C11   A    
C1    O1    A    
C7    O8    A    
C15   N4    T    
C15   C21   S    
C12   C13   A    
O1    Zn1   S    
C18   C19   A    
C4    O3    A    
C12   C18   A    
C14   N3    T    
C7    C9    S    
C22   N1    A    
O2    Zn2   S    
C6    O5    A    
C6    O6    A    
N2    Zn1   S    
C1    O2    A    
C3    C5    S    
C5    H3    S    
O5    Zn1   S    
C3    H2    S    
C24   N2    A    
C5    C22   S    
O6    Zn2   S    
C8    C9    T    
C23   N1    A    
C20   H7    S    
