data_mof_unit_67779.cif
_audit_creation_date              2012-12-10T16:52:40-0500
_audit_creation_method            fapswitch 2.2
_symmetry_space_group_name_H-M    P1
_symmetry_Int_Tables_number       1
_space_group_crystal_system       triclinic
_cell_length_a                    7.831697
_cell_length_b                    8.541338
_cell_length_c                    13.600267
_cell_angle_alpha                 93.14149
_cell_angle_beta                  92.2076
_cell_angle_gamma                 94.510142
_cell_volume                      904.74625

loop_
_atom_site_label
_atom_site_type_symbol
_atom_type_description
_atom_site_fract_x
_atom_site_fract_y
_atom_site_fract_z
_atom_type_partial_charge
C1    C     C_R   0.045534 0.794871 0.497926 0.957693
C2    C     C_R   0.937716 0.484096 0.317313 0.859572
C3    C     C_R   0.091810 0.543861 0.788838 -0.110568
C4    C     C_R   0.907721 0.454551 0.211294 -0.110726
C5    C     C_R   0.088346 0.714463 0.936440 -0.234961
C6    C     C_R   0.907349 0.280261 0.065155 -0.235176
C7    C     C_R   0.017789 0.665123 0.843091 -0.012362
C8    C     C_R   0.979659 0.331227 0.157845 -0.012059
C9    C     C_R   0.222373 0.466004 0.831488 -0.302327
C10   C     C_R   0.777393 0.532430 0.168457 -0.299949
C11   C     C_R   0.300732 0.519902 0.922495 0.102005
C12   C     C_R   0.954483 0.205136 0.502155 0.958295
C13   C     C_R   0.696202 0.476095 0.078642 0.101626
C14   C     C_R   0.234357 0.649328 0.973468 0.161936
C15   C     C_R   0.761227 0.345377 0.028247 0.161014
C16   C     C_R   0.452447 0.458550 0.959151 0.061682
C17   C     C_R   0.543604 0.536743 0.042523 0.061710
C18   C     C_R   0.115366 0.241053 0.200153 0.131573
C19   C     C_R   0.286120 0.305215 0.207696 -0.083439
C20   C     C_R   0.415626 0.216335 0.242742 -0.161275
C21   C     C_R   0.375005 0.063655 0.271491 -0.132733
C22   C     C_R   0.204984 0.999228 0.264455 -0.142501
C23   C     C_R   0.476659 0.670310 0.088510 -0.248387
C24   C     C_R   0.075454 0.087111 0.228386 -0.174994
C25   C     C_R   0.881929 0.755268 0.800984 0.131875
C26   C     C_R   0.921932 0.908749 0.772039 -0.173668
C27   C     C_R   0.792308 0.996661 0.736080 -0.141300
C28   C     C_R   0.622152 0.932618 0.729795 -0.134608
C29   C     C_R   0.581472 0.780335 0.759249 -0.161399
C30   C     C_R   0.711047 0.691488 0.794266 -0.085314
C31   C     C_R   0.518020 0.323858 0.913812 -0.247812
C32   C     C_R   0.321690 0.721118 0.056617 -0.236285
C33   C     C_R   0.672588 0.272446 0.945820 -0.235667
C34   C     C_2   0.069317 0.958920 0.497646 -0.385274
C35   C     C_2   0.930729 0.041103 0.502599 -0.386168
C36   C     C_R   0.062253 0.515725 0.682699 0.859904
H1    H     H_    0.274821 0.823291 0.093996 0.164487
H2    H     H_    0.053112 0.960127 0.777518 0.121431
H3    H     H_    0.823539 0.115031 0.714000 0.136709
H4    H     H_    0.521823 0.001129 0.702441 0.124706
H5    H     H_    0.449663 0.730990 0.754525 0.144716
H6    H     H_    0.678812 0.573431 0.816184 0.141544
H7    H     H_    0.037253 0.812263 0.976791 0.139752
H8    H     H_    0.957179 0.181303 0.025310 0.139791
H9    H     H_    0.540778 0.740487 0.149069 0.147699
H10   H     H_    0.452219 0.252803 0.854108 0.147706
H11   H     H_    0.199739 0.011399 0.493274 0.181514
H12   H     H_    0.718292 0.169216 0.909019 0.164883
H13   H     H_    0.800308 0.988627 0.506982 0.181284
H14   H     H_    0.487445 0.371046 0.429372 0.194466
H15   H     H_    0.512563 0.628926 0.570679 0.194971
H16   H     H_    0.730733 0.626761 0.212820 0.147784
H17   H     H_    0.271952 0.374119 0.786284 0.149358
H18   H     H_    0.318317 0.423630 0.186404 0.141863
H19   H     H_    0.547326 0.266013 0.248048 0.143716
H20   H     H_    0.475273 0.995125 0.298887 0.124580
H21   H     H_    0.173810 0.880555 0.285983 0.136475
H22   H     H_    0.944434 0.035365 0.222256 0.121827
N1    N     N_2   0.440860 0.456490 0.474790 -0.172485
N2    N     N_2   0.559140 0.543510 0.525210 -0.172285
O1    O     O_R   0.891570 0.738930 0.506190 -0.598093
O2    O     O_R   0.108430 0.261070 0.493810 -0.597959
O3    O     O_R   0.174650 0.711050 0.490030 -0.632336
O4    O     O_R   0.825350 0.288950 0.509970 -0.632375
O5    O     O_R   0.909850 0.521900 0.644940 -0.604308
O6    O     O_R   0.090150 0.478100 0.355060 -0.605153
O7    O     O_R   0.192930 0.494020 0.628780 -0.621715
O8    O     O_R   0.807070 0.505980 0.371220 -0.621210
Zn1   Zn    Zn3+2 0.810990 0.518620 0.510790 0.933599
Zn2   Zn    Zn3+2 0.189010 0.481380 0.489210 0.933125

loop_
_geom_bond_atom_site_label_1
_geom_bond_atom_site_label_2
_ccdc_geom_bond_type
C10   C13   A    
C35   H13   S    
C21   H20   S    
C2    C4    S    
C31   C33   A    
C29   C30   A    
C3    C9    A    
C12   O2    A    
C11   C16   A    
C3    C7    A    
C19   C20   A    
C7    C25   S    
O3    Zn2   S    
C13   C17   A    
C4    C8    A    
O7    Zn2   S    
C10   H16   S    
C23   C32   A    
C16   C31   A    
C22   H21   S    
C5    C14   A    
C36   O7    A    
N1    N2    D    
C6    H8    S    
C21   C22   A    
C12   C35   S    
C6    C15   A    
C9    C11   A    
C26   C27   A    
O6    Zn2   S    
C3    C36   S    
C20   H19   S    
O5    Zn1   S    
H14   N1    S    
N2    Zn1   S    
C19   H18   S    
C28   C29   A    
C17   C23   A    
C1    C34   S    
C18   C19   A    
C15   C33   A    
C2    O8    A    
C13   C15   A    
C5    H7    S    
C12   O4    A    
C11   C14   A    
C22   C24   A    
H15   N2    S    
C9    H17   S    
C28   H4    S    
N1    Zn2   S    
C4    C10   A    
C1    O3    A    
C27   C28   A    
C14   C32   A    
C20   C21   A    
O2    Zn2   S    
C18   C24   A    
C24   H22   S    
C34   C35   D    
O8    Zn1   S    
O1    Zn1   S    
C25   C30   A    
C5    C7    A    
C33   H12   S    
C36   O5    A    
C26   H2    S    
C6    C8    A    
C34   H11   S    
C29   H5    S    
C25   C26   A    
C32   H1    S    
C30   H6    S    
O4    Zn1   S    
C8    C18   S    
C23   H9    S    
C27   H3    S    
C16   C17   A    
C2    O6    A    
C31   H10   S    
C1    O1    A    
