data_mof_unit_63437.cif
_audit_creation_date              2012-12-10T20:04:58-0500
_audit_creation_method            fapswitch 2.2
_symmetry_space_group_name_H-M    P1
_symmetry_Int_Tables_number       1
_space_group_crystal_system       triclinic
_cell_length_a                    38.484874
_cell_length_b                    32.085087
_cell_length_c                    21.35203
_cell_angle_alpha                 89.99663
_cell_angle_beta                  123.499662
_cell_angle_gamma                 90.00801
_cell_volume                      21985.7225226

loop_
_atom_site_label
_atom_site_type_symbol
_atom_type_description
_atom_site_fract_x
_atom_site_fract_y
_atom_site_fract_z
_atom_type_partial_charge
C1    C     C_R   0.919306 0.000003 0.419303 0.908017
C2    C     C_R   0.271462 0.983170 0.821319 -0.181996
C3    C     C_R   0.980965 0.228408 0.931905 -0.183687
C4    C     C_R   0.515474 0.728408 0.067312 -0.183670
C5    C     C_R   0.484548 0.728408 0.932710 -0.183663
C6    C     C_R   0.000013 0.206774 0.000006 0.170226
C7    C     C_R   0.500012 0.706774 0.000011 0.170654
C8    C     C_1   0.500004 0.837921 0.000009 -0.071100
C9    C     C_1   0.000005 0.337921 0.000008 -0.071099
C10   C     C_3   0.981128 0.966532 0.751084 0.124928
C11   C     C_3   0.017940 0.966060 0.247981 0.125382
C12   C     C_3   0.481564 0.466305 0.751525 0.125116
C13   C     C_R   0.228531 0.482590 0.179120 -0.182030
C14   C     C_3   0.518250 0.466216 0.248294 0.125165
C15   C     C_1   0.000011 0.162340 0.000005 -0.073368
C16   C     C_1   0.500011 0.662340 0.000010 -0.073261
C17   C     C_1   0.000008 0.125024 0.000003 -0.185228
C18   C     C_1   0.500008 0.625023 0.000007 -0.185206
C19   C     C_1   0.500002 0.875242 0.000007 -0.176756
C20   C     C_1   0.000002 0.375242 0.000006 -0.176743
C21   C     C_3   0.000486 0.000043 0.811439 -0.007146
C22   C     C_3   0.999510 0.000093 0.188559 -0.007188
C23   C     C_3   0.500492 0.500066 0.811443 -0.007144
C24   C     C_R   0.771461 0.483869 0.821837 -0.182003
C25   C     C_3   0.499512 0.500078 0.188560 -0.007220
C26   C     C_3   0.980956 0.033419 0.750856 0.125690
C27   C     C_3   0.019953 0.032918 0.250056 0.125237
C28   C     C_3   0.480532 0.533185 0.750427 0.125511
C29   C     C_3   0.519656 0.533090 0.249756 0.125408
C30   C     C_3   0.020256 0.034583 0.749017 -0.208470
C31   C     C_3   0.980707 0.035148 0.251950 -0.208839
C32   C     C_3   0.519809 0.534851 0.748560 -0.208785
C33   C     C_3   0.480387 0.534965 0.251625 -0.208833
C34   C     C_3   0.040154 0.000133 0.810230 -0.218672
C35   C     C_R   0.706513 0.000135 0.207093 0.142170
C36   C     C_3   0.959861 0.001259 0.189792 -0.218584
C37   C     C_3   0.540154 0.500663 0.810222 -0.218652
C38   C     C_3   0.459853 0.500886 0.189780 -0.218587
C39   C     C_3   0.020434 0.965549 0.749249 -0.210611
C40   C     C_3   0.978621 0.966145 0.249815 -0.210197
C41   C     C_3   0.520879 0.465826 0.749689 -0.210407
C42   C     C_3   0.478930 0.465946 0.250121 -0.210333
C43   C     C_R   0.293487 0.000153 0.792913 0.142175
C44   C     C_R   0.206513 0.500145 0.207088 0.142192
C45   C     C_R   0.793487 0.500136 0.792903 0.142136
C46   C     C_R   0.727635 0.017076 0.279413 -0.218438
C47   C     C_R   0.272370 0.017181 0.720659 -0.218443
C48   C     C_R   0.227637 0.517745 0.278905 -0.218459
C49   C     C_R   0.080694 0.000008 0.580697 0.908002
C50   C     C_R   0.772372 0.516442 0.720122 -0.218440
C51   C     C_R   0.771324 0.017149 0.324184 0.118368
C52   C     C_R   0.228682 0.017259 0.675890 0.118356
C53   C     C_R   0.271325 0.517829 0.323674 0.118355
C54   C     C_R   0.728683 0.516509 0.675352 0.118350
C55   C     C_R   0.793258 0.000165 0.294947 0.148947
C56   C     C_R   0.206741 0.000192 0.705059 0.148942
C57   C     C_R   0.293259 0.500184 0.294943 0.148901
C58   C     C_R   0.706741 0.500168 0.705052 0.148995
C59   C     C_R   0.771893 0.983273 0.222530 -0.227962
C60   C     C_R   0.419306 0.500003 0.419303 0.908007
C61   C     C_R   0.228101 0.983215 0.777412 -0.227952
C62   C     C_R   0.271892 0.482635 0.223027 -0.227968
C63   C     C_R   0.728100 0.483910 0.777930 -0.227997
C64   C     C_1   0.662089 0.000055 0.162064 -0.057748
C65   C     C_1   0.337911 0.000066 0.837939 -0.057749
C66   C     C_1   0.162089 0.500059 0.162061 -0.057768
C67   C     C_1   0.837911 0.500057 0.837934 -0.057779
C68   C     C_1   0.837762 0.000047 0.338648 -0.044460
C69   C     C_1   0.162238 0.000070 0.661355 -0.044465
C70   C     C_1   0.337762 0.500055 0.338647 -0.044492
C71   C     C_R   0.580694 0.500007 0.580697 0.908044
C72   C     C_1   0.662238 0.500060 0.661352 -0.044464
C73   C     C_1   0.875064 0.999998 0.375441 -0.185065
C74   C     C_1   0.124935 0.000013 0.624560 -0.185062
C75   C     C_1   0.375065 0.499999 0.375441 -0.185074
C76   C     C_1   0.624935 0.500011 0.624559 -0.185091
C77   C     C_R   0.000169 0.000003 0.621939 0.888510
C78   C     C_R   0.999835 0.000008 0.378065 0.888523
C79   C     C_R   0.500165 0.500004 0.621935 0.888485
C80   C     C_R   0.499832 0.500007 0.378062 0.888572
C81   C     C_1   0.624783 0.000011 0.124523 -0.178818
C82   C     C_3   0.000206 0.999997 0.689196 -0.031056
C83   C     C_1   0.375217 0.000016 0.875477 -0.178820
C84   C     C_1   0.124783 0.500012 0.124522 -0.178835
C85   C     C_1   0.875217 0.500012 0.875476 -0.178838
C86   C     C_R   0.999997 0.919345 0.999999 0.905683
C87   C     C_R   0.499997 0.419344 0.999998 0.905699
C88   C     C_R   0.000105 0.000062 0.878305 0.884804
C89   C     C_R   0.999893 0.000088 0.121694 0.884814
C90   C     C_R   0.500107 0.500075 0.878306 0.884759
C91   C     C_R   0.499894 0.500080 0.121694 0.884734
C92   C     C_R   0.000003 0.080763 0.000000 0.905109
C93   C     C_3   0.999797 0.000018 0.310809 -0.031069
C94   C     C_R   0.500002 0.580762 0.000002 0.904993
C95   C     C_R   0.500000 0.919515 0.000001 0.903164
C96   C     C_R   1.000000 0.419515 0.000001 0.903023
C97   C     C_R   0.580530 0.999991 0.080389 0.902965
C98   C     C_R   0.419470 0.999991 0.919611 0.902961
C99   C     C_R   0.080530 0.499990 0.080389 0.902898
C100  C     C_R   0.919470 0.499991 0.919611 0.902944
C101  C     C_R   0.500000 0.080597 0.999999 0.904338
C102  C     C_R   0.000000 0.580597 0.999999 0.904379
C103  C     C_R   0.484830 0.228260 0.037022 -0.181689
C104  C     C_3   0.500204 0.500005 0.689191 -0.031006
C105  C     C_R   0.515150 0.228270 0.962946 -0.181683
C106  C     C_R   0.986287 0.728260 0.039378 -0.181663
C107  C     C_R   0.013696 0.728270 0.960601 -0.181626
C108  C     C_R   0.499991 0.206628 0.999985 0.168182
C109  C     C_R   0.999992 0.706628 0.999989 0.168125
C110  C     C_R   0.013691 0.771706 0.960597 -0.183755
C111  C     C_R   0.986288 0.771696 0.039382 -0.183619
C112  C     C_R   0.515146 0.271705 0.962941 -0.183726
C113  C     C_R   0.484831 0.271696 0.037025 -0.183708
C114  C     C_3   0.960214 0.999905 0.689341 -0.164644
C115  C     C_3   0.499794 0.500014 0.310805 -0.031058
C116  C     C_3   0.039768 0.998839 0.310639 -0.164657
C117  C     C_3   0.460219 0.499401 0.689348 -0.164650
C118  C     C_3   0.539777 0.499196 0.310650 -0.164531
C119  C     C_R   0.999989 0.793335 0.999989 0.171891
C120  C     C_R   0.499988 0.293334 0.999983 0.171815
C121  C     C_1   0.499995 0.162189 0.999989 -0.070906
C122  C     C_1   0.999995 0.662189 0.999991 -0.070893
C123  C     C_1   0.999990 0.837768 0.999992 -0.073271
C124  C     C_1   0.499989 0.337768 0.999987 -0.073295
C125  C     C_1   0.999992 0.875084 0.999995 -0.185397
C126  C     C_R   0.728532 0.983233 0.178622 -0.181989
C127  C     C_1   0.499992 0.375084 0.999991 -0.185414
C128  C     C_1   0.499998 0.124869 0.999993 -0.176900
C129  C     C_1   0.999998 0.624869 0.999994 -0.176882
C130  C     C_R   0.484544 0.771844 0.932709 -0.181935
C131  C     C_R   0.515473 0.771844 0.067312 -0.181921
C132  C     C_R   0.980961 0.271844 0.931906 -0.182069
C133  C     C_R   0.019059 0.271844 0.068109 -0.182021
C134  C     C_R   0.500007 0.793481 0.000010 0.167907
C135  C     C_R   0.000009 0.293481 0.000008 0.168076
C136  C     C_R   0.019059 0.228408 0.068109 -0.183799
H1    H     H_    0.975657 0.788367 0.069947 0.137767
H2    H     H_    0.033837 0.211733 0.120947 0.139727
H3    H     H_    0.472551 0.711734 0.880492 0.139271
H4    H     H_    0.527472 0.711733 0.119531 0.139252
H5    H     H_    0.472543 0.788515 0.880489 0.141777
H6    H     H_    0.527473 0.788515 0.119532 0.141776
H7    H     H_    0.966180 0.288517 0.879066 0.141717
H8    H     H_    0.033839 0.288517 0.120950 0.141697
H9    H     H_    0.927755 0.999813 0.639069 0.131276
H10   H     H_    0.072216 0.997857 0.360889 0.131211
H11   H     H_    0.427760 0.498889 0.639088 0.131174
H12   H     H_    0.024322 0.788385 0.930033 0.137753
H13   H     H_    0.572230 0.498510 0.360912 0.131326
H14   H     H_    0.035849 0.062971 0.746234 0.150559
H15   H     H_    0.965904 0.063951 0.255520 0.151033
H16   H     H_    0.535032 0.563437 0.745396 0.150669
H17   H     H_    0.465321 0.563632 0.254927 0.150804
H18   H     H_    0.072578 0.000228 0.860600 0.162978
H19   H     H_    0.927448 0.002250 0.139442 0.162977
H20   H     H_    0.572578 0.501181 0.860582 0.162925
H21   H     H_    0.427435 0.501579 0.139419 0.162992
H22   H     H_    0.036169 0.937232 0.746650 0.148891
H23   H     H_    0.473071 0.288367 0.065767 0.137872
H24   H     H_    0.962120 0.938270 0.251677 0.148385
H25   H     H_    0.536970 0.437715 0.747426 0.148656
H26   H     H_    0.462679 0.437922 0.252221 0.148547
H27   H     H_    0.788791 0.970182 0.200045 0.149064
H28   H     H_    0.211199 0.970059 0.799845 0.149087
H29   H     H_    0.288788 0.469035 0.200932 0.149102
H30   H     H_    0.711197 0.471313 0.800773 0.149033
H31   H     H_    0.712193 0.970088 0.122586 0.147217
H32   H     H_    0.287796 0.969959 0.877304 0.147218
H33   H     H_    0.212191 0.468934 0.123475 0.147209
H34   H     H_    0.526906 0.288384 0.934200 0.137874
H35   H     H_    0.787794 0.471218 0.878232 0.147244
H36   H     H_    0.710128 0.030062 0.300782 0.138530
H37   H     H_    0.289881 0.030230 0.699340 0.138522
H38   H     H_    0.210132 0.531234 0.299887 0.138505
H39   H     H_    0.789884 0.528941 0.698398 0.138555
H40   H     H_    0.951301 0.911599 0.707214 0.184872
H41   H     H_    0.981910 0.912500 0.801370 0.170970
H42   H     H_    0.046236 0.910324 0.290291 0.185129
H43   H     H_    0.015666 0.912090 0.196170 0.170854
H44   H     H_    0.452454 0.410984 0.708400 0.185057
H45   H     H_    0.473067 0.211584 0.065757 0.141479
H46   H     H_    0.483044 0.412304 0.802545 0.170991
H47   H     H_    0.546992 0.410712 0.291064 0.185072
H48   H     H_    0.516483 0.412253 0.196927 0.170964
H49   H     H_    0.772655 0.047603 0.409967 0.179932
H50   H     H_    0.808431 0.010028 0.436516 0.181526
H51   H     H_    0.227360 0.047854 0.590227 0.179909
H52   H     H_    0.191576 0.010262 0.563531 0.181543
H53   H     H_    0.272659 0.549366 0.408555 0.179923
H54   H     H_    0.308433 0.511680 0.436198 0.181527
H55   H     H_    0.727364 0.545914 0.588740 0.179969
H56   H     H_    0.526916 0.211601 0.934212 0.141481
H57   H     H_    0.691573 0.508462 0.563229 0.181536
H58   H     H_    0.950865 0.088189 0.706616 0.185797
H59   H     H_    0.981453 0.087483 0.800780 0.171106
H60   H     H_    0.051554 0.086838 0.295811 0.185561
H61   H     H_    0.020943 0.086990 0.201638 0.171153
H62   H     H_    0.449731 0.587561 0.705477 0.185601
H63   H     H_    0.480337 0.587257 0.799649 0.170893
H64   H     H_    0.550758 0.587298 0.295010 0.185634
H65   H     H_    0.520155 0.587163 0.200839 0.170899
H66   H     H_    0.975653 0.711583 0.069937 0.141507
H67   H     H_    0.024331 0.711601 0.930043 0.141513
H68   H     H_    0.966189 0.211732 0.879066 0.139897
N1    N     N_3   0.959990 0.929765 0.754317 -0.447787
N2    N     N_3   0.042283 0.068998 0.248091 -0.447560
N3    N     N_3   0.458735 0.569580 0.752929 -0.447877
N4    N     N_3   0.541657 0.569370 0.247460 -0.447637
N5    N     N_3   0.038054 0.928737 0.243705 -0.448513
N6    N     N_3   0.460904 0.429274 0.755254 -0.448069
N7    N     N_3   0.538702 0.429074 0.244368 -0.448213
N8    N     N_3   0.793499 0.034572 0.398559 -0.453546
N9    N     N_3   0.206512 0.034769 0.601582 -0.453562
N10   N     N_3   0.293503 0.535922 0.397532 -0.453447
N11   N     N_3   0.706515 0.533285 0.600503 -0.453626
N12   N     N_3   0.959628 0.070090 0.753828 -0.448315
O1    O     O_R   0.939010 0.034440 0.439030 -0.613888
O2    O     O_R   0.439000 0.999980 0.991570 -0.615813
O3    O     O_R   0.061000 0.499980 0.008430 -0.615738
O4    O     O_R   0.939000 0.499980 0.991570 -0.615778
O5    O     O_R   0.500000 0.061040 0.052440 -0.615967
O6    O     O_R   0.500000 0.061040 0.947560 -0.615971
O7    O     O_R   0.000000 0.561040 0.052440 -0.616006
O8    O     O_R   0.000000 0.561040 0.947560 -0.615976
O9    O     O_R   0.939030 0.965580 0.439000 -0.619901
O10   O     O_R   0.060970 0.965580 0.561000 -0.619837
O11   O     O_R   0.439030 0.465580 0.439000 -0.619893
O12   O     O_R   0.060990 0.034440 0.560970 -0.613964
O13   O     O_R   0.560970 0.465580 0.561000 -0.619840
O14   O     O_R   0.000010 0.034440 0.593030 -0.627829
O15   O     O_R   0.999990 0.034440 0.406970 -0.627886
O16   O     O_R   0.500010 0.534440 0.593030 -0.627915
O17   O     O_R   0.499990 0.534440 0.406970 -0.627872
O18   O     O_R   0.000020 0.965580 0.593000 -0.628919
O19   O     O_R   0.999980 0.965580 0.407000 -0.628880
O20   O     O_R   0.500020 0.465580 0.593000 -0.628885
O21   O     O_R   0.499980 0.465580 0.407000 -0.628889
O22   O     O_R   0.034440 0.939060 0.034360 -0.615380
O23   O     O_R   0.439010 0.534440 0.439030 -0.613897
O24   O     O_R   0.965560 0.939060 0.965640 -0.615620
O25   O     O_R   0.534440 0.439060 0.034360 -0.615504
O26   O     O_R   0.465560 0.439060 0.965640 -0.615538
O27   O     O_R   0.034440 0.000050 0.941370 -0.640318
O28   O     O_R   0.965560 0.000050 0.058630 -0.640307
O29   O     O_R   0.534440 0.500050 0.941370 -0.640354
O30   O     O_R   0.465560 0.500050 0.058630 -0.640336
O31   O     O_R   0.965570 0.000070 0.872530 -0.599032
O32   O     O_R   0.034430 0.000070 0.127470 -0.599029
O33   O     O_R   0.465570 0.500070 0.872530 -0.598978
O34   O     O_R   0.560990 0.534440 0.560970 -0.613995
O35   O     O_R   0.534430 0.500070 0.127470 -0.598990
O36   O     O_R   0.034450 0.061050 0.034440 -0.615726
O37   O     O_R   0.965550 0.061050 0.965560 -0.615478
O38   O     O_R   0.534450 0.561050 0.034440 -0.615547
O39   O     O_R   0.465550 0.561050 0.965560 -0.615491
O40   O     O_R   0.500030 0.939050 0.052570 -0.615835
O41   O     O_R   0.499970 0.939050 0.947430 -0.615833
O42   O     O_R   0.000030 0.439050 0.052570 -0.615736
O43   O     O_R   0.999970 0.439050 0.947430 -0.615759
O44   O     O_R   0.561000 0.000050 0.113470 -0.615795
O45   O     O_R   0.439000 0.000050 0.886530 -0.615794
O46   O     O_R   0.061000 0.500050 0.113470 -0.615831
O47   O     O_R   0.939000 0.500050 0.886530 -0.615852
O48   O     O_R   0.561000 0.999980 0.008430 -0.615815
Zn1   Zn    Zn3+2 1.000000 0.045990 0.500000 0.957360
Zn2   Zn    Zn3+2 0.499980 0.000060 0.929880 0.966313
Zn3   Zn    Zn3+2 0.000020 0.500060 0.070120 0.966386
Zn4   Zn    Zn3+2 0.999980 0.500060 0.929880 0.966403
Zn5   Zn    Zn3+2 0.500000 0.545990 0.500000 0.957190
Zn6   Zn    Zn3+2 0.000000 0.954030 0.500000 0.948702
Zn7   Zn    Zn3+2 0.500000 0.454030 0.500000 0.948721
Zn8   Zn    Zn3+2 0.045990 0.000050 0.045940 0.971352
Zn9   Zn    Zn3+2 0.954010 0.000050 0.954060 0.971369
Zn10  Zn    Zn3+2 0.545990 0.500050 0.045940 0.971410
Zn11  Zn    Zn3+2 0.454010 0.500050 0.954060 0.971447
Zn12  Zn    Zn3+2 0.500020 0.000060 0.070120 0.966316

loop_
_geom_bond_atom_site_label_1
_geom_bond_atom_site_label_2
_ccdc_geom_bond_type
C101  O6    A    
O25   Zn10  S    
C100  O47   A    
C116  H10   S    
C21   C26   S    
H51   N9    S    
C96   O42   A    
C53   N10   S    
C49   C74   S    
C55   C59   A    
C118  H13   S    
C61   H28   S    
C44   C66   S    
C89   O32   A    
C105  H56   S    
C102  C129  S    
C108  C121  S    
C72   C76   T    
C131  C134  A    
C88   O27   A    
C87   C127  S    
C55   C68   S    
O38   Zn10  S    
C102  O8    A    
C57   C62   A    
C91   O35   A    
O11   Zn7   S    
C59   C126  A    
C89   O28   A    
C10   C39   S    
C12   C23   S    
C77   O14   A    
C50   C54   A    
C29   N4    S    
C14   N7    S    
C24   C45   A    
C77   C82   S    
C111  C119  A    
O30   Zn11  S    
C103  C113  A    
C10   N1    S    
C79   O20   A    
O26   Zn11  S    
C38   C42   S    
O16   Zn5   S    
C41   H25   S    
C28   C117  S    
C94   O38   A    
H58   N12   S    
C71   C76   S    
O6    Zn2   S    
C33   H17   S    
C109  C122  S    
C87   O25   A    
C4    H4    S    
C78   C93   S    
C1    O9    A    
C90   O29   A    
C29   C33   S    
H46   N6    S    
C101  C128  S    
O24   Zn9   S    
O5    Zn12  S    
C26   N12   S    
C24   H35   S    
C130  H5    S    
O27   Zn8   S    
C77   O18   A    
C6    C136  A    
O43   Zn4   S    
C97   O48   A    
H55   N11   S    
C6    C15   S    
C51   N8    S    
C22   C89   S    
C63   H30   S    
C112  H34   S    
C13   C62   A    
C99   O46   A    
C46   H36   S    
C78   O19   A    
C14   C118  S    
C83   C98   S    
C32   H16   S    
C45   C67   S    
C133  C136  A    
C86   O24   A    
C32   C104  S    
O18   Zn6   S    
C35   C64   S    
C44   C48   A    
C57   C70   S    
O31   Zn9   S    
C43   C47   A    
C40   C93   S    
C71   O34   A    
O7    Zn3   S    
C10   C114  S    
C2    C61   A    
C14   C42   S    
C39   C82   S    
C27   C116  S    
C3    C6    A    
C132  H7    S    
C13   H33   S    
C20   C96   S    
C21   C88   S    
H64   N4    S    
C103  H45   S    
C86   C125  S    
H60   N2    S    
C3    H68   S    
C107  C109  A    
C37   H20   S    
H61   N2    S    
C130  C134  A    
C17   C92   S    
C4    C7    A    
C110  H12   S    
O42   Zn3   S    
H52   N9    S    
C90   O33   A    
C102  O7    A    
C5    H3    S    
C4    C131  A    
C48   H38   S    
C106  C111  A    
C92   O36   A    
C10   C21   S    
C25   C29   S    
C48   C53   A    
C79   O16   A    
C105  C108  A    
C67   C85   T    
C8    C19   T    
C25   C91   S    
O23   Zn5   S    
C27   C31   S    
C34   C39   S    
C132  C135  A    
C36   C40   S    
C59   H27   S    
C82   C114  S    
C121  C128  T    
C136  H2    S    
C126  H31   S    
O12   Zn1   S    
O46   Zn3   S    
C5    C7    A    
C30   C34   S    
O36   Zn8   S    
C87   O26   A    
C21   C34   S    
C78   O15   A    
C31   C93   S    
C8    C134  S    
C46   C51   A    
O20   Zn7   S    
O3    Zn4   S    
H42   N5    S    
O39   Zn11  S    
O29   Zn10  S    
O19   Zn6   S    
C93   C116  S    
H40   N1    S    
C30   C82   S    
C35   C126  A    
H44   N6    S    
C26   C114  S    
O35   Zn10  S    
C107  H67   S    
C12   C41   S    
C23   C37   S    
C25   C38   S    
C106  H66   S    
C113  C120  A    
C31   H15   S    
C9    C20   T    
O32   Zn8   S    
C80   C115  S    
C28   C32   S    
C2    C43   A    
C43   C65   S    
C115  C118  S    
O47   Zn4   S    
H63   N3    S    
C71   O13   A    
H49   N8    S    
C69   C74   T    
O21   Zn7   S    
C60   O23   A    
C32   C37   S    
C113  H23   S    
C49   O12   A    
O22   Zn8   S    
C11   C116  S    
H54   N10   S    
C100  O4    A    
H59   N12   S    
C47   H37   S    
C131  H6    S    
C124  C127  T    
C9    C135  S    
C35   C46   A    
C16   C18   T    
C5    C130  A    
C105  C112  A    
C99   O3    A    
C26   C30   S    
C34   H18   S    
O1    Zn1   S    
C22   C27   S    
O15   Zn1   S    
C39   H22   S    
O28   Zn9   S    
C18   C94   S    
C107  C110  A    
C79   C104  S    
C23   C28   S    
O48   Zn2   S    
C2    H32   S    
C64   C81   T    
C19   C95   S    
C111  H1    S    
H48   N7    S    
C112  C120  A    
O33   Zn11  S    
C54   C58   A    
C101  O5    A    
C58   C63   A    
C95   O41   A    
H43   N5    S    
C7    C16   S    
C133  H8    S    
O2    Zn12  S    
C114  H9    S    
C30   H14   S    
H62   N3    S    
C31   C36   S    
C84   C99   S    
C80   O17   A    
C40   H24   S    
O40   Zn12  S    
O41   Zn2   S    
C38   H21   S    
C53   C57   A    
C110  C119  A    
O8    Zn4   S    
C3    C132  A    
C42   H26   S    
C15   C17   T    
C47   C52   A    
C119  C123  S    
C24   C63   A    
C22   C36   S    
C29   C118  S    
C104  C117  S    
C11   C22   S    
C33   C38   S    
C41   C104  S    
C117  H11   S    
C60   O11   A    
C1    C73   S    
C54   N11   S    
C27   N2    S    
C98   O2    A    
C68   C73   T    
C36   H19   S    
C12   N6    S    
O45   Zn2   S    
C85   C100  S    
O37   Zn9   S    
C94   O39   A    
C11   N5    S    
C88   O31   A    
O17   Zn5   S    
O13   Zn7   S    
C98   O45   A    
C58   C72   S    
H50   N8    S    
C33   C115  S    
C81   C97   S    
C45   C50   A    
C96   O43   A    
C52   N9    S    
C86   O22   A    
H65   N4    S    
H41   N1    S    
C51   C55   A    
C13   C44   A    
C14   C25   S    
C37   C41   S    
C11   C40   S    
C92   O37   A    
O9    Zn6   S    
C91   O30   A    
C60   C75   S    
C123  C125  T    
H53   N10   S    
C66   C84   T    
C12   C117  S    
O44   Zn12  S    
C52   C56   A    
C42   C115  S    
C62   H29   S    
H57   N11   S    
C80   O21   A    
C23   C90   S    
C56   C69   S    
C70   C75   T    
C133  C135  A    
C28   N3    S    
C56   C61   A    
C50   H39   S    
C103  C108  A    
C1    O1    A    
C122  C129  T    
O34   Zn5   S    
C49   O10   A    
O4    Zn3   S    
H47   N7    S    
C95   O40   A    
O14   Zn1   S    
C65   C83   T    
O10   Zn6   S    
C120  C124  S    
C97   O44   A    
C106  C109  A    
