data_mof_unit_32012.cif
_audit_creation_date              2012-12-11T15:58:46-0500
_audit_creation_method            fapswitch 2.2
_symmetry_space_group_name_H-M    P1
_symmetry_Int_Tables_number       1
_space_group_crystal_system       triclinic
_cell_length_a                    8.42631
_cell_length_b                    18.88096
_cell_length_c                    18.937541
_cell_angle_alpha                 98.448773
_cell_angle_beta                  93.645108
_cell_angle_gamma                 91.926384
_cell_volume                      2971.35912574

loop_
_atom_site_label
_atom_site_type_symbol
_atom_type_description
_atom_site_fract_x
_atom_site_fract_y
_atom_site_fract_z
_atom_type_partial_charge
Ba1   Ba    Ba6+2 0.152460 0.535140 0.468980 1.622062
Ba2   Ba    Ba6+2 0.657710 0.464850 0.530960 1.657073
C1    C     C_3   0.422126 0.721618 0.220133 -0.360489
C2    C     C_R   0.089758 0.905859 0.567080 0.034212
C3    C     C_R   0.242931 0.928800 0.597163 -0.091971
C4    C     C_3   0.937393 0.725848 0.325273 0.365682
C5    C     C_R   0.302583 0.998451 0.595291 -0.102093
C6    C     C_R   0.209639 0.047351 0.564091 0.031631
C7    C     C_R   0.055750 0.025324 0.533640 0.009261
C8    C     C_R   0.268290 0.117892 0.563665 -0.110172
C9    C     C_R   0.173663 0.168842 0.535339 -0.043647
C10   C     C_R   0.019852 0.146678 0.503489 -0.008222
C11   C     C_R   0.962446 0.074469 0.502241 -0.005850
C12   C     C_3   0.460752 0.713403 0.297910 0.329764
C13   C     C_R   0.227316 0.241389 0.538423 -0.033413
C14   C     C_R   0.126112 0.290779 0.512164 -0.257165
C15   C     C_R   0.975123 0.269878 0.478768 0.080600
C16   C     C_3   0.951478 0.800911 0.305637 -0.374891
C17   C     C_R   0.923707 0.196082 0.472117 -0.060869
C18   C     C_R   0.841831 0.931367 0.503980 -0.003973
C19   C     C_R   0.782592 0.859492 0.504142 -0.032076
C20   C     C_R   0.881784 0.809824 0.534740 -0.071263
C21   C     C_R   0.031473 0.835345 0.568244 -0.039258
C22   C     C_R   0.778840 0.169688 0.434914 -0.046888
C23   C     C_3   0.453008 0.689052 0.674325 0.451024
C24   C     C_R   0.719001 0.099997 0.437150 0.032655
C25   C     C_R   0.810190 0.051738 0.470796 0.011065
C26   C     C_R   0.748877 0.980771 0.472378 -0.005618
C27   C     C_R   0.566433 0.078584 0.407192 -0.076131
C28   C     C_3   0.800547 0.343392 0.292998 0.446254
C29   C     C_R   0.503591 0.010383 0.410936 -0.099808
C30   C     C_R   0.593712 0.960128 0.442893 0.018555
C31   C     C_R   0.625236 0.837920 0.473906 -0.050041
C32   C     C_R   0.529894 0.890351 0.445801 0.109288
C33   C     C_R   0.571407 0.764740 0.472596 0.001407
C34   C     C_3   0.367713 0.755289 0.705450 -0.330579
C35   C     C_R   0.673392 0.716655 0.501735 -0.087638
C36   C     C_R   0.828351 0.736497 0.530937 0.051176
C37   C     C_R   0.631720 0.505660 0.289658 -0.264565
C38   C     C_R   0.471505 0.485754 0.271924 -0.000575
C39   C     C_R   0.408512 0.489602 0.202630 -0.120834
C40   C     C_3   0.812690 0.306314 0.215082 0.018228
C41   C     C_R   0.504581 0.514682 0.152329 -0.002157
C42   C     C_R   0.659209 0.544701 0.175799 -0.142655
C43   C     C_R   0.721557 0.541237 0.245923 0.030622
C44   C     C_R   0.472430 0.558986 0.033036 -0.079585
C45   C     C_3   0.895492 0.265883 0.671865 0.415960
C46   C     C_R   0.418862 0.548634 0.960544 -0.081658
C47   C     C_R   0.337833 0.484169 0.928380 0.063295
C48   C     C_R   0.308146 0.431142 0.971156 -0.084933
C49   C     C_R   0.361109 0.441634 0.043696 -0.091813
C50   C     C_R   0.444849 0.505492 0.075511 0.062167
C51   C     C_R   0.141224 0.438914 0.822538 -0.133842
C52   C     C_3   0.016768 0.613072 0.685688 0.358363
C53   C     C_R   0.095884 0.433110 0.748939 -0.002779
C54   C     C_R   0.346736 0.491246 0.729648 0.076566
C55   C     C_R   0.392275 0.497164 0.802454 -0.133584
C56   C     C_3   0.881977 0.191073 0.692229 -0.362052
C57   C     C_R   0.290372 0.471771 0.850085 -0.018420
C58   C     C_R   0.201043 0.457629 0.702811 -0.276749
C59   C     C_3   0.026708 0.625561 0.767384 -0.034489
C60   C     C_3   0.233734 0.317226 0.271424 0.499897
C61   C     C_3   0.323144 0.297644 0.202880 -0.086311
C62   C     C_3   0.732603 0.198608 0.130907 -0.280377
C63   C     C_3   0.830237 0.702448 0.827571 -0.182534
C64   C     C_3   0.259572 0.206860 0.328635 -0.180985
C65   C     C_3   0.291829 0.224508 0.084859 -0.246029
C66   C     C_3   0.625990 0.306065 0.876300 -0.185583
C67   C     C_3   0.364484 0.268164 0.704733 0.349794
C68   C     C_3   0.653501 0.600686 0.431887 0.023254
C69   C     C_3   0.421324 0.261732 0.781623 0.011009
C70   C     C_R   0.995696 0.954034 0.534634 0.007526
H1    H     H_    0.470228 0.655210 0.300508 0.010039
H2    H     H_    0.378275 0.346420 0.187247 0.021676
H3    H     H_    0.418626 0.260735 0.213675 0.142061
H4    H     H_    0.576096 0.742485 0.316154 -0.024153
H5    H     H_    0.518114 0.699197 0.187122 0.072679
H6    H     H_    0.397185 0.670559 0.619801 0.018652
H7    H     H_    0.417323 0.775401 0.760811 0.114427
H8    H     H_    0.382978 0.797990 0.672010 0.043716
H9    H     H_    0.238830 0.742506 0.706536 0.108070
H10   H     H_    0.412326 0.779202 0.215034 0.107495
H11   H     H_    0.964962 0.840900 0.355147 0.082043
H12   H     H_    0.751081 0.338820 0.178038 0.026967
H13   H     H_    0.821110 0.266571 0.621400 0.081909
H14   H     H_    0.022020 0.277852 0.662922 -0.122768
H15   H     H_    0.756142 0.176969 0.700433 0.143127
H16   H     H_    0.923832 0.151354 0.649035 0.068771
H17   H     H_    0.956351 0.188845 0.742355 0.097373
H18   H     H_    0.264930 0.227959 0.688064 -0.065654
H19   H     H_    0.320932 0.322910 0.703574 -0.033793
H20   H     H_    0.320465 0.271759 0.816441 0.004850
H21   H     H_    0.045619 0.717055 0.358385 0.133105
H22   H     H_    0.460198 0.206257 0.783474 0.073923
H23   H     H_    0.935715 0.304322 0.200136 0.035350
H24   H     H_    0.318417 0.892617 0.621184 0.063747
H25   H     H_    0.421713 0.014117 0.618535 0.070748
H26   H     H_    0.168759 0.345873 0.514856 0.082441
H27   H     H_    0.387466 0.132623 0.586842 0.097603
H28   H     H_    0.105243 0.800663 0.595359 0.091493
H29   H     H_    0.707774 0.203044 0.405047 0.113193
H30   H     H_    0.493779 0.115240 0.381929 0.056563
H31   H     H_    0.383595 0.997964 0.387746 0.062840
H32   H     H_    0.832184 0.722751 0.357084 -0.053595
H33   H     H_    0.504653 0.524747 0.822251 0.081811
H34   H     H_    0.134954 0.599284 0.666937 -0.052136
H35   H     H_    0.440620 0.591458 0.929658 0.061359
H36   H     H_    0.534168 0.609109 0.055984 0.061157
H37   H     H_    0.287259 0.469995 0.187015 0.076597
H38   H     H_    0.247986 0.380675 0.948077 0.057917
H39   H     H_    0.339716 0.398815 0.074554 0.058988
H40   H     H_    0.057895 0.421306 0.858265 0.067002
H41   H     H_    0.731838 0.568582 0.139675 0.076661
H42   H     H_    0.163662 0.456241 0.646855 0.056462
H43   H     H_    0.057212 0.806154 0.274318 0.139065
H44   H     H_    0.688839 0.492959 0.338056 -0.004210
H45   H     H_    0.930354 0.567552 0.666563 0.071538
H46   H     H_    0.842833 0.811883 0.273346 0.105591
H47   H     H_    0.854924 0.398678 0.298998 -0.040128
H48   H     H_    0.784820 0.202159 0.239880 0.221785
H49   H     H_    0.666349 0.146189 0.126943 0.105882
H50   H     H_    0.854399 0.189235 0.113203 0.117775
H51   H     H_    0.668776 0.231481 0.095100 0.113618
H52   H     H_    0.830028 0.590753 0.818200 0.208310
H53   H     H_    0.701704 0.702659 0.837375 0.119703
H54   H     H_    0.855502 0.743602 0.792977 0.140008
H55   H     H_    0.901214 0.715900 0.879594 0.072921
H56   H     H_    0.104857 0.673840 0.787929 0.086182
H57   H     H_    0.082784 0.223827 0.252225 0.195542
H58   H     H_    0.184506 0.162926 0.344107 0.078377
H59   H     H_    0.318785 0.237292 0.378515 0.140247
H60   H     H_    0.350346 0.182801 0.293575 0.084840
H61   H     H_    0.136165 0.299618 0.126006 0.184363
H62   H     H_    0.199879 0.200293 0.042859 0.103208
H63   H     H_    0.359186 0.180528 0.103802 0.121328
H64   H     H_    0.373645 0.260502 0.061192 0.100520
H65   H     H_    0.632907 0.750329 0.642677 0.105056
H66   H     H_    0.672308 0.663941 0.644464 0.187930
H67   H     H_    0.083355 0.579759 0.787674 0.006705
H68   H     H_    0.526621 0.365142 0.801985 0.215557
H69   H     H_    0.539533 0.316918 0.918098 0.076340
H70   H     H_    0.728709 0.345264 0.889227 0.111895
H71   H     H_    0.670682 0.251347 0.876084 0.101054
H72   H     H_    0.294614 0.910279 0.450696 0.175320
H73   H     H_    0.350734 0.878795 0.367385 0.181288
H74   H     H_    0.521377 0.632734 0.521893 0.202439
H75   H     H_    0.553379 0.567377 0.410626 0.105242
H76   H     H_    0.736516 0.558998 0.439401 0.151804
H77   H     H_    0.679790 0.633418 0.389825 -0.035003
H78   H     H_    0.138780 0.353188 0.259334 0.006535
H79   H     H_    0.625797 0.381122 0.351657 0.183107
H80   H     H_    0.579410 0.364446 0.264358 0.092423
H81   H     H_    0.307756 0.692299 0.200118 0.139017
N1    N     N_2   0.741033 0.234189 0.204121 -0.409185
N2    N     N_2   0.868095 0.632297 0.792758 -0.392896
N3    N     N_2   0.160001 0.252561 0.291249 -0.404076
N4    N     N_2   0.215672 0.264508 0.143436 -0.443943
N5    N     N_3   0.621199 0.708140 0.672241 -0.466649
N6    N     N_2   0.551779 0.312999 0.806872 -0.355492
N7    N     N_3   0.366349 0.874228 0.421723 -0.455930
N8    N     N_2   0.623749 0.644096 0.498316 -0.439513
N9    N     N_3   0.635237 0.343731 0.306459 -0.441734
O1    O     O_2   0.118870 0.674530 0.547560 -0.476451
O2    O     O_2   0.766863 0.449447 0.747286 -0.486737
O3    O     O_3   0.840997 0.315286 0.726978 -0.566692
O4    O     O_3   0.870460 0.585330 0.542110 -0.491706
O5    O     O_3   0.436130 0.464210 0.414140 -0.479038
O6    O     O_2   0.629420 0.533310 0.672080 -0.447331
O7    O     O_3   0.436954 0.637840 0.720138 -0.642705
O8    O     O_2   0.556706 0.242513 0.526803 -0.492330
O9    O     O_3   0.489654 0.254172 0.659736 -0.582516
O10   O     O_3   0.354280 0.631750 0.418430 -0.486203
O11   O     O_2   0.233055 0.754902 0.466136 -0.476417
O12   O     O_3   0.335667 0.350730 0.329877 -0.611589
O13   O     O_3   0.969891 0.676238 0.661202 -0.644669
O14   O     O_3   0.339836 0.742799 0.339292 -0.586938
O15   O     O_2   0.180880 0.466650 0.327890 -0.467259
O16   O     O_3   0.939000 0.596010 0.380670 -0.510493
O17   O     O_2   0.057224 0.553392 0.253128 -0.475820
O18   O     O_3   0.922275 0.675216 0.262681 -0.609237
O19   O     O_2   0.691430 0.325420 0.452420 -0.466064
O20   O     O_3   0.939830 0.414660 0.457830 -0.489346
O21   O     O_3   0.456020 0.368240 0.581510 -0.451551
O22   O     O_3   0.879221 0.304597 0.340547 -0.635228
O23   O     O_3   0.374170 0.535780 0.585810 -0.497020
O24   O     O_3   0.871300 0.403980 0.619270 -0.493368
P1    P     P_3+3 0.947550 0.663200 0.567530 0.979173
P2    P     P_3+3 0.354660 0.445020 0.336980 0.971369
P3    P     P_3+3 0.910587 0.588700 0.286129 0.944129
P4    P     P_3+3 0.862750 0.336790 0.432410 1.002743
P5    P     P_3+3 0.893823 0.401736 0.711533 0.960999
P6    P     P_3+3 0.376810 0.724692 0.426727 0.967217
P7    P     P_3+3 0.447353 0.549597 0.676124 0.955462
P8    P     P_3+3 0.429925 0.275497 0.575440 0.967325

loop_
_geom_bond_atom_site_label_1
_geom_bond_atom_site_label_2
_ccdc_geom_bond_type
C55   H33   S    
C33   P6    S    
C62   N1    S    
C63   H53   S    
C58   H42   S    
C7    C70   A    
C48   H38   S    
C56   H15   S    
C51   C57   A    
C5    C6    A    
C69   H22   S    
O10   P6    S    
C24   C25   A    
C35   C36   A    
O15   P2    D    
H65   N5    S    
C17   C22   A    
C63   H55   S    
C40   N1    S    
C22   C24   A    
C22   H29   S    
O18   P3    S    
C64   H58   S    
H68   N6    S    
C67   O9    S    
C45   O3    S    
C41   C50   S    
C55   C57   A    
C46   H35   S    
C19   C31   A    
C28   H47   S    
Ba1   O5    S    
C36   P1    S    
C20   C36   A    
C44   C50   A    
C1    H81   S    
O21   P8    S    
C54   C55   A    
C66   H71   S    
O1    P1    D    
Ba1   Ba2   S    
Ba2   O20   S    
O24   P5    S    
C67   C69   S    
C7    C11   A    
C18   C70   A    
C12   O14   S    
O12   P2    S    
C13   P8    S    
C9    C13   A    
C69   H20   S    
C14   C15   A    
C44   H36   S    
C66   H70   S    
C4    H32   S    
H72   N7    S    
C66   N6    S    
C60   H78   S    
C16   H46   S    
H61   N4    S    
C37   C43   A    
C4    O18   S    
C4    H21   S    
C51   C53   A    
C21   H28   S    
C39   H37   S    
C19   C20   A    
C27   C29   A    
C39   C41   A    
O19   P4    D    
C68   H77   S    
Ba1   O15   S    
O9    P8    S    
C12   H4    S    
C59   N2    S    
C62   H49   S    
C31   C32   A    
C64   H60   S    
Ba1   P1    S    
C4    C16   S    
H74   N8    S    
C44   C46   A    
C52   H34   S    
O4    P1    S    
C45   H14   S    
C32   N7    S    
C26   C30   A    
C65   H62   S    
C40   H12   S    
C34   H8    S    
C37   C38   A    
C3    C5    A    
C2    C21   A    
C6    C7    A    
O7    P7    S    
C18   C26   A    
C48   C49   A    
C30   C32   A    
Ba1   O10   S    
C23   H6    S    
Ba2   O19   S    
C29   H31   S    
C52   O13   S    
C65   H63   S    
C41   C42   A    
Ba2   O24   S    
C60   C61   S    
Ba1   O16   S    
H66   N5    S    
Ba2   O6    S    
C29   C30   A    
O17   P3    D    
C34   H9    S    
C9    C10   A    
H79   N9    S    
C1    H10   S    
H48   N1    S    
C16   H11   S    
C66   H69   S    
C65   N4    S    
C10   C11   A    
C1    C12   S    
C51   H40   S    
C43   P3    S    
C46   C47   A    
C52   C59   S    
C40   H23   S    
C12   H1    S    
C37   H44   S    
O6    P7    D    
O22   P4    S    
C52   H45   S    
C68   H76   S    
C61   N4    S    
C67   H18   S    
C1    H5    S    
C68   N8    S    
C45   H13   S    
C2    C70   A    
C3    H24   S    
C42   C43   A    
C35   N8    S    
C64   H59   S    
Ba1   P2    S    
C23   O7    S    
H73   N7    S    
Ba2   O4    S    
C38   C39   A    
C49   H39   S    
C5    H25   S    
O2    P5    D    
C33   C35   A    
C28   O22   S    
C59   H67   S    
Ba2   P4    S    
O23   P7    S    
C2    C3    A    
C34   H7    S    
C56   H16   S    
C16   H43   S    
C42   H41   S    
H57   N3    S    
Ba1   O20   S    
C38   P2    S    
C61   H2    S    
Ba1   O23   S    
C15   P4    S    
C62   H51   S    
C69   N6    S    
O11   P6    D    
C47   C57   S    
C63   H54   S    
O8    P8    D    
C65   H64   S    
Ba2   O23   S    
C49   C50   A    
C63   N2    S    
C67   H19   S    
C45   C56   S    
C64   N3    S    
C31   C33   A    
C14   H26   S    
C61   H3    S    
Ba1   O4    S    
C62   H50   S    
O5    P2    S    
C10   C17   A    
C15   C17   A    
C60   N3    S    
C27   H30   S    
O16   P3    S    
C59   H56   S    
C28   C40   S    
Ba2   O21   S    
C8    H27   S    
C56   H17   S    
O14   P6    S    
C8    C9    A    
C23   C34   S    
O13   P1    S    
C54   P7    S    
C54   C58   A    
C18   C19   A    
Ba1   O1    S    
C24   C27   A    
C6    C8    A    
C47   C48   A    
H52   N2    S    
C23   N5    S    
C28   N9    S    
C20   C21   A    
C11   C25   A    
C68   H75   S    
O20   P4    S    
O3    P5    S    
C53   C58   A    
Ba2   O5    S    
H80   N9    S    
C13   C14   A    
C53   P5    S    
C25   C26   A    
C60   O12   S    
