data_mof_unit_35261.cif
_audit_creation_date              2012-12-11T15:24:41-0500
_audit_creation_method            fapswitch 2.2
_symmetry_space_group_name_H-M    P1
_symmetry_Int_Tables_number       1
_space_group_crystal_system       triclinic
_cell_length_a                    23.002183
_cell_length_b                    6.955244
_cell_length_c                    20.710935
_cell_angle_alpha                 89.986143
_cell_angle_beta                  93.271425
_cell_angle_gamma                 89.9759
_cell_volume                      3308.05539458

loop_
_atom_site_label
_atom_site_type_symbol
_atom_type_description
_atom_site_fract_x
_atom_site_fract_y
_atom_site_fract_z
_atom_type_partial_charge
O1    O     O_R   0.188030 0.379840 0.189340 -0.539623
O2    O     O_R   0.811970 0.620160 0.810660 -0.539622
O3    O     O_R   0.311970 0.879840 0.310660 -0.540370
O4    O     O_R   0.688030 0.120160 0.689340 -0.540371
O5    O     O_R   0.307090 0.708420 0.185790 -0.537922
O6    O     O_R   0.692910 0.291580 0.814210 -0.537931
O7    O     O_R   0.192910 0.208420 0.314210 -0.537371
O8    O     O_R   0.807090 0.791580 0.685790 -0.537370
C1    C     C_R   0.326696 0.540722 0.170699 0.728293
C2    C     C_R   0.673304 0.459278 0.829301 0.728292
C3    C     C_R   0.173304 0.040744 0.329302 0.730736
C4    C     C_R   0.826696 0.959256 0.670698 0.730741
O9    O     O_R   0.188180 0.709480 0.181650 -0.543318
O10   O     O_R   0.811820 0.290520 0.818350 -0.543317
O11   O     O_R   0.311820 0.209480 0.318350 -0.543554
O12   O     O_R   0.688180 0.790520 0.681650 -0.543554
O13   O     O_R   0.192210 0.880960 0.306500 -0.534905
O14   O     O_R   0.807790 0.119040 0.693500 -0.534903
O15   O     O_R   0.307790 0.380960 0.193500 -0.534968
O16   O     O_R   0.692210 0.619040 0.806500 -0.534966
C5    C     C_R   0.167737 0.540624 0.165350 0.709936
C6    C     C_R   0.832263 0.459376 0.834650 0.709941
C7    C     C_R   0.332412 0.040516 0.334474 0.710342
C8    C     C_R   0.667588 0.959484 0.665526 0.710334
O17   O     O_3   0.251460 0.546730 0.290970 -0.369416
O18   O     O_3   0.748540 0.453270 0.709030 -0.369414
O19   O     O_3   0.248540 0.046730 0.209030 -0.370101
O20   O     O_3   0.751460 0.953270 0.790970 -0.370102
V1    V     V_3+5 0.249730 0.821120 0.242400 1.415090
V2    V     V_3+5 0.750270 0.178880 0.757600 1.415066
V3    V     V_3+5 0.250270 0.321120 0.257600 1.415860
V4    V     V_3+5 0.749730 0.678880 0.742400 1.415851
C9    C     C_R   0.582008 0.134647 0.612921 -0.210492
C10   C     C_R   0.417992 0.865352 0.387079 -0.210482
C11   C     C_R   0.921353 0.316906 0.892102 -0.216864
C12   C     C_R   0.078647 0.683094 0.107898 -0.216865
C13   C     C_R   0.618080 0.970698 0.616304 -0.084094
C14   C     C_R   0.381920 0.029302 0.383696 -0.084094
C15   C     C_R   0.881413 0.469815 0.884303 -0.082344
C16   C     C_R   0.118587 0.530185 0.115697 -0.082342
C17   C     C_R   0.606390 0.818379 0.572698 -0.222625
C18   C     C_R   0.393609 0.181621 0.427302 -0.222624
C19   C     C_R   0.889244 0.634534 0.923403 -0.217283
C20   C     C_R   0.110756 0.365466 0.076596 -0.217278
C21   C     C_R   0.559843 0.829946 0.525828 0.090576
C22   C     C_R   0.440157 0.170054 0.474172 0.090575
C23   C     C_R   0.935882 0.646470 0.970112 0.089527
C24   C     C_R   0.064118 0.353530 0.029888 0.089525
C25   C     C_R   0.523644 0.994103 0.523281 0.054179
C26   C     C_R   0.476356 0.005897 0.476719 0.054178
C27   C     C_R   0.976207 0.493828 0.976891 0.054281
C28   C     C_R   0.023793 0.506172 0.023109 0.054280
C29   C     C_R   0.534652 0.146518 0.567209 0.087618
C30   C     C_R   0.465348 0.853482 0.432791 0.087618
C31   C     C_R   0.969077 0.328989 0.937474 0.090200
C32   C     C_R   0.030923 0.671011 0.062526 0.090203
C33   C     C_R   0.548868 0.680391 0.481311 -0.181398
C34   C     C_R   0.451132 0.319608 0.518689 -0.181391
C35   C     C_R   0.942952 0.808444 0.010215 -0.189834
C36   C     C_R   0.057048 0.191556 0.989785 -0.189827
C37   C     C_R   0.502021 0.691941 0.435267 -0.185925
C38   C     C_R   0.497979 0.308058 0.564733 -0.185922
C39   C     C_R   0.989966 0.820432 0.056058 -0.179382
C40   C     C_R   0.010034 0.179568 0.943942 -0.179377
H1    H     H_    0.590281 0.252306 0.646527 0.127206
H2    H     H_    0.409719 0.747694 0.353473 0.127211
H3    H     H_    0.915961 0.190065 0.861927 0.125480
H4    H     H_    0.084039 0.809935 0.138073 0.125478
H5    H     H_    0.494273 0.573744 0.401798 0.135786
H6    H     H_    0.505727 0.426256 0.598202 0.135785
H7    H     H_    0.994502 0.947477 0.086195 0.138223
H8    H     H_    0.005498 0.052522 0.913805 0.138226
C41   C     C_3   0.048882 0.069167 0.531434 -0.172074
C42   C     C_3   0.951118 0.930832 0.468566 -0.172080
C43   C     C_3   0.451216 0.570415 0.968656 -0.172558
C44   C     C_3   0.548781 0.429580 0.031342 -0.172739
C45   C     C_3   0.015459 0.885252 0.548022 0.257487
C46   C     C_3   0.984542 0.114748 0.451978 0.257487
C47   C     C_3   0.484425 0.386257 0.951772 0.257561
C48   C     C_3   0.515573 0.613738 0.048227 0.257542
H9    H     H_    0.089084 0.122010 0.557850 0.127286
H10   H     H_    0.910916 0.877990 0.442150 0.127281
H11   H     H_    0.411095 0.624317 0.942306 0.127137
H12   H     H_    0.588902 0.375686 0.057690 0.127114
H13   H     H_    0.019739 0.675204 0.458882 0.119552
H14   H     H_    0.980261 0.324796 0.541118 0.119553
H15   H     H_    0.479846 0.174845 0.040549 0.119548
H16   H     H_    0.520150 0.825161 0.959450 0.119592
C49   C     C_1   0.872004 0.969071 0.624844 -0.187741
C50   C     C_1   0.127995 0.030929 0.375155 -0.187740
C51   C     C_1   0.628001 0.469125 0.875162 -0.187908
C52   C     C_1   0.371997 0.530876 0.124838 -0.187881
C53   C     C_3   0.989485 0.177916 0.523422 -0.230144
C54   C     C_3   0.010515 0.822084 0.476577 -0.230144
C55   C     C_3   0.510744 0.678129 0.976891 -0.230247
C56   C     C_3   0.489254 0.321873 0.023109 -0.230225
C57   C     C_3   0.957081 0.991092 0.540712 0.116321
C58   C     C_3   0.042919 0.008908 0.459288 0.116322
C59   C     C_3   0.542929 0.491089 0.959300 0.116705
C60   C     C_3   0.457069 0.508912 0.040699 0.116805
C61   C     C_1   0.910219 0.978590 0.586823 -0.022014
C62   C     C_1   0.089781 0.021410 0.413177 -0.022010
C63   C     C_1   0.589791 0.478625 0.913188 -0.022160
C64   C     C_1   0.410208 0.521376 0.086812 -0.021980
H17   H     H_    0.633964 0.691815 0.574656 0.128411
H18   H     H_    0.366036 0.308185 0.425344 0.128411
H19   H     H_    0.858601 0.752736 0.917996 0.127629
H20   H     H_    0.141399 0.247264 0.082004 0.127630
H21   H     H_    0.576319 0.553647 0.482353 0.136107
H22   H     H_    0.423681 0.446353 0.517647 0.136109
H23   H     H_    0.912290 0.926701 0.005855 0.134551
H24   H     H_    0.087710 0.073299 0.994145 0.134555
N1    N     N_3   0.032445 0.758715 0.601839 -0.658121
H25   H     H_    0.072841 0.699458 0.592397 0.224506
H26   H     H_    0.002666 0.645221 0.601104 0.221269
N2    N     N_3   0.967555 0.241283 0.398160 -0.658127
H27   H     H_    0.927157 0.300527 0.407600 0.224503
H28   H     H_    0.997331 0.354787 0.398899 0.221268
N3    N     N_3   0.467326 0.260807 0.897733 -0.658474
H29   H     H_    0.426732 0.202674 0.906910 0.224535
H30   H     H_    0.496813 0.146395 0.898482 0.221225
N4    N     N_3   0.532674 0.739146 0.102275 -0.658481
H31   H     H_    0.573389 0.796600 0.093240 0.224552
H32   H     H_    0.503344 0.854009 0.101370 0.221200

loop_
_geom_bond_atom_site_label_1
_geom_bond_atom_site_label_2
_ccdc_geom_bond_type
C34   C38   A    
C59   C63   S    
O1    C5    A    
O19   V1    S    
O13   V1    S    
C42   C54   S    
O3    C7    A    
C41   C53   S    
O15   V3    S    
C10   H2    S    
C43   C55   S    
C48   N4    S    
C44   C59   S    
O7    C3    A    
C21   C33   A    
O5    C1    A    
C26   C30   A    
C17   H17   S    
C36   H24   S    
C47   C59   S    
O10   V2    S    
C14   C18   A    
O4    C8    A    
C55   C59   S    
C54   C58   S    
C46   C53   S    
C37   H5    S    
C45   C54   S    
O1    V3    S    
N2    H27   S    
C38   H6    S    
O2    V4    S    
C18   C22   A    
O3    V1    S    
C50   C62   T    
C12   C16   A    
C1    O15   A    
C60   C64   S    
C33   H21   S    
C2    O16   A    
C47   N3    S    
C46   C58   S    
C35   H23   S    
C45   C57   S    
O14   V2    S    
C21   C25   A    
C16   C20   A    
N3    H30   S    
H16   C55   S    
O12   C8    A    
C10   C14   A    
C31   C40   A    
O17   V1    S    
C44   H12   S    
C42   H10   S    
C45   N1    S    
C1    C52   S    
C41   H9    S    
C24   C36   A    
C42   C57   S    
O5    V1    S    
C20   H20   S    
C9    C29   A    
C41   C58   S    
C48   C60   S    
O7    V3    S    
C9    H1    S    
C27   C28   A    
O8    V4    S    
C4    C49   S    
O20   V4    S    
O18   V4    S    
C15   C19   A    
C58   C62   S    
O19   V3    S    
C11   C31   A    
C9    C13   A    
C11   C15   A    
O2    C6    A    
C12   C32   A    
H14   C53   S    
H13   C54   S    
C11   H3    S    
O8    C4    A    
C57   C61   S    
H15   C56   S    
C8    C13   S    
C32   C39   A    
O9    C5    A    
C19   H19   S    
C48   C55   S    
C33   C37   A    
C18   H18   S    
O6    V2    S    
C39   H7    S    
C2    C51   S    
C10   C30   A    
N4    H32   S    
C53   C57   S    
N1    H25   S    
O16   V4    S    
O9    V1    S    
C3    O13   A    
C17   C21   A    
C49   C61   T    
C34   H22   S    
O17   V3    S    
C46   N2    S    
C44   C48   S    
C51   C63   T    
O6    C2    A    
C23   C27   A    
N3    H29   S    
C12   H4    S    
O11   V3    S    
C30   C37   A    
O12   V4    S    
C7    C14   S    
C22   C26   A    
C35   C39   A    
C36   C40   A    
O10   C6    A    
O20   V2    S    
C47   C56   S    
C44   C56   S    
C3    C50   S    
C43   H11   S    
C5    C16   S    
C43   C47   S    
C25   C29   A    
C6    C15   S    
C56   C60   S    
O11   C7    A    
C43   C60   S    
N2    H28   S    
C27   C31   A    
C40   H8    S    
C13   C17   A    
O4    V2    S    
C52   C64   T    
C23   C35   A    
C28   C32   A    
C24   C28   A    
C29   C38   A    
C25   C26   A    
C42   C46   S    
C4    O14   A    
C41   C45   S    
N4    H31   S    
C19   C23   A    
C22   C34   A    
C20   C24   A    
N1    H26   S    
O18   V2    S    
