data_mof_unit_24034.cif
_audit_creation_date              2012-12-11T17:37:43-0500
_audit_creation_method            fapswitch 2.2
_symmetry_space_group_name_H-M    P1
_symmetry_Int_Tables_number       1
_space_group_crystal_system       triclinic
_cell_length_a                    12.939385
_cell_length_b                    12.999167
_cell_length_c                    15.324373
_cell_angle_alpha                 116.278828
_cell_angle_beta                  64.095297
_cell_angle_gamma                 96.979201
_cell_volume                      2070.68233804

loop_
_atom_site_label
_atom_site_type_symbol
_atom_type_description
_atom_site_fract_x
_atom_site_fract_y
_atom_site_fract_z
_atom_type_partial_charge
C1    C     C_R   0.000281 0.832814 0.053376 -0.071802
C2    C     C_R   0.673799 0.535910 0.322020 0.097552
C3    C     C_R   0.661778 0.460224 0.926530 0.159845
C4    C     C_R   0.075926 0.790837 0.300561 0.044981
C5    C     C_R   0.337842 0.513771 0.949120 -0.067556
C6    C     C_R   0.965953 0.179273 0.781806 -0.107358
C7    C     C_R   0.198998 0.507765 0.694934 -0.214829
C8    C     C_R   0.054276 0.254468 0.086159 -0.128751
C9    C     C_R   0.953447 0.170926 0.992066 -0.135777
C10   C     C_R   0.295705 0.599086 0.793209 0.515097
C11   C     C_R   0.259210 0.416274 0.048238 -0.160285
C12   C     C_R   0.679251 0.466872 0.220308 -0.165825
C13   C     C_R   0.048726 0.279337 0.684667 -0.120093
C14   C     C_R   0.361510 0.433141 0.974527 0.125536
C15   C     C_R   0.031306 0.170624 0.679647 0.053377
C16   C     C_R   0.292472 0.568949 0.697062 0.009067
C17   C     C_R   0.011858 0.150488 0.041155 0.052139
C18   C     C_R   0.417916 0.685060 0.222700 -0.122473
C19   C     C_R   0.307741 0.741482 0.295786 -0.128225
C20   C     C_R   0.288451 0.861230 0.334710 0.130217
C21   C     C_R   0.381962 0.923365 0.300250 -0.162858
C22   C     C_R   0.492075 0.866562 0.227214 -0.095055
C23   C     C_R   0.754886 0.520290 0.893496 -0.166522
C24   C     C_R   0.509996 0.747530 0.188358 -0.069218
C25   C     C_R   0.156505 0.018366 0.508469 -0.244856
C26   C     C_R   0.045214 0.070214 0.584441 0.049624
C27   C     C_R   0.947340 0.028153 0.567376 0.007645
C28   C     C_R   0.962556 0.935471 0.472373 -0.174917
C29   C     C_R   0.072598 0.883528 0.396236 0.079300
C30   C     C_R   0.171597 0.921693 0.412993 0.020930
C31   C     C_R   0.761767 0.031329 0.715758 -0.187486
C32   C     C_R   0.643162 0.060700 0.775893 -0.109327
C33   C     C_R   0.588727 0.135997 0.763392 -0.190187
C34   C     C_R   0.016083 0.697381 0.301582 -0.164455
C35   C     C_R   0.653232 0.185183 0.693388 -0.123467
C36   C     C_R   0.772751 0.158750 0.634024 0.532623
C37   C     C_R   0.827629 0.079094 0.644161 -0.046233
C38   C     C_R   0.865143 0.310968 0.355171 -0.092618
C39   C     C_R   0.760591 0.353545 0.371726 -0.144677
C40   C     C_R   0.701451 0.455183 0.463452 0.100322
C41   C     C_R   0.747596 0.512634 0.538830 -0.121506
C42   C     C_R   0.851887 0.469574 0.522014 -0.070844
C43   C     C_R   0.910846 0.368995 0.430010 -0.060155
C44   C     C_R   0.490985 0.505051 0.573382 0.490107
C45   C     C_R   0.676141 0.422269 0.991091 -0.138404
C46   C     C_R   0.389807 0.567262 0.604421 -0.006590
C47   C     C_R   0.381033 0.618732 0.544341 -0.011018
C48   C     C_R   0.475235 0.604082 0.448909 -0.255675
C49   C     C_R   0.578272 0.547571 0.420042 0.023851
C50   C     C_R   0.589138 0.501321 0.483959 -0.153981
C51   C     C_R   0.207395 0.653274 0.525623 -0.383176
C52   C     C_R   0.105131 0.719534 0.563983 0.586489
C53   C     C_R   0.074396 0.824081 0.657078 -0.121619
C54   C     C_R   0.143030 0.861402 0.713000 -0.230686
C55   C     C_R   0.243091 0.794462 0.676133 -0.118175
C56   C     C_R   0.097155 0.798686 0.207948 -0.115280
C57   C     C_R   0.276037 0.690217 0.581996 0.144398
C58   C     C_2   0.475000 0.394129 0.948521 -0.233601
C59   C     C_2   0.567017 0.438792 0.897307 -0.178907
C60   C     C_2   0.832364 0.954863 0.087718 -0.236898
C61   C     C_2   0.818028 0.034144 0.185201 -0.154218
C62   C     C_R   0.783254 0.558384 0.313907 -0.109024
C63   C     C_R   0.901655 0.747596 0.954648 -0.165810
C64   C     C_R   0.913420 0.851896 0.030146 0.164334
H1    H     H_    0.027740 0.895064 0.112575 0.107376
H2    H     H_    0.930293 0.110320 0.803881 0.089614
H3    H     H_    0.167112 0.479474 0.634138 0.124572
H4    H     H_    0.092518 0.273264 0.141090 0.087558
H5    H     H_    0.898578 0.112546 0.959977 0.091707
H6    H     H_    0.249184 0.363388 0.088804 0.096009
H7    H     H_    0.089096 0.302747 0.618439 0.097664
H8    H     H_    0.595288 0.703828 0.131969 0.119315
H9    H     H_    0.432004 0.592949 0.193045 0.112143
H10   H     H_    0.237919 0.691843 0.322740 0.119757
H11   H     H_    0.609033 0.429453 0.199756 0.101089
H12   H     H_    0.369467 0.015559 0.329163 0.109454
H13   H     H_    0.563564 0.914885 0.200703 0.113934
H14   H     H_    0.230251 0.051960 0.524911 0.141013
H15   H     H_    0.887630 0.903862 0.456932 0.140184
H16   H     H_    0.801928 0.968302 0.722328 0.134295
H17   H     H_    0.592921 0.022632 0.830100 0.140890
H18   H     H_    0.496222 0.156083 0.807878 0.146673
H19   H     H_    0.609902 0.243737 0.684572 0.148941
H20   H     H_    0.991693 0.335725 0.416933 0.093313
H21   H     H_    0.777093 0.548833 0.831498 0.109153
H22   H     H_    0.910977 0.232920 0.284472 0.118301
H23   H     H_    0.726045 0.308563 0.313131 0.111340
H24   H     H_    0.702695 0.590799 0.610453 0.146340
H25   H     H_    0.886949 0.514138 0.580324 0.124468
H26   H     H_    0.470154 0.640704 0.399384 0.153499
H27   H     H_    0.232298 0.572292 0.453527 0.120132
H28   H     H_    0.996500 0.876030 0.686692 0.119687
H29   H     H_    0.118225 0.941953 0.785378 0.149677
H30   H     H_    0.990362 0.663594 0.360117 0.151970
H31   H     H_    0.295125 0.823876 0.720677 0.157110
H32   H     H_    0.478496 0.348642 0.991829 0.131142
H33   H     H_    0.565147 0.479847 0.849961 0.150317
H34   H     H_    0.777182 0.962298 0.053621 0.123404
H35   H     H_    0.753970 0.106678 0.228395 0.123729
H36   H     H_    0.630067 0.359467 0.018523 0.090125
H37   H     H_    0.148373 0.859328 0.179863 0.115215
H38   H     H_    0.808794 0.605510 0.378557 0.115507
H39   H     H_    0.838253 0.730938 0.923025 0.109601
H40   H     H_    0.396847 0.549288 0.896572 0.164825
N1    N     N_R   0.037320 0.720000 0.995830 -0.049203
N2    N     N_R   0.946240 0.290870 0.848020 -0.040911
N3    N     N_R   0.146160 0.501170 0.788610 -0.061698
N4    N     N_R   0.025750 0.332680 0.063570 -0.037810
N5    N     N_R   0.962680 0.280000 0.004170 -0.039986
N6    N     N_R   0.209230 0.553860 0.848010 -0.090717
N7    N     N_R   0.175100 0.482030 0.063570 -0.043861
N8    N     N_R   0.996810 0.351820 0.788610 -0.036351
N9    N     N_R   0.790770 0.446140 0.151990 -0.041942
N10   N     N_R   0.824900 0.517970 0.936430 -0.043837
N11   N     N_R   0.003190 0.648180 0.211390 -0.045536
N12   N     N_R   0.774330 0.457010 0.995830 -0.044348
N13   N     N_R   0.053760 0.709130 0.151980 -0.041442
N14   N     N_R   0.853840 0.498830 0.211390 -0.045430
N15   N     N_R   0.974250 0.667320 0.936430 -0.045979
N16   N     N_R   0.225670 0.542990 0.004170 -0.044452
Ni1   Ni    Ni4+2 0.130310 0.630310 0.000000 0.265226
Ni2   Ni    Ni4+2 0.869690 0.369690 0.000000 0.207861
Ni3   Ni    Ni4+2 0.985660 0.509480 0.863750 0.214408
Ni4   Ni    Ni4+2 0.014340 0.490520 0.136250 0.209261
Cl1   Cl    Cl    0.367768 0.714143 0.850528 -0.739237
O1    O     O_3   0.830838 0.209344 0.565320 -0.776373
H41   H     H_    0.914910 0.190853 0.534524 0.308567
O2    O     O_3   0.489983 0.448459 0.632190 -0.776914
H42   H     H_    0.553118 0.385779 0.587784 0.324203
O3    O     O_3   0.033017 0.683687 0.513417 -0.802867
H43   H     H_    0.064743 0.606936 0.451634 0.291309

loop_
_geom_bond_atom_site_label_1
_geom_bond_atom_site_label_2
_ccdc_geom_bond_type
O1    H41   S    
C41   C42   A    
C3    C23   A    
C19   C20   A    
N3    Ni3   S    
C2    C12   A    
O2    H42   S    
C11   H6    S    
C31   H16   S    
C20   C30   S    
C53   C54   A    
N16   Ni1   S    
C32   H17   S    
C21   H12   S    
C28   C29   A    
C26   C27   A    
N12   Ni2   S    
C38   H22   S    
C18   C24   A    
C36   C37   A    
C34   N11   A    
C9    H5    S    
C56   H37   S    
C13   N8    A    
C60   H34   S    
N6    Ni1   S    
C38   C39   A    
C11   C14   A    
C40   C50   S    
N5    Ni2   S    
C44   C50   A    
N4    N5    A    
C31   C32   A    
C18   C19   A    
C56   N13   A    
C28   H15   S    
N13   Ni1   S    
C54   H29   S    
C58   H32   S    
C51   H27   S    
C6    C15   A    
C54   C55   A    
N9    Ni2   S    
C35   C36   A    
N11   N13   A    
C1    H1    S    
C51   C57   A    
C39   H23   S    
C10   Cl1   S    
C33   H18   S    
C4    C29   S    
C5    H40   S    
C48   H26   S    
C21   C22   A    
C4    C56   A    
C43   H20   S    
C61   H35   S    
N4    Ni4   S    
C8    N4    A    
C44   C46   A    
C9    N5    A    
C14   C58   S    
C4    C34   A    
C5    N16   A    
C11   N7    A    
C51   C52   A    
N8    Ni3   S    
C55   H31   S    
C16   C46   S    
C39   C40   A    
C35   H19   S    
C15   C26   S    
N2    N8    A    
C13   H7    S    
C25   C26   A    
C25   H14   S    
C3    C45   A    
C31   C37   A    
N7    N16   A    
C29   C30   A    
C2    C49   S    
C47   C57   S    
C63   N15   A    
C47   C48   A    
N2    Ni2   S    
C53   H28   S    
C6    N2    A    
N1    Ni1   S    
N14   Ni4   S    
C5    C14   A    
N10   Ni3   S    
C63   H39   S    
C40   C41   A    
C8    H4    S    
C18   H9    S    
C13   C15   A    
C7    C16   A    
C59   H33   S    
N3    N6    A    
C22   C24   A    
N1    N15   A    
C42   C43   A    
C1    C64   A    
C52   C53   A    
C24   H8    S    
C12   N9    A    
C9    C17   A    
C25   C30   A    
C41   H24   S    
C46   C47   A    
C44   O2    S    
N11   Ni4   S    
N7    Ni4   S    
C19   H10   S    
C36   O1    S    
C34   H30   S    
C22   H13   S    
C63   C64   A    
C45   H36   S    
N10   N12   A    
N15   Ni3   S    
C8    C17   A    
C60   C64   S    
C42   H25   S    
C52   O3    S    
C32   C33   A    
C55   C57   A    
O3    H43   S    
C58   C59   D    
C38   C43   A    
C10   C16   A    
C23   N10   A    
C45   N12   A    
C27   C37   S    
C48   C49   A    
C33   C35   A    
C10   N6    A    
C7    N3    A    
C62   N14   A    
C7    H3    S    
N9    N14   A    
C6    H2    S    
C20   C21   A    
C49   C50   A    
C23   H21   S    
C12   H11   S    
C27   C28   A    
C60   C61   D    
C2    C62   A    
C1    N1    A    
C62   H38   S    
C3    C59   S    
