data_mof_unit_7349.cif
_audit_creation_date              2012-12-10T17:14:08-0500
_audit_creation_method            fapswitch 2.2
_symmetry_space_group_name_H-M    P1
_symmetry_Int_Tables_number       1
_space_group_crystal_system       triclinic
_cell_length_a                    15.965765
_cell_length_b                    12.997318
_cell_length_c                    11.799994
_cell_angle_alpha                 99.870269
_cell_angle_beta                  93.635676
_cell_angle_gamma                 92.935913
_cell_volume                      2402.73777203

loop_
_atom_site_label
_atom_site_type_symbol
_atom_type_description
_atom_site_fract_x
_atom_site_fract_y
_atom_site_fract_z
_atom_type_partial_charge
C1    C     C_R   0.508511 0.300471 0.478671 0.825113
C2    C     C_3   0.948865 0.432730 0.578158 -0.282610
C3    C     C_3   0.915060 0.505179 0.494273 -0.065044
C4    C     C_3   0.953798 0.619113 0.542902 -0.073522
C5    C     C_3   0.053015 0.627516 0.533301 -0.042516
C6    C     C_1   0.823043 0.504813 0.496429 0.056013
C7    C     C_1   0.175323 0.507260 0.501383 0.145657
C8    C     C_1   0.250729 0.504201 0.501363 0.041391
C9    C     C_R   0.494663 0.814999 0.534524 -0.114892
C10   C     C_R   0.524555 0.187991 0.466620 -0.198067
C11   C     C_R   0.532589 0.015621 0.348192 -0.074009
C12   C     C_R   0.340293 0.500753 0.500398 0.837958
C13   C     C_R   0.536616 0.125811 0.358457 -0.213433
C14   C     C_R   0.526330 0.141171 0.565427 0.171424
C15   C     C_R   0.507541 0.033291 0.553941 0.023585
C16   C     C_R   0.515838 0.969592 0.445827 0.061741
C17   C     C_R   0.512921 0.861202 0.439657 -0.182626
C18   C     C_R   0.473656 0.877812 0.637899 -0.080497
C19   C     C_R   0.481102 0.987730 0.647901 -0.093824
C20   C     C_R   0.406948 0.413326 0.026609 -0.171307
C21   C     C_R   0.421071 0.416762 0.146571 0.139716
C22   C     C_R   0.538449 0.537108 0.155915 0.095377
C23   C     C_R   0.498228 0.700755 0.521670 0.837507
C24   C     C_R   0.530530 0.532609 0.033900 -0.012804
C25   C     C_R   0.464164 0.469267 0.966809 -0.064812
C26   C     C_R   0.459413 0.462441 0.843279 0.114394
C27   C     C_R   0.578855 0.582444 0.856318 0.110682
C28   C     C_R   0.588376 0.588791 0.977917 -0.161323
C29   C     C_R   0.659279 0.501045 0.499725 0.794410
C30   C     C_3   0.048741 0.443051 0.594088 -0.006052
C31   C     C_3   0.041205 0.459823 0.371317 0.012711
C32   C     C_3   0.943306 0.474576 0.368761 -0.233537
C33   C     C_1   0.748115 0.503195 0.498610 -0.029123
C34   C     C_3   0.082541 0.509306 0.499872 -0.104861
Cu1   Cu    Cu3+1 0.506190 0.507730 0.615930 1.034732
Cu2   Cu    Cu3+1 0.493810 0.492270 0.384070 1.020828
H1    H     H_    0.923316 0.465614 0.661075 0.192691
H2    H     H_    0.527508 0.811419 0.361152 0.189804
H3    H     H_    0.588279 0.584711 0.209266 0.153830
H4    H     H_    0.931106 0.545280 0.330645 0.188889
H5    H     H_    0.939799 0.633763 0.635072 0.205355
N1    N     N_R   0.515490 0.519350 0.790130 -0.267568
N2    N     N_R   0.484510 0.480650 0.209890 -0.231352
O1    O     O_R   0.504390 0.354460 0.582000 -0.552577
O2    O     O_R   0.493940 0.341410 0.386200 -0.570895
O3    O     O_R   0.384660 0.506540 0.597940 -0.552709
O4    O     O_R   0.374210 0.493480 0.402140 -0.569179
O5    O     O_R   0.506060 0.658590 0.613800 -0.562337
O6    O     O_R   0.495610 0.645540 0.418000 -0.588792
O7    O     O_R   0.625790 0.506520 0.597860 -0.568549
O8    O     O_R   0.615340 0.493460 0.402060 -0.579277
C35   C     C_2   0.908320 0.321541 0.554900 0.975593
O9    O     O_2   0.858537 0.295567 0.621153 -0.546234
O10   O     O_R   0.927175 0.248426 0.460462 -0.680993
H6    H     H_    0.895722 0.177938 0.456233 0.365949
C36   C     C_2   0.079804 0.495269 0.718036 0.834810
O11   O     O_2   0.031221 0.518067 0.793255 -0.537537
O12   O     O_R   0.166102 0.514989 0.747093 -0.705404
H7    H     H_    0.179375 0.549866 0.830417 0.381227
I1    I     I_    0.883167 0.742216 0.484128 -0.214270
C37   C     C_2   0.438028 0.829354 0.731553 0.920786
O13   O     O_2   0.465914 0.857009 0.831679 -0.510875
O14   O     O_R   0.372892 0.751236 0.704570 -0.729766
H8    H     H_    0.356590 0.721291 0.774554 0.347615
C38   C     C_2   0.544188 0.949452 0.234981 0.917249
O15   O     O_2   0.609433 0.959704 0.187954 -0.521289
O16   O     O_R   0.479720 0.877096 0.181642 -0.709500
H9    H     H_    0.494479 0.837738 0.104386 0.380678
C39   C     C_2   0.445369 0.052975 0.746675 0.933545
O17   O     O_2   0.376893 0.088601 0.732478 -0.496161
O18   O     O_R   0.488449 0.070681 0.855821 -0.652818
H10   H     H_    0.457187 0.115755 0.915911 0.390958
C40   C     C_2   0.561308 0.175306 0.259136 1.015052
O19   O     O_2   0.524524 0.147633 0.163999 -0.473026
O20   O     O_R   0.627772 0.251799 0.272261 -0.681177
H11   H     H_    0.657513 0.264917 0.352330 0.301695
I2    I     I_    0.603090 0.217650 0.715752 -0.135641
C41   C     C_2   0.397256 0.388700 0.770335 0.910080
O21   O     O_2   0.414133 0.298335 0.738866 -0.541780
O22   O     O_R   0.316265 0.418903 0.747732 -0.711048
H12   H     H_    0.279193 0.359997 0.699298 0.359436
I3    I     I_    0.104716 0.293025 0.599643 -0.181935
C42   C     C_2   0.638386 0.647019 0.802805 0.926770
O23   O     O_2   0.708137 0.616742 0.783061 -0.535036
O24   O     O_R   0.618333 0.746957 0.786474 -0.725503
H13   H     H_    0.664882 0.784658 0.751957 0.344727
C43   C     C_2   0.328742 0.354687 0.970688 0.875937
O25   O     O_2   0.327715 0.259928 0.939299 -0.519910
O26   O     O_R   0.255206 0.407482 0.961480 -0.685576
H14   H     H_    0.205456 0.359208 0.924218 0.370815
C44   C     C_2   0.659878 0.653926 0.045822 0.843344
O27   O     O_2   0.732189 0.633565 0.027171 -0.496013
O28   O     O_R   0.644277 0.737744 0.131372 -0.755320
H15   H     H_    0.697911 0.774942 0.172610 0.370359
C45   C     C_2   0.365149 0.349173 0.201987 0.910866
O29   O     O_2   0.385866 0.262698 0.215238 -0.547530
O30   O     O_R   0.284130 0.378320 0.224053 -0.694444
H16   H     H_    0.251376 0.324212 0.258817 0.350537
C46   C     C_2   0.079346 0.507786 0.274258 0.914550
O31   O     O_2   0.155521 0.513167 0.267613 -0.526737
O32   O     O_R   0.028075 0.541639 0.188859 -0.687945
H17   H     H_    0.061450 0.569851 0.129298 0.379896
I4    I     I_    0.069761 0.298016 0.308513 -0.136664
C47   C     C_2   0.889476 0.390170 0.285450 0.968762
O33   O     O_2   0.832375 0.338802 0.317920 -0.560789
O34   O     O_R   0.903687 0.374705 0.168190 -0.671809
H18   H     H_    0.864002 0.317998 0.120299 0.369706
C48   C     C_2   0.097821 0.690401 0.644568 0.900332
O35   O     O_2   0.058064 0.734174 0.722253 -0.532157
O36   O     O_R   0.185613 0.703509 0.655628 -0.704500
H19   H     H_    0.207345 0.748479 0.731677 0.364753
I5    I     I_    0.092817 0.732602 0.417125 -0.122348

loop_
_geom_bond_atom_site_label_1
_geom_bond_atom_site_label_2
_ccdc_geom_bond_type
C43   O25   D    
O28   H15   S    
C40   O19   D    
C45   O29   D    
C2    H1    S    
C3    C6    S    
C47   O34   S    
O30   H16   S    
C7    C8    T    
O24   H13   S    
C36   O11   D    
C15   C19   A    
C26   C41   S    
C42   O23   D    
C41   O22   S    
C23   O6    A    
C4    H5    S    
C15   C16   A    
C20   C43   S    
C29   C33   S    
C48   O35   D    
Cu2   O4    S    
C37   O14   S    
C18   C19   A    
C14   I2    S    
C39   O18   S    
Cu1   N1    S    
O36   H19   S    
C21   N2    A    
C31   C32   S    
C36   O12   S    
C16   C17   A    
C38   O16   S    
C3    C32   S    
C32   C47   S    
C31   C46   S    
C40   O20   S    
C37   O13   D    
C12   O4    A    
Cu1   O5    S    
C47   O33   D    
C35   O10   S    
C29   O7    A    
C30   C34   S    
O16   H9    S    
O32   H17   S    
C24   C25   A    
C12   O3    A    
C10   C14   A    
C44   O27   D    
C41   O21   D    
C9    C23   S    
C21   C45   S    
O12   H7    S    
C30   C36   S    
Cu1   Cu2   S    
C31   I4    S    
C30   I3    S    
O20   H11   S    
C44   O28   S    
C11   C16   A    
C1    O1    A    
C46   O31   D    
C8    C12   S    
C5    C34   S    
C4    I1    S    
Cu1   O7    S    
C31   C34   S    
Cu2   O2    S    
O34   H18   S    
Cu1   O1    S    
Cu2   O8    S    
C2    C35   S    
C9    C17   A    
C46   O32   S    
C13   C40   S    
C43   O26   S    
C7    C34   S    
C22   C24   A    
C19   C39   S    
C3    C4    S    
C35   O9    D    
C26   N1    A    
C29   O8    A    
O10   H6    S    
C23   O5    A    
C42   O24   S    
C1    C10   S    
C24   C28   A    
O22   H12   S    
C10   C13   A    
C45   O30   S    
C18   C37   S    
C5    I5    S    
C6    C33   T    
C2    C30   S    
C27   C42   S    
C2    C3    S    
C25   C26   A    
O18   H10   S    
C11   C13   A    
C27   N1    A    
C1    O2    A    
C22   H3    S    
C48   O36   S    
C28   C44   S    
C17   H2    S    
C32   H4    S    
C39   O17   D    
O14   H8    S    
C9    C18   A    
C4    C5    S    
C20   C21   A    
C38   O15   D    
C20   C25   A    
C27   C28   A    
C14   C15   A    
Cu2   N2    S    
O26   H14   S    
Cu1   O3    S    
C22   N2    A    
Cu2   O6    S    
C11   C38   S    
C5    C48   S    
