data_mof_unit_29373.cif
_audit_creation_date              2012-10-26T18:32:00-0400
_audit_creation_method            fapswitch 2.2
_symmetry_space_group_name_H-M    P1
_symmetry_Int_Tables_number       1
_space_group_crystal_system       triclinic
_cell_length_a                    12.486113
_cell_length_b                    13.182816
_cell_length_c                    14.300392
_cell_angle_alpha                 94.971803
_cell_angle_beta                  107.511976
_cell_angle_gamma                 117.584857
_cell_volume                      1917.16930257

loop_
_atom_site_label
_atom_site_type_symbol
_atom_type_description
_atom_site_fract_x
_atom_site_fract_y
_atom_site_fract_z
_atom_type_partial_charge
C1    C     C_R   0.646114 0.713568 0.502804 0.544211
C2    C     C_R   0.172793 0.447300 0.002564 0.047245
C3    C     C_R   0.143721 0.490430 0.080005 0.028302
C4    C     C_R   0.617709 0.516514 0.687034 0.545520
C5    C     C_R   0.273667 0.422014 0.027418 -0.119102
C6    C     C_R   0.346280 0.438082 0.128434 -0.124022
C7    C     C_R   0.216152 0.502459 0.181320 -0.142376
C8    C     C_R   0.149747 0.951064 0.382971 0.250734
C9    C     C_R   0.251943 0.157949 0.472650 -0.043595
C10   C     C_R   0.697946 0.926942 0.529648 0.137041
C11   C     C_R   0.784916 0.045356 0.536229 -0.130553
C12   C     C_R   0.862499 0.519900 0.922423 -0.025930
C13   C     C_R   0.894027 0.075357 0.512958 -0.135409
C14   C     C_R   0.916144 0.987296 0.475954 0.021867
C15   C     C_R   0.816155 0.867198 0.450603 -0.022442
C16   C     C_R   0.346881 0.284367 0.488366 0.561326
C17   C     C_R   0.032508 0.014871 0.459862 -0.011628
C18   C     C_R   0.035067 0.925256 0.399485 0.003795
C19   C     C_R   0.923956 0.811119 0.358192 -0.143305
C20   C     C_R   0.816351 0.782161 0.383793 -0.141871
C21   C     C_R   0.148964 0.127417 0.506198 0.247645
C22   C     C_R   0.255139 0.068122 0.416429 -0.176069
C23   C     C_R   0.831307 0.560224 0.999929 0.009048
C24   C     C_R   0.718448 0.836387 0.491994 -0.006573
C25   C     C_R   0.242535 0.632968 0.691877 -0.119841
C26   C     C_R   0.652169 0.343528 0.356271 0.252309
C27   C     C_R   0.726828 0.307181 0.323825 -0.134265
C28   C     C_R   0.382264 0.483701 0.313238 0.529545
C29   C     C_R   0.859986 0.357310 0.378331 0.096903
C30   C     C_R   0.924034 0.450797 0.468090 -0.020752
C31   C     C_R   0.844390 0.487011 0.501393 0.137933
C32   C     C_R   0.063534 0.508364 0.528527 -0.008437
C33   C     C_R   0.110195 0.573137 0.629550 -0.032343
C34   C     C_R   0.966575 0.495511 0.948762 0.043832
C35   C     C_R   0.027932 0.590334 0.666290 -0.171512
C36   C     C_R   0.910030 0.571671 0.599000 0.154658
C37   C     C_R   0.160174 0.506853 0.494923 0.036163
C38   C     C_R   0.334103 0.634988 0.654084 0.298553
C39   C     C_R   0.685329 0.527643 0.795400 -0.060978
C40   C     C_R   0.315504 0.475178 0.206001 -0.008543
C41   C     C_R   0.726375 0.581098 0.975124 0.274077
C42   C     C_R   0.649794 0.559315 0.872846 0.271116
C43   C     C_R   0.789351 0.506710 0.821184 -0.224775
C44   C     C_3   0.215653 0.817778 0.398288 -0.139836
C45   C     C_R   0.041247 0.516593 0.053398 0.030387
C46   C     C_3   0.197484 0.167182 0.676203 -0.146007
C47   C     C_3   0.586608 0.984951 0.622633 -0.332102
C48   C     C_3   0.518678 0.789946 0.811409 -0.306603
C49   C     C_3   0.443772 0.158598 0.259774 -0.318842
C50   C     C_3   0.930017 0.302398 0.251487 -0.322629
C51   C     C_3   0.972070 0.777014 0.624106 -0.299666
C52   C     C_3   0.749474 0.738434 0.076131 -0.119947
C53   C     C_3   0.431624 0.463708 0.833077 -0.078866
C54   C     C_R   0.010397 0.562383 0.127891 -0.143018
C55   C     C_R   0.906017 0.580615 0.101531 -0.103565
C56   C     C_R   0.997646 0.449520 0.874180 -0.140755
C57   C     C_R   0.099755 0.427702 0.900901 -0.141898
Cu1   Cu    Cu3+1 0.416420 0.526630 0.522910 0.972088
Cu2   Cu    Cu3+1 0.583580 0.473370 0.477090 0.965477
H1    H     H_    0.885052 0.612387 0.162129 0.156351
H2    H     H_    0.273757 0.683036 0.768586 0.094002
H3    H     H_    0.135377 0.461481 0.419070 0.172876
H4    H     H_    0.679545 0.235299 0.255831 0.112051
H5    H     H_    0.424639 0.419717 0.145014 0.121984
H6    H     H_    0.120223 0.393151 0.841079 0.104037
H7    H     H_    0.812658 0.481577 0.760181 0.142714
H8    H     H_    0.064394 0.585395 0.208300 0.099338
H9    H     H_    0.944236 0.427182 0.793640 0.108817
H10   H     H_    0.152629 0.770792 0.439447 0.114885
H11   H     H_    0.314713 0.888464 0.453507 0.114519
H12   H     H_    0.294749 0.387642 0.968369 0.089381
H13   H     H_    0.228237 0.752333 0.355883 0.132713
H14   H     H_    0.201425 0.224310 0.740326 0.115679
H15   H     H_    0.294880 0.175092 0.696769 0.100436
H16   H     H_    0.121337 0.074465 0.667386 0.115848
H17   H     H_    0.497473 0.844082 0.492658 0.255978
H18   H     H_    0.502466 0.940512 0.645903 0.134813
H19   H     H_    0.576043 0.051387 0.584169 0.132406
H20   H     H_    0.678322 0.029359 0.692093 0.157407
H21   H     H_    0.529631 0.740017 0.675701 0.300413
H22   H     H_    0.488142 0.856200 0.799072 0.102391
H23   H     H_    0.339464 0.088332 0.398800 0.145280
H24   H     H_    0.627396 0.837822 0.845946 0.139636
H25   H     H_    0.482250 0.743102 0.865913 0.180827
H26   H     H_    0.499600 0.323585 0.236806 0.239041
H27   H     H_    0.337929 0.124650 0.239805 0.159374
H28   H     H_    0.478122 0.118748 0.318558 0.149147
H29   H     H_    0.455348 0.130513 0.189697 0.109391
H30   H     H_    0.886008 0.215059 0.359976 0.254743
H31   H     H_    0.997805 0.272697 0.244281 0.152617
H32   H     H_    0.968557 0.394041 0.243058 0.149154
H33   H     H_    0.832296 0.242340 0.189602 0.134696
H34   H     H_    0.921519 0.742378 0.308929 0.154691
H35   H     H_    0.873509 0.663628 0.695484 0.241794
H36   H     H_    0.935429 0.837454 0.635173 0.141116
H37   H     H_    0.986064 0.774898 0.551211 0.168290
H38   H     H_    0.068832 0.813925 0.687286 0.102330
H39   H     H_    0.712128 0.768865 0.010372 0.142529
H40   H     H_    0.858277 0.784194 0.105321 0.119539
H41   H     H_    0.723306 0.764870 0.137763 0.141138
H42   H     H_    0.445610 0.423335 0.897575 0.104547
H43   H     H_    0.405903 0.401670 0.761589 0.148291
H44   H     H_    0.348060 0.477062 0.824246 0.137622
H45   H     H_    0.956201 0.168004 0.519148 0.184300
H46   H     H_    0.770151 0.116234 0.560490 0.119997
H47   H     H_    0.732792 0.692953 0.349278 0.158347
H48   H     H_    0.195768 0.530918 0.242998 0.111988
H49   H     H_    0.067730 0.644680 0.743419 0.109581
N1    N     N_R   0.290690 0.566960 0.557640 -0.250812
N2    N     N_R   0.709100 0.433710 0.442970 -0.212562
N3    N     N_2   0.585489 0.896933 0.553719 -0.506775
N4    N     N_2   0.471504 0.705834 0.715468 -0.435647
N5    N     N_2   0.515967 0.287033 0.296280 -0.448413
N6    N     N_2   0.922202 0.299572 0.350330 -0.537305
N7    N     N_2   0.879815 0.658756 0.625158 -0.428973
O1    O     O_R   0.545970 0.684450 0.528810 -0.508440
O2    O     O_3   0.167192 0.206195 0.588278 -0.562594
O3    O     O_3   0.691443 0.613905 0.050535 -0.573235
O4    O     O_3   0.543554 0.574377 0.850625 -0.531474
O5    O     O_R   0.687130 0.639470 0.490120 -0.467434
O6    O     O_R   0.519670 0.535100 0.660030 -0.439004
O7    O     O_R   0.660830 0.490120 0.621340 -0.504275
O8    O     O_R   0.312870 0.360530 0.509880 -0.443192
O9    O     O_R   0.454030 0.315550 0.471190 -0.484185
O10   O     O_R   0.339170 0.509880 0.378660 -0.532286
O11   O     O_R   0.480330 0.464900 0.339970 -0.496984
O12   O     O_3   0.156591 0.863937 0.328415 -0.577175

loop_
_geom_bond_atom_site_label_1
_geom_bond_atom_site_label_2
_ccdc_geom_bond_type
C51   H38   S    
C49   N5    S    
C29   N6    S    
C44   O12   S    
C34   C56   A    
Cu2   O5    S    
C27   C29   A    
Cu1   N1    S    
C41   C42   A    
C49   H28   S    
C19   C20   A    
C14   C17   A    
C47   H20   S    
C37   H3    S    
C2    C57   A    
C48   H22   S    
Cu2   O11   S    
C12   C23   A    
C26   C27   A    
C22   H23   S    
C16   O8    A    
C12   C43   A    
C3    C7    A    
C43   H7    S    
C30   C31   A    
C42   O4    S    
C28   C40   S    
Cu2   N2    S    
C56   C57   A    
C18   C19   A    
C6    H5    S    
C21   O2    S    
C35   H49   S    
C54   C55   A    
C50   H31   S    
C35   C36   A    
C53   H42   S    
C11   H46   S    
C8    C22   A    
C7    C40   A    
C44   H11   S    
C1    O1    A    
C41   O3    S    
C26   N2    A    
C37   N1    A    
C19   H34   S    
C51   H37   S    
Cu2   O7    S    
C55   H1    S    
Cu1   O1    S    
C49   H29   S    
C46   H16   S    
C28   O11   A    
C39   C42   A    
C20   H47   S    
C15   C20   A    
C44   H10   S    
C57   H6    S    
C39   C43   A    
C54   H8    S    
C10   C24   A    
Cu1   Cu2   S    
C56   H9    S    
C52   H41   S    
C17   C21   A    
C48   H25   S    
C46   O2    S    
C50   N6    S    
C1    O5    A    
C29   C30   A    
C25   C38   A    
C8    O12   S    
C4    C39   S    
C53   H43   S    
H21   N4    S    
C8    C18   A    
C17   C18   A    
Cu1   O8    S    
C4    O7    A    
C10   N3    S    
C34   C45   A    
C25   H2    S    
C32   C37   A    
C13   H45   S    
C27   H4    S    
Cu1   O10   S    
C50   H33   S    
C15   C24   A    
C48   N4    S    
C45   C54   A    
C6    C40   A    
C2    C5    A    
C47   H18   S    
C12   C34   A    
C46   H15   S    
C28   O10   A    
Cu2   O9    S    
H30   N6    S    
Cu1   O6    S    
C31   C36   A    
C49   H27   S    
C9    C16   S    
C38   N1    A    
H35   N7    S    
C53   O4    S    
C23   C55   A    
C52   H40   S    
C23   C41   A    
C48   H24   S    
C32   C33   A    
H26   N5    S    
C2    C3    A    
C16   O9    A    
C26   N5    S    
C5    H12   S    
C30   C32   A    
C11   C13   A    
C9    C21   A    
C5    C6    A    
C53   H44   S    
H17   N3    S    
C47   N3    S    
C52   H39   S    
C33   C35   A    
C31   N2    A    
C3    C45   A    
C4    O6    A    
C44   H13   S    
C7    H48   S    
C9    C22   A    
C51   N7    S    
C10   C11   A    
C50   H32   S    
C1    C24   S    
C51   H36   S    
C14   C15   A    
C47   H19   S    
C13   C14   A    
C36   N7    S    
C38   N4    S    
C46   H14   S    
C25   C33   A    
C52   O3    S    
