data_mof_unit_13118.cif
_audit_creation_date              2012-12-10T19:11:22-0500
_audit_creation_method            fapswitch 2.2
_symmetry_space_group_name_H-M    P1
_symmetry_Int_Tables_number       1
_space_group_crystal_system       triclinic
_cell_length_a                    10.884147
_cell_length_b                    9.848599
_cell_length_c                    10.525604
_cell_angle_alpha                 89.865057
_cell_angle_beta                  89.610946
_cell_angle_gamma                 88.875962
_cell_volume                      1128.03147072

loop_
_atom_site_label
_atom_site_type_symbol
_atom_type_description
_atom_site_fract_x
_atom_site_fract_y
_atom_site_fract_z
_atom_type_partial_charge
C1    C     C_R   0.258105 0.501329 0.510697 0.874187
C2    C     C_3   0.507030 0.499483 0.122228 0.025407
C3    C     C_3   0.072282 0.606429 0.638312 0.365020
C4    C     C_3   0.074246 0.348217 0.557045 0.401882
C5    C     C_3   0.925241 0.611281 0.633270 -0.010466
C6    C     C_3   0.934865 0.361656 0.594431 -0.042166
C7    C     C_3   0.061910 0.551445 0.388659 0.381412
C8    C     C_3   0.120504 0.502999 0.523813 -0.034365
C9    C     C_3   0.876969 0.498662 0.536999 -0.052936
C10   C     C_3   0.922559 0.524261 0.397972 -0.401301
C11   C     C_3   0.391196 0.082870 0.429726 -0.077783
C12   C     C_3   0.390202 0.921600 0.431118 -0.085647
C13   C     C_3   0.614857 0.077344 0.440086 0.142674
C14   C     C_3   0.614652 0.916764 0.438794 0.142564
C15   C     C_3   0.492537 0.080670 0.628579 -0.358536
C16   C     C_3   0.493843 0.919286 0.628511 -0.357939
C17   C     C_R   0.503920 0.499913 0.257555 0.876803
C18   C     C_R   0.739305 0.498867 0.524238 0.888611
C19   C     C_R   0.500252 0.499996 0.742123 0.834615
C20   C     C_3   0.552460 0.617233 0.040425 -0.179733
C21   C     C_3   0.389970 0.486933 0.044067 -0.204955
C22   C     C_3   0.435953 0.603344 0.960795 0.058764
C23   C     C_3   0.502970 0.500272 0.876892 -0.024719
C24   C     C_3   0.620564 0.512450 0.954706 -0.221321
C25   C     C_3   0.458588 0.382323 0.959003 -0.147674
C26   C     C_3   0.575954 0.394655 0.039694 -0.144243
H1    H     H_    0.869353 0.609739 0.353942 0.177598
H2    H     H_    0.896569 0.435950 0.339354 0.155726
H3    H     H_    0.308355 0.115978 0.482753 0.114378
H4    H     H_    0.307014 0.892444 0.485419 0.096588
H5    H     H_    0.570278 0.117115 0.686574 0.163808
H6    H     H_    0.572769 0.880550 0.685471 0.164084
H7    H     H_    0.408135 0.119358 0.677650 0.177615
H8    H     H_    0.410531 0.883140 0.678323 0.189606
H9    H     H_    0.687814 0.099920 0.506320 0.122223
H10   H     H_    0.690086 0.884959 0.501443 0.126310
H11   H     H_    0.591466 0.713393 0.074629 0.142346
H12   H     H_    0.294634 0.475777 0.077946 0.144195
H13   H     H_    0.714259 0.522726 0.913831 0.124445
H14   H     H_    0.420066 0.286525 0.922450 0.151834
H15   H     H_    0.634122 0.309295 0.075431 0.133575
H16   H     H_    0.890520 0.580434 0.728731 0.134630
H17   H     H_    0.927905 0.372214 0.698740 0.139048
N1    N     N_3   0.499750 0.138610 0.497240 -0.068092
N2    N     N_3   0.499750 0.861390 0.497240 -0.072640
O1    O     O_R   0.314910 0.616040 0.499970 -0.628633
O2    O     O_R   0.314910 0.383960 0.499970 -0.621581
O3    O     O_R   0.500080 0.616020 0.313900 -0.614111
O4    O     O_R   0.500080 0.383980 0.313900 -0.614916
O5    O     O_R   0.685320 0.616040 0.499930 -0.636895
O6    O     O_R   0.685320 0.383960 0.499930 -0.630594
O7    O     O_R   0.500150 0.616060 0.686000 -0.637653
O8    O     O_R   0.500150 0.383940 0.686000 -0.639801
Zn1   Zn    Zn3+2 0.500150 0.654960 0.499940 0.906517
Zn2   Zn    Zn3+2 0.500150 0.345040 0.499940 0.906287
C27   C     C_1   0.359725 0.720596 0.922440 0.160852
N3    N     N_1   0.299598 0.813888 0.894353 -0.246644
C28   C     C_1   0.373052 0.141969 0.301867 0.218029
N4    N     N_1   0.356378 0.185827 0.201170 -0.230719
C29   C     C_1   0.369845 0.862133 0.304734 0.220100
N5    N     N_1   0.351383 0.817972 0.205068 -0.212296
C30   C     C_3   0.658825 0.142416 0.313763 -0.856966
H18   H     H_    0.598117 0.120559 0.232931 0.245728
H19   H     H_    0.672954 0.251526 0.320647 0.281014
H20   H     H_    0.752492 0.104636 0.289162 0.189081
C31   C     C_3   0.654967 0.853773 0.310037 -0.846204
H21   H     H_    0.592685 0.882541 0.231649 0.239631
H22   H     H_    0.748470 0.887136 0.284165 0.192229
H23   H     H_    0.669050 0.743825 0.314068 0.278075
C32   C     C_3   0.129564 0.752667 0.639816 -0.785278
H24   H     H_    0.229892 0.748887 0.653711 0.253139
H25   H     H_    0.108376 0.822200 0.561852 0.211339
H26   H     H_    0.098150 0.811259 0.724286 0.223095
C33   C     C_3   0.086838 0.246375 0.442440 -0.824508
H27   H     H_    0.083920 0.138383 0.472924 0.213534
H28   H     H_    0.010292 0.254146 0.375094 0.215026
H29   H     H_    0.172437 0.257047 0.388690 0.250528
C34   C     C_3   0.111502 0.556163 0.773926 -0.974839
H30   H     H_    0.064692 0.465802 0.809005 0.222409
H31   H     H_    0.212541 0.540319 0.779226 0.240541
H32   H     H_    0.086153 0.632012 0.848214 0.253931
C35   C     C_3   0.146497 0.275508 0.669794 -0.864114
H33   H     H_    0.225735 0.332489 0.704516 0.238468
H34   H     H_    0.087663 0.251747 0.753043 0.210720
H35   H     H_    0.186216 0.174823 0.644559 0.224570
C36   C     C_3   0.864205 0.753868 0.626390 -0.907462
H36   H     H_    0.867125 0.796054 0.530055 0.250407
H37   H     H_    0.767748 0.749689 0.660472 0.241978
H38   H     H_    0.904671 0.826610 0.693126 0.231747
C37   C     C_3   0.867367 0.227308 0.583805 -0.917415
H39   H     H_    0.848658 0.206796 0.482998 0.268712
H40   H     H_    0.923468 0.141548 0.622535 0.241960
H41   H     H_    0.782371 0.230293 0.643005 0.243880
C38   C     C_3   0.077095 0.704756 0.355531 -0.852750
H42   H     H_    0.011173 0.771695 0.403917 0.215190
H43   H     H_    0.171407 0.737912 0.370598 0.261379
H44   H     H_    0.054401 0.728963 0.255147 0.223804
C39   C     C_3   0.119018 0.478968 0.267755 -0.882209
H45   H     H_    0.111025 0.540550 0.179665 0.229754
H46   H     H_    0.218257 0.456545 0.278994 0.238932
H47   H     H_    0.072651 0.386592 0.236823 0.217574

loop_
_geom_bond_atom_site_label_1
_geom_bond_atom_site_label_2
_ccdc_geom_bond_type
C10   H1    S    
C7    C10   S    
C31   H22   S    
C5    H16   S    
C7    C39   S    
C1    C8    S    
N1    Zn2   S    
C17   O3    A    
C4    C8    S    
C6    C9    S    
C7    C8    S    
O6    Zn2   S    
O3    Zn1   S    
O5    Zn1   S    
C33   H28   S    
C24   C26   S    
C15   N1    S    
C13   H9    S    
C25   H14   S    
C14   H10   S    
C36   H37   S    
C1    O1    A    
C31   H23   S    
C15   C16   S    
C24   H13   S    
C27   N3    T    
C30   H19   S    
C16   H8    S    
C19   O7    A    
C21   H12   S    
C20   C24   S    
C33   H29   S    
C23   C24   S    
C32   H24   S    
C11   C28   S    
C9    C10   S    
C4    C33   S    
C19   O8    A    
C31   H21   S    
C21   C22   S    
C2    C17   S    
C32   H26   S    
O7    Zn1   S    
C18   O6    A    
C14   N2    S    
O8    Zn2   S    
C33   H27   S    
C13   C30   S    
C2    C20   S    
C3    C32   S    
C4    C6    S    
C3    C8    S    
C17   O4    A    
C36   H36   S    
C1    O2    A    
C22   C27   S    
C38   H44   S    
C28   N4    T    
O4    Zn2   S    
C29   N5    T    
C19   C23   S    
C5    C9    S    
C30   H18   S    
C37   H40   S    
O1    Zn1   S    
C2    C21   S    
C14   C31   S    
C11   N1    S    
C2    C26   S    
C38   H43   S    
C5    C36   S    
C20   C22   S    
N2    Zn1   S    
C39   H45   S    
C39   H46   S    
C6    H17   S    
C39   H47   S    
C18   O5    A    
C37   H41   S    
O2    Zn2   S    
C10   H2    S    
C7    C38   S    
C21   C25   S    
C30   H20   S    
C12   H4    S    
C34   H30   S    
C12   N2    S    
C3    C5    S    
C36   H38   S    
C16   N2    S    
C11   C12   S    
C15   H5    S    
C16   H6    S    
C35   H35   S    
C35   H34   S    
C25   C26   S    
C6    C37   S    
C20   H11   S    
C34   H32   S    
C37   H39   S    
C34   H31   S    
C23   C25   S    
C38   H42   S    
C12   C29   S    
C9    C18   S    
C4    C35   S    
C11   H3    S    
C35   H33   S    
C22   C23   S    
C32   H25   S    
C13   C14   S    
C3    C34   S    
C15   H7    S    
C13   N1    S    
C26   H15   S    
