data_mof_unit_14956.cif
_audit_creation_date              2012-12-10T19:04:13-0500
_audit_creation_method            fapswitch 2.2
_symmetry_space_group_name_H-M    P1
_symmetry_Int_Tables_number       1
_space_group_crystal_system       triclinic
_cell_length_a                    10.618136
_cell_length_b                    10.76801
_cell_length_c                    9.598938
_cell_angle_alpha                 90.632211
_cell_angle_beta                  88.138663
_cell_angle_gamma                 91.187751
_cell_volume                      1096.63231846

loop_
_atom_site_label
_atom_site_type_symbol
_atom_type_description
_atom_site_fract_x
_atom_site_fract_y
_atom_site_fract_z
_atom_type_partial_charge
C1    C     C_R   0.502621 0.262604 0.499841 0.795807
C2    C     C_3   0.965103 0.479155 0.367067 -0.138147
C3    C     C_3   0.042200 0.392904 0.457848 -0.166803
C4    C     C_3   0.122101 0.505630 0.502972 0.015298
C5    C     C_R   0.456564 0.063926 0.613831 0.145398
C6    C     C_R   0.512832 0.129476 0.502905 -0.115166
C7    C     C_R   0.585589 0.065387 0.401926 -0.229033
C8    C     C_R   0.585045 0.935528 0.401849 -0.217858
C9    C     C_R   0.513146 0.870771 0.503870 -0.081187
C10   C     C_R   0.456859 0.936213 0.614227 0.125775
C11   C     C_3   0.324435 0.926810 0.670800 -0.508352
C12   C     C_R   0.259361 0.502694 0.501608 0.771113
C13   C     C_3   0.323941 0.067685 0.670752 -0.457022
C14   C     C_R   0.563303 0.590904 0.072364 0.165256
C15   C     C_R   0.432250 0.413005 0.076307 0.407010
C16   C     C_R   0.422646 0.421052 0.927480 0.394169
C17   C     C_R   0.564959 0.589546 0.925547 0.166204
C18   C     C_3   0.703013 0.617260 0.915859 -0.466870
C19   C     C_3   0.701438 0.619361 0.074063 -0.480845
C20   C     C_R   0.502817 0.737399 0.500640 0.780875
C21   C     C_R   0.740519 0.501140 0.497939 0.762400
C22   C     C_3   0.033766 0.530327 0.629234 -0.164355
C23   C     C_3   0.952242 0.417093 0.584494 -0.170100
C24   C     C_3   0.877422 0.503189 0.494025 0.031348
C25   C     C_3   0.956868 0.616229 0.538197 -0.173263
C26   C     C_3   0.047345 0.592033 0.411735 -0.151354
Cu1   Cu    Cu3+1 0.499990 0.499980 0.640670 0.962198
Cu2   Cu    Cu3+1 0.500010 0.500020 0.359330 0.963196
H1    H     H_    0.318985 0.886817 0.777091 0.197369
H2    H     H_    0.257778 0.106612 0.595862 0.182496
H3    H     H_    0.317783 0.108362 0.777421 0.226292
H4    H     H_    0.758103 0.539273 0.870120 0.215482
H5    H     H_    0.724606 0.709609 0.869240 0.191884
H6    H     H_    0.755879 0.542877 0.118159 0.207539
H7    H     H_    0.721969 0.712962 0.118845 0.187409
H8    H     H_    0.060661 0.556199 0.736280 0.122857
H9    H     H_    0.089355 0.664031 0.341460 0.124242
H10   H     H_    0.934367 0.458316 0.259812 0.132683
H11   H     H_    0.080227 0.301328 0.425517 0.124074
H12   H     H_    0.638509 0.114990 0.321099 0.142975
H13   H     H_    0.636657 0.886097 0.320152 0.145333
H14   H     H_    0.258823 0.883398 0.595520 0.192117
N1    N     N_R   0.500800 0.500930 0.147930 -0.238991
N2    N     N_R   0.500800 0.500890 0.852020 -0.239236
O1    O     O_R   0.500000 0.319640 0.618810 -0.537080
O2    O     O_R   0.500010 0.319680 0.381230 -0.549494
O3    O     O_R   0.316850 0.499950 0.618770 -0.579929
O4    O     O_R   0.316860 0.499990 0.381190 -0.544078
O5    O     O_R   0.499990 0.680320 0.618770 -0.577434
O6    O     O_R   0.500000 0.680360 0.381190 -0.580147
O7    O     O_R   0.683140 0.500010 0.618810 -0.584562
O8    O     O_R   0.683150 0.500050 0.381230 -0.594465
H15   H     H_    0.908349 0.344470 0.652160 0.127113
O9    O     O_3   0.367326 0.321248 0.150898 -0.587300
C27   C     C_3   0.412894 0.202246 0.113490 0.073339
H16   H     H_    0.512246 0.193963 0.144524 0.136615
H17   H     H_    0.409902 0.183174 0.000000 0.164366
C28   C     C_3   0.330967 0.102677 0.187345 -0.331855
H18   H     H_    0.342052 0.109967 0.301445 0.228577
H19   H     H_    0.230033 0.117583 0.167839 0.204458
C29   C     C_3   0.364901 0.972268 0.136774 -0.916779
H20   H     H_    0.338956 0.959198 0.026387 0.243725
H21   H     H_    0.312478 0.902108 0.201181 0.257740
H22   H     H_    0.467425 0.957151 0.144811 0.262755
O10   O     O_3   0.340586 0.342205 0.858368 -0.609742
C30   C     C_3   0.215774 0.386710 0.869590 0.096538
H23   H     H_    0.172184 0.364114 0.768847 0.185561
H24   H     H_    0.211503 0.489407 0.885674 0.108543
C31   C     C_3   0.135761 0.320152 0.983102 -0.375131
H25   H     H_    0.155151 0.219309 0.978922 0.230640
H26   H     H_    0.158106 0.358872 0.086963 0.256445
C32   C     C_3   0.994998 0.337240 0.964827 -0.980673
H27   H     H_    0.973191 0.437362 0.957386 0.256413
H28   H     H_    0.941376 0.297725 0.055773 0.255569
H29   H     H_    0.964361 0.287111 0.869988 0.259642
H30   H     H_    0.918587 0.707674 0.570523 0.120412

loop_
_geom_bond_atom_site_label_1
_geom_bond_atom_site_label_2
_ccdc_geom_bond_type
C30   H24   S    
C27   H16   S    
C31   C32   S    
C11   C13   S    
C3    C23   S    
C12   O4    A    
C7    C8    A    
Cu2   O2    S    
C32   H29   S    
C5    C6    A    
C1    O2    A    
C30   C31   S    
C28   H19   S    
C15   C16   A    
C11   H14   S    
C31   H26   S    
C18   C19   S    
C29   H21   S    
C20   O6    A    
Cu2   O6    S    
Cu1   N2    S    
C8    C9    A    
C22   C25   S    
C23   C24   S    
C4    C12   S    
C9    C10   A    
C16   N2    A    
C5    C13   S    
Cu1   O1    S    
C28   C29   S    
C30   H23   S    
C3    H11   S    
C14   C17   A    
C31   H25   S    
C12   O3    A    
Cu1   O7    S    
C23   H15   S    
C1    C6    S    
C15   O9    S    
C13   H2    S    
C8    H13   S    
C32   H28   S    
C25   C26   S    
C29   H22   S    
C20   O5    A    
C4    C22   S    
C2    H10   S    
C9    C20   S    
C7    H12   S    
C17   C18   S    
C2    C26   S    
C24   C25   S    
C27   H17   S    
C2    C24   S    
C21   C24   S    
C18   H4    S    
C3    C4    S    
C21   O7    A    
Cu1   O3    S    
O9    C27   S    
Cu2   O4    S    
C14   C19   S    
C13   H3    S    
C32   H27   S    
C19   H6    S    
C4    C26   S    
C26   H9    S    
C6    C7    A    
C22   H8    S    
Cu2   N1    S    
C25   H30   S    
C2    C3    S    
C28   H18   S    
C17   N2    A    
C15   N1    A    
C5    C10   A    
C19   H7    S    
Cu2   O8    S    
C1    O1    A    
C29   H20   S    
C18   H5    S    
C10   C11   S    
C11   H1    S    
O10   C30   S    
C27   C28   S    
Cu1   Cu2   S    
C22   C23   S    
C16   O10   S    
C21   O8    A    
Cu1   O5    S    
C14   N1    A    
