data_mof_unit_59690.cif
_audit_creation_date              2013-03-05T16:05:30-0500
_audit_creation_method            fapswitch 2.2
_symmetry_space_group_name_H-M    P1
_symmetry_Int_Tables_number       1
_space_group_crystal_system       triclinic
_cell_length_a                    10.895174
_cell_length_b                    9.603947
_cell_length_c                    10.67324
_cell_angle_alpha                 89.549968
_cell_angle_beta                  93.067197
_cell_angle_gamma                 89.620429
_cell_volume                      1115.15030483

loop_
_atom_site_label
_atom_site_type_symbol
_atom_site_description
_atom_site_fract_x
_atom_site_fract_y
_atom_site_fract_z
_atom_type_partial_charge
O1    O     O_R   0.319640 0.618740 0.499990 -0.614116
O2    O     O_R   0.680360 0.381260 0.500010 -0.614113
O3    O     O_R   0.680360 0.618740 0.500010 -0.604390
O4    O     O_R   0.319640 0.381260 0.499990 -0.604402
C1    C     C_R   0.871722 0.498338 0.479967 -0.134747
C2    C     C_R   0.128277 0.501662 0.520029 -0.134741
C3    C     C_R   0.262938 0.500519 0.510231 0.819448
C4    C     C_R   0.737061 0.499481 0.489768 0.819445
O5    O     O_R   0.499970 0.618770 0.316850 -0.549829
O6    O     O_R   0.500030 0.381230 0.683150 -0.549828
O7    O     O_R   0.500030 0.618770 0.683150 -0.567804
O8    O     O_R   0.499970 0.381230 0.316850 -0.567814
C5    C     C_R   0.499713 0.500620 0.259991 0.899317
C6    C     C_R   0.500287 0.499380 0.740008 0.899323
Cu1   Cu    Cu3+1 0.500000 0.640660 0.500000 0.960004
Cu2   Cu    Cu3+1 0.500000 0.359340 0.500000 0.960002
N1    N     N_R   0.500000 0.852070 0.500000 -0.341055
N2    N     N_R   0.500000 0.147930 0.500000 -0.341065
C7    C     C_3   0.503012 0.631421 0.038479 0.350490
C8    C     C_3   0.496988 0.368580 0.961520 0.350496
C9    C     C_3   0.601245 0.560648 0.962841 0.306483
C10   C     C_3   0.398755 0.439352 0.037159 0.306472
C11   C     C_3   0.399876 0.569657 0.951951 -0.055150
C12   C     C_3   0.600124 0.430344 0.048049 -0.055142
C13   C     C_3   0.499185 0.498263 0.875812 -0.184044
C14   C     C_3   0.500815 0.501737 0.124188 -0.184037
C15   C     C_R   0.439031 0.074675 0.405514 0.389623
C16   C     C_R   0.560968 0.925323 0.594485 0.389639
C17   C     C_R   0.561040 0.072178 0.594429 0.425222
C18   C     C_R   0.438960 0.927821 0.405570 0.425225
C19   C     C_R   0.064427 0.373859 0.524957 0.135848
C20   C     C_R   0.935571 0.626140 0.475036 0.135848
C21   C     C_R   0.938552 0.371086 0.490770 0.138602
C22   C     C_R   0.061446 0.628913 0.509224 0.138603
O9    O     O_3   0.373875 0.139899 0.307714 -0.644771
H1    H     H_    0.337502 0.225377 0.339958 0.376360
O10   O     O_3   0.626121 0.860095 0.692281 -0.644812
H2    H     H_    0.662509 0.774641 0.660046 0.376374
O11   O     O_3   0.626855 0.134728 0.691774 -0.633257
H3    H     H_    0.659390 0.222699 0.660596 0.361968
O12   O     O_3   0.373146 0.865270 0.308225 -0.633252
H4    H     H_    0.340608 0.777300 0.339405 0.361963
C23   C     C_3   0.287034 0.647509 0.897586 -0.756073
H5    H     H_    0.316091 0.738397 0.841875 0.241943
H6    H     H_    0.230921 0.577150 0.835967 0.209944
H7    H     H_    0.231222 0.684338 0.974900 0.265761
C24   C     C_3   0.712962 0.352482 0.102413 -0.756071
H8    H     H_    0.683898 0.261535 0.158032 0.241963
H9    H     H_    0.768818 0.315748 0.025105 0.265751
H10   H     H_    0.769030 0.422791 0.164113 0.209925
O13   O     O_3   0.508267 0.768877 0.080522 -0.648556
H11   H     H_    0.510068 0.827196 0.003618 0.361690
O14   O     O_3   0.491733 0.231124 0.919477 -0.648553
H12   H     H_    0.489917 0.172805 0.996379 0.361687
O15   O     O_3   0.706218 0.625314 0.920835 -0.689945
H13   H     H_    0.752629 0.656711 0.997773 0.341944
O16   O     O_3   0.293782 0.374686 0.079165 -0.689943
H14   H     H_    0.247365 0.343304 0.002227 0.341937
C25   C     C_3   0.125844 0.242403 0.579263 -0.785355
H15   H     H_    0.195628 0.268125 0.655106 0.240498
H16   H     H_    0.058883 0.174588 0.624914 0.229629
H17   H     H_    0.168520 0.182230 0.504355 0.240782
C26   C     C_3   0.874154 0.757593 0.420726 -0.785357
H18   H     H_    0.804366 0.731866 0.344888 0.240500
H19   H     H_    0.831481 0.817772 0.495631 0.240777
H20   H     H_    0.941113 0.825403 0.375067 0.229631
C27   C     C_3   0.880694 0.232587 0.454196 -0.795026
H21   H     H_    0.813773 0.245943 0.372798 0.237192
H22   H     H_    0.949866 0.157485 0.421781 0.230534
H23   H     H_    0.836000 0.185452 0.535110 0.240855
C28   C     C_3   0.119303 0.767414 0.545792 -0.795023
H24   H     H_    0.186224 0.754064 0.627192 0.237187
H25   H     H_    0.163997 0.814546 0.464876 0.240854
H26   H     H_    0.050130 0.842518 0.578203 0.230533

loop_
_geom_bond_atom_site_label_1
_geom_bond_atom_site_label_2
_geom_bond_distance
_ccdc_geom_bond_type
O15   H13   0.991170 S    
C26   H19   1.110333 S    
O12   H4    0.981019 S    
O9    H1    0.981892 S    
C2    C22   1.419176 A    
C10   O16   1.398098 S    
C24   H9    1.109554 S    
O14   H12   0.991193 S    
C16   C17   1.410385 A    
C7    C9    1.533180 S    
C12   C14   1.547331 S    
O7    C6    1.293003 A    
C8    C13   1.540600 S    
Cu1   Cu2   2.701782 S    
C11   C23   1.520496 S    
C19   C25   1.520990 S    
C7    C14   1.540607 S    
O5    C5    1.290942 A    
O7    Cu1   1.964416 S    
C8    C12   1.540725 S    
C1    C21   1.419173 A    
C19   C21   1.400626 A    
C18   O12   1.374897 S    
O1    Cu1   1.977679 S    
O2    Cu2   1.977678 S    
C1    C20   1.416843 A    
C2    C19   1.416851 A    
C26   H20   1.110490 S    
C25   H15   1.110920 S    
C15   C18   1.410381 A    
N1    C18   1.377570 A    
N1    C16   1.377979 A    
O4    C3    1.305853 A    
C24   H10   1.110049 S    
C25   H16   1.110491 S    
C27   H21   1.109988 S    
O8    Cu2   1.964417 S    
O3    C4    1.305852 A    
O6    C6    1.290943 A    
O11   H3    0.981006 S    
C9    O15   1.398097 S    
C15   O9    1.374948 S    
O13   H11   0.991198 S    
C27   H22   1.110195 S    
C20   C22   1.400627 A    
O4    Cu2   1.974905 S    
C7    C11   1.540723 S    
C23   H5    1.109666 S    
O10   H2    0.981742 S    
C1    C4    1.476422 S    
C24   H8    1.109612 S    
C17   O11   1.374894 S    
N2    C17   1.377569 A    
C23   H6    1.110105 S    
C8    C10   1.533178 S    
C5    C14   1.450113 S    
O3    Cu1   1.974904 S    
C21   C27   1.520506 S    
C28   H25   1.108900 S    
Cu1   N1    2.030370 S    
C9    C13   1.537950 S    
C25   H17   1.110337 S    
O1    C3    1.302791 A    
C12   C24   1.520498 S    
O2    C4    1.302789 A    
N2    C15   1.377998 A    
C20   C26   1.520988 S    
C8    O14   1.398181 S    
C28   H26   1.110194 S    
C2    C3    1.476428 S    
C27   H23   1.108897 S    
O5    Cu1   1.967701 S    
C28   H24   1.109989 S    
O6    Cu2   1.967700 S    
O16   H14   0.991162 S    
C16   O10   1.374913 S    
C11   C13   1.547332 S    
C6    C13   1.450115 S    
C23   H7    1.109618 S    
C26   H18   1.110914 S    
C7    O13   1.398180 S    
O8    C5    1.293004 A    
Cu2   N2    2.030371 S    
C10   C14   1.537945 S    
C9    C12   1.541700 S    
C10   C11   1.541701 S    
C22   C28   1.520508 S    
