data_mof_unit_17116.cif
_audit_creation_date              2012-12-10T18:58:11-0500
_audit_creation_method            fapswitch 2.2
_symmetry_space_group_name_H-M    P1
_symmetry_Int_Tables_number       1
_space_group_crystal_system       triclinic
_cell_length_a                    10.731277
_cell_length_b                    9.885941
_cell_length_c                    15.819251
_cell_angle_alpha                 90.268961
_cell_angle_beta                  91.036648
_cell_angle_gamma                 90.001965
_cell_volume                      1677.9517189

loop_
_atom_site_label
_atom_site_type_symbol
_atom_type_description
_atom_site_fract_x
_atom_site_fract_y
_atom_site_fract_z
_atom_type_partial_charge
C1    C     C_R   0.872531 0.500842 0.498664 -0.008261
C2    C     C_R   0.465453 0.378428 0.954530 0.116405
C3    C     C_R   0.480564 0.502280 0.912685 0.006782
C4    C     C_R   0.493470 0.498295 0.087052 0.006143
C5    C     C_1   0.487290 0.502216 0.823539 0.050031
C6    C     C_1   0.495388 0.497713 0.176305 0.049783
C7    C     C_1   0.497471 0.498416 0.251161 -0.207533
C8    C     C_1   0.493631 0.501262 0.748831 -0.207338
C9    C     C_R   0.568277 0.073067 0.559386 0.169573
C10   C     C_R   0.433920 0.927154 0.439402 0.161097
C11   C     C_R   0.432155 0.072302 0.440392 0.166798
C12   C     C_R   0.127468 0.500832 0.501338 -0.007952
C13   C     C_R   0.566767 0.927926 0.560203 0.159638
C14   C     C_R   0.063673 0.377858 0.501296 -0.210217
C15   C     C_R   0.936120 0.624319 0.500328 -0.197839
C16   C     C_R   0.936284 0.377877 0.497454 -0.211322
C17   C     C_R   0.063916 0.624317 0.500906 -0.198651
C18   C     C_3   0.768924 0.137043 0.625668 -0.791832
C19   C     C_3   0.412728 0.856939 0.291864 -0.723563
C20   C     C_3   0.231977 0.134527 0.373052 -0.788335
C21   C     C_3   0.590739 0.857336 0.706920 -0.720457
C22   C     C_3   0.652128 0.770485 0.118747 -0.814816
C23   C     C_R   0.259994 0.500158 0.500651 0.855258
C24   C     C_3   0.322419 0.233165 0.876602 -0.805020
C25   C     C_3   0.393825 0.811070 0.887350 -0.825385
C26   C     C_3   0.566049 0.185959 0.116637 -0.817345
C27   C     C_R   0.740005 0.500157 0.499355 0.854835
C28   C     C_R   0.499584 0.499606 0.339469 0.902061
C29   C     C_R   0.499668 0.500318 0.660586 0.900679
C30   C     C_R   0.497955 0.624666 0.956767 0.119575
C31   C     C_R   0.472711 0.376252 0.043131 0.118306
C32   C     C_R   0.506760 0.622321 0.045235 0.116524
H1    H     H_    0.591833 0.155434 0.680132 0.230903
H2    H     H_    0.203152 0.070325 0.318384 0.219846
H3    H     H_    0.190996 0.236381 0.363397 0.251628
H4    H     H_    0.194767 0.090571 0.432026 0.219107
H5    H     H_    0.732046 0.864497 0.617577 0.213057
H6    H     H_    0.621200 0.950395 0.740552 0.207125
H7    H     H_    0.629235 0.769768 0.742395 0.249283
H8    H     H_    0.487350 0.850622 0.706702 0.248722
H9    H     H_    0.480128 0.828115 0.068493 0.233299
H10   H     H_    0.710834 0.786262 0.062514 0.232280
H11   H     H_    0.690258 0.684970 0.156419 0.255697
H12   H     H_    0.798941 0.073567 0.680017 0.219134
H13   H     H_    0.656079 0.863068 0.158681 0.234536
H14   H     H_    0.489293 0.171697 0.932844 0.230509
H15   H     H_    0.259699 0.216670 0.930704 0.230157
H16   H     H_    0.320039 0.141965 0.835405 0.234575
H17   H     H_    0.287964 0.320384 0.838866 0.254704
H18   H     H_    0.574021 0.815753 0.937400 0.231270
H19   H     H_    0.339810 0.837679 0.944334 0.234500
H20   H     H_    0.337724 0.742034 0.846195 0.256614
H21   H     H_    0.412233 0.905143 0.851685 0.236415
H22   H     H_    0.388775 0.188836 0.061798 0.229911
H23   H     H_    0.809447 0.239276 0.635233 0.251990
H24   H     H_    0.619281 0.149642 0.061393 0.232027
H25   H     H_    0.541345 0.097666 0.156104 0.233799
H26   H     H_    0.625677 0.254894 0.155465 0.256098
H27   H     H_    0.111609 0.281824 0.503889 0.163302
H28   H     H_    0.887689 0.720485 0.500963 0.150387
H29   H     H_    0.888308 0.281875 0.493863 0.163069
H30   H     H_    0.112381 0.720487 0.501272 0.150533
H31   H     H_    0.805497 0.092748 0.566348 0.219916
H32   H     H_    0.270205 0.861600 0.380529 0.213571
H33   H     H_    0.381443 0.949585 0.258700 0.205945
H34   H     H_    0.375659 0.769053 0.255509 0.247879
H35   H     H_    0.516211 0.851763 0.292438 0.248340
H36   H     H_    0.409883 0.154713 0.319971 0.233600
N1    N     N_R   0.500000 0.857200 0.500000 -0.133494
N2    N     N_2   0.453316 0.253947 0.088737 -0.297745
N3    N     N_R   0.500000 0.142800 0.500000 -0.135956
N4    N     N_2   0.634502 0.148025 0.622479 -0.240686
N5    N     N_2   0.365578 0.852589 0.377078 -0.247599
N6    N     N_2   0.366295 0.146515 0.377215 -0.240844
N7    N     N_2   0.636858 0.854045 0.621481 -0.249510
N8    N     N_2   0.524380 0.744036 0.092922 -0.304463
N9    N     N_2   0.448688 0.256655 0.906771 -0.300861
N10   N     N_2   0.510817 0.748189 0.911448 -0.302896
O1    O     O_R   0.316770 0.614620 0.499990 -0.621439
O2    O     O_R   0.683230 0.385380 0.500010 -0.604044
O3    O     O_R   0.683230 0.614620 0.500010 -0.620085
O4    O     O_R   0.316770 0.385380 0.499990 -0.603482
O5    O     O_R   0.499980 0.614630 0.378020 -0.584169
O6    O     O_R   0.500020 0.385370 0.621980 -0.603328
O7    O     O_R   0.500020 0.614630 0.621980 -0.586681
O8    O     O_R   0.499980 0.385370 0.378020 -0.606227
Zn1   Zn    Zn3+2 0.500000 0.653120 0.500000 0.968851
Zn2   Zn    Zn3+2 0.500000 0.346880 0.500000 0.973309

loop_
_geom_bond_atom_site_label_1
_geom_bond_atom_site_label_2
_ccdc_geom_bond_type
O5    Zn1   S    
C23   O4    A    
C15   H28   S    
C9    N4    S    
C22   N8    S    
O1    Zn1   S    
C14   H27   S    
C12   C23   S    
C8    C29   S    
C25   H21   S    
C10   N5    S    
C11   N3    A    
C18   H31   S    
H36   N6    S    
C19   H34   S    
C9    C13   A    
H1    N4    S    
C20   H3    S    
C31   N2    S    
C21   H6    S    
C13   N7    S    
C21   H7    S    
C12   C17   A    
H32   N5    S    
C19   H35   S    
C1    C15   A    
C29   O7    A    
N1    Zn1   S    
C20   H2    S    
H5    N7    S    
C28   O5    A    
H18   N10   S    
O7    Zn1   S    
C18   N4    S    
C25   N10   S    
C24   H16   S    
O6    Zn2   S    
C27   O3    A    
C29   O6    A    
C4    C6    S    
C27   O2    A    
C7    C28   S    
C2    C31   A    
C30   N10   S    
C3    C30   A    
C25   H19   S    
C18   H12   S    
C17   H30   S    
H14   N9    S    
C22   H11   S    
H22   N2    S    
C19   N5    S    
C20   N6    S    
C1    C16   A    
C4    C32   A    
C26   H26   S    
O3    Zn1   S    
C18   H23   S    
C12   C14   A    
C28   O8    A    
C26   N2    S    
C14   C16   A    
C16   H29   S    
C24   H17   S    
C15   C17   A    
C24   H15   S    
C9    N3    A    
C3    C5    S    
C11   N6    S    
C26   H24   S    
C32   N8    S    
C5    C8    T    
C6    C7    T    
C21   N7    S    
C2    C3    A    
C25   H20   S    
O2    Zn2   S    
C2    N9    S    
H9    N8    S    
C30   C32   A    
C22   H10   S    
C21   H8    S    
C13   N1    A    
O4    Zn2   S    
C19   H33   S    
O8    Zn2   S    
C26   H25   S    
C4    C31   A    
C10   C11   A    
N3    Zn2   S    
C20   H4    S    
C10   N1    A    
C24   N9    S    
C22   H13   S    
C1    C27   S    
C23   O1    A    
