data_mof_unit_45329.cif
_audit_creation_date              2012-12-10T17:43:38-0500
_audit_creation_method            fapswitch 2.2
_symmetry_space_group_name_H-M    P1
_symmetry_Int_Tables_number       1
_space_group_crystal_system       triclinic
_cell_length_a                    14.98548
_cell_length_b                    10.649754
_cell_length_c                    9.899467
_cell_angle_alpha                 89.943394
_cell_angle_beta                  90.082661
_cell_angle_gamma                 91.800733
_cell_volume                      1579.08997348

loop_
_atom_site_label
_atom_site_type_symbol
_atom_type_description
_atom_site_fract_x
_atom_site_fract_y
_atom_site_fract_z
_atom_type_partial_charge
C1    C     C_R   0.503894 0.260728 0.500278 0.863852
C2    C     C_R   0.184651 0.486349 0.376567 -0.241649
C3    C     C_R   0.230553 0.488815 0.499752 -0.076907
C4    C     C_R   0.326623 0.497488 0.499942 0.900264
C5    C     C_R   0.184723 0.481411 0.622687 -0.169961
C6    C     C_R   0.636915 0.136178 0.665604 -0.321980
C7    C     C_R   0.696005 0.074738 0.750942 0.397597
C8    C     C_R   0.699511 0.942425 0.745325 0.394813
C9    C     C_R   0.640075 0.875885 0.660075 -0.350286
C10   C     C_R   0.575446 0.937664 0.582374 0.038820
C11   C     C_R   0.574602 0.068904 0.583721 0.029909
C12   C     C_R   0.906775 0.475833 0.623260 0.116192
C13   C     C_R   0.511816 0.128719 0.500523 -0.028522
C14   C     C_R   0.453859 0.061951 0.415185 -0.153448
C15   C     C_R   0.454081 0.933972 0.414962 -0.173255
C16   C     C_R   0.504524 0.739572 0.499991 0.875830
C17   C     C_R   0.512558 0.872318 0.499591 -0.050318
C18   C     C_R   0.382491 0.335636 0.139931 -0.236627
C19   C     C_R   0.324691 0.254432 0.069657 -0.301237
C20   C     C_R   0.324900 0.253517 0.929476 0.398324
C21   C     C_R   0.382890 0.335257 0.859651 -0.252303
C22   C     C_R   0.442193 0.418821 0.927662 0.120817
C23   C     C_R   0.953085 0.482158 0.252663 -0.161200
C24   C     C_R   0.442125 0.418935 0.072233 0.189917
C25   C     C_R   0.555640 0.577256 0.071567 -0.087567
C26   C     C_R   0.555603 0.577239 0.928356 -0.047414
C27   C     C_R   0.673313 0.498072 0.499976 0.883675
C28   C     C_R   0.814720 0.481135 0.622309 -0.123282
C29   C     C_R   0.769024 0.489440 0.499620 -0.096770
C30   C     C_R   0.814647 0.487643 0.376441 -0.212790
C31   C     C_R   0.906710 0.481515 0.375361 0.115853
C32   C     C_R   0.953111 0.477142 0.499316 0.052619
C33   C     C_R   0.045793 0.481705 0.252712 -0.176964
C34   C     C_R   0.092325 0.480842 0.375456 0.121615
C35   C     C_R   0.045932 0.476986 0.499388 0.065370
C36   C     C_R   0.092386 0.475860 0.623446 0.118825
C37   C     C_R   0.045894 0.471789 0.746045 -0.141381
C38   C     C_R   0.953184 0.471779 0.745950 -0.100502
H1    H     H_    0.778941 0.481040 0.717244 0.209952
H2    H     H_    0.600969 0.640343 0.874494 0.179296
H3    H     H_    0.917775 0.484764 0.157090 0.154272
H4    H     H_    0.081076 0.483956 0.157175 0.152953
H5    H     H_    0.220516 0.490448 0.281482 0.169174
H6    H     H_    0.220647 0.481473 0.717896 0.166357
H7    H     H_    0.081206 0.470372 0.841653 0.156253
H8    H     H_    0.917877 0.470328 0.841469 0.157741
H9    H     H_    0.406276 0.109018 0.351603 0.150277
H10   H     H_    0.757116 0.355852 0.945374 0.367132
H11   H     H_    0.915333 0.875644 0.898507 0.391595
H12   H     H_    0.641103 0.237431 0.663792 0.224742
H13   H     H_    0.298040 0.980092 0.931824 0.348396
H14   H     H_    0.645598 0.775251 0.654147 0.207167
H15   H     H_    0.406589 0.882625 0.351356 0.162514
H16   H     H_    0.601066 0.640378 0.125417 0.173574
H17   H     H_    0.378449 0.330244 0.247034 0.221659
H18   H     H_    0.279618 0.191954 0.125174 0.203282
H19   H     H_    0.379694 0.330878 0.752614 0.233833
H20   H     H_    0.778852 0.492506 0.281355 0.175177
N1    N     N_R   0.499150 0.498800 0.142780 -0.122642
N2    N     N_R   0.499120 0.498720 0.857170 -0.114189
O1    O     O_R   0.500000 0.316780 0.614690 -0.631144
O2    O     O_2   0.853571 0.191533 0.796622 -0.251702
O3    O     O_3   0.715722 0.308370 0.884667 -0.599050
O4    O     O_2   0.744240 0.846743 0.984787 -0.285581
O5    O     O_2   0.783093 0.725267 0.785229 -0.371137
O6    O     O_3   0.878261 0.926421 0.837655 -0.439486
O7    O     O_2   0.162594 0.210736 0.827534 -0.242690
O8    O     O_2   0.287170 0.124131 0.702270 -0.310641
O9    O     O_3   0.237610 0.014943 0.926609 -0.506095
O10   O     O_R   0.499990 0.316750 0.385360 -0.633136
O11   O     O_R   0.367850 0.499980 0.614680 -0.640123
O12   O     O_R   0.367840 0.499960 0.385350 -0.646009
O13   O     O_R   0.500010 0.683250 0.614640 -0.618762
O14   O     O_R   0.500000 0.683220 0.385310 -0.615641
O15   O     O_R   0.632160 0.500040 0.614650 -0.617019
O16   O     O_R   0.632150 0.500020 0.385320 -0.618480
O17   O     O_2   0.774522 0.106893 0.995281 -0.208721
S1    S     S_3+6 0.763514 0.169343 0.860409 0.062899
S2    S     S_3+6 0.776414 0.855631 0.841262 0.051974
S3    S     S_3+6 0.251499 0.150537 0.840922 0.040114
Zn1   Zn    Zn3+2 0.500010 0.500020 0.653130 0.971983
Zn2   Zn    Zn3+2 0.499990 0.499980 0.346870 0.960003

loop_
_geom_bond_atom_site_label_1
_geom_bond_atom_site_label_2
_ccdc_geom_bond_type
C19   H18   S    
O8    S3    D    
O5    S2    D    
C27   C29   S    
C35   C36   A    
N1    Zn2   S    
C7    C8    A    
O17   S1    D    
O6    S2    S    
C29   C30   A    
C12   C28   A    
C16   O14   A    
C33   H4    S    
C15   H15   S    
C28   C29   A    
C34   C35   A    
C22   N2    A    
C30   C31   A    
C10   C17   A    
C5    C36   A    
C18   C19   A    
C19   C20   A    
C8    C9    A    
C23   C33   A    
C8    S2    S    
C18   C24   A    
C9    C10   A    
C2    C34   A    
C21   C22   A    
C12   C32   A    
C9    H14   S    
O14   Zn2   S    
C27   O15   A    
O13   Zn1   S    
H11   O6    S    
C20   S3    S    
C16   O13   A    
C32   C35   A    
C25   H16   S    
O16   Zn2   S    
C6    C11   A    
O15   Zn1   S    
H10   O3    S    
C28   H1    S    
C25   C26   A    
C23   C31   A    
C21   H19   S    
C37   C38   A    
N2    Zn1   S    
C31   C32   A    
C2    H5    S    
C33   C34   A    
C6    H12   S    
C14   H9    S    
C18   H17   S    
C7    S1    S    
C5    H6    S    
O4    S2    D    
C22   C24   A    
C1    C13   S    
C37   H7    S    
C3    C4    S    
C4    O12   A    
C15   C17   A    
C36   C37   A    
O2    S1    D    
O7    S3    D    
C3    C5    A    
C1    O1    A    
C6    C7    A    
C25   N1    A    
C1    O10   A    
C23   H3    S    
C2    C3    A    
O1    Zn1   S    
C11   C13   A    
C26   H2    S    
C16   C17   S    
C24   N1    A    
C30   H20   S    
C12   C38   A    
O10   Zn2   S    
C38   H8    S    
C10   C11   A    
C20   C21   A    
C14   C15   A    
O9    S3    S    
H13   O9    S    
C13   C14   A    
C26   N2    A    
C4    O11   A    
O12   Zn2   S    
C27   O16   A    
O11   Zn1   S    
O3    S1    S    
