data_mof_unit_59525.cif
_audit_creation_date              2012-12-10T17:19:21-0500
_audit_creation_method            fapswitch 2.2
_symmetry_space_group_name_H-M    P1
_symmetry_Int_Tables_number       1
_space_group_crystal_system       triclinic
_cell_length_a                    15.094543
_cell_length_b                    10.7633
_cell_length_c                    9.667072
_cell_angle_alpha                 90.54045
_cell_angle_beta                  91.090337
_cell_angle_gamma                 95.240634
_cell_volume                      1563.6342619

loop_
_atom_site_label
_atom_site_type_symbol
_atom_type_description
_atom_site_fract_x
_atom_site_fract_y
_atom_site_fract_z
_atom_type_partial_charge
C1    C     C_R   0.496541 0.262603 0.499423 0.784191
C2    C     C_R   0.906718 0.546898 0.380977 0.120956
C3    C     C_R   0.953100 0.441877 0.739496 -0.272533
C4    C     C_R   0.045693 0.441320 0.739220 0.147524
C5    C     C_R   0.092791 0.476286 0.618815 0.116803
C6    C     C_R   0.046649 0.513673 0.499905 -0.042204
C7    C     C_R   0.093377 0.551900 0.379953 0.101307
C8    C     C_R   0.046041 0.587560 0.262360 -0.243110
C9    C     C_R   0.953429 0.584383 0.261634 0.114997
C10   C     C_R   0.184946 0.473325 0.614407 -0.261408
C11   C     C_R   0.232139 0.509476 0.495657 -0.139554
C12   C     C_R   0.328981 0.502838 0.498524 0.776042
C13   C     C_R   0.186401 0.552891 0.378627 0.111945
C14   C     C_R   0.353002 0.112453 0.636009 -0.184955
C15   C     C_R   0.286396 0.039657 0.703685 -0.132697
C16   C     C_R   0.286848 0.910488 0.705155 -0.127385
C17   C     C_R   0.353928 0.853318 0.639026 -0.177686
C18   C     C_R   0.422932 0.925291 0.571417 0.094959
C19   C     C_R   0.422496 0.056654 0.569975 0.100776
C20   C     C_R   0.490108 0.127935 0.498356 -0.100224
C21   C     C_R   0.553982 0.070362 0.424970 -0.201225
C22   C     C_R   0.554398 0.942322 0.426500 -0.210936
C23   C     C_R   0.496797 0.736660 0.500363 0.779688
C24   C     C_R   0.490893 0.869887 0.500941 -0.105924
C25   C     C_R   0.615757 0.671208 0.157734 -0.113691
C26   C     C_R   0.672814 0.761336 0.099528 0.114683
C27   C     C_R   0.675776 0.768233 0.959095 -0.285111
C28   C     C_R   0.623639 0.684108 0.873241 0.174087
C29   C     C_R   0.558957 0.588460 0.929769 0.175428
C30   C     C_R   0.557202 0.586216 0.079691 0.083599
C31   C     C_R   0.446896 0.415736 0.068508 0.230862
C32   C     C_R   0.446297 0.418168 0.922159 -0.030691
C33   C     C_R   0.670997 0.500774 0.500947 0.817433
C34   C     C_R   0.814049 0.542271 0.383036 -0.211170
C35   C     C_R   0.767883 0.505373 0.502244 -0.108130
C36   C     C_R   0.814311 0.473644 0.621480 -0.244154
C37   C     C_R   0.906827 0.476148 0.621255 0.100419
C38   C     C_R   0.953463 0.512563 0.500771 0.020184
Cu1   Cu    Cu3+1 0.499990 0.499990 0.640660 0.950669
Cu2   Cu    Cu3+1 0.500010 0.500010 0.359340 0.922207
H1    H     H_    0.777447 0.568168 0.291933 0.195003
H2    H     H_    0.348255 0.212047 0.633864 0.135621
H3    H     H_    0.233595 0.083595 0.753722 0.139202
H4    H     H_    0.350010 0.752669 0.639709 0.153308
H5    H     H_    0.778395 0.445210 0.713747 0.160327
H6    H     H_    0.402797 0.350144 0.864153 0.148352
H7    H     H_    0.917370 0.414391 0.832203 0.141798
H8    H     H_    0.080269 0.616610 0.168969 0.177171
H9    H     H_    0.605178 0.125178 0.369105 0.153134
N1    N     N_R   0.500860 0.501210 0.147910 -0.205823
N2    N     N_R   0.500890 0.501290 0.852040 -0.208028
O1    O     O_R   0.499990 0.319640 0.618810 -0.579671
O2    O     O_R   0.500000 0.319660 0.381240 -0.586766
O3    O     O_R   0.370250 0.499960 0.618800 -0.593864
O4    O     O_R   0.370260 0.499980 0.381230 -0.598895
O5    O     O_R   0.500000 0.680340 0.618760 -0.552958
O6    O     O_R   0.500010 0.680360 0.381190 -0.597625
O7    O     O_R   0.629740 0.500020 0.618770 -0.549693
O8    O     O_R   0.629750 0.500040 0.381200 -0.607820
H10   H     H_    0.234401 0.854163 0.756349 0.140895
H11   H     H_    0.605814 0.899472 0.371837 0.170450
N3    N     N_3   0.392281 0.316191 0.129364 -0.612963
H12   H     H_    0.353021 0.349782 0.205753 0.253121
H13   H     H_    0.432655 0.250945 0.169104 0.249126
H14   H     H_    0.621820 0.672251 0.266295 0.216642
N4    N     N_3   0.729784 0.844642 0.185481 -0.621098
H15   H     H_    0.716745 0.935996 0.162296 0.220855
H16   H     H_    0.795696 0.834427 0.159740 0.235371
H17   H     H_    0.722499 0.838622 0.914399 0.149169
N5    N     N_3   0.644707 0.700747 0.731857 -0.495607
H18   H     H_    0.712319 0.688979 0.720327 0.199742
H19   H     H_    0.637042 0.793391 0.705317 0.201952
N6    N     N_3   0.091582 0.405279 0.861571 -0.614020
H20   H     H_    0.077157 0.464934 0.942449 0.219069
H21   H     H_    0.066233 0.314863 0.886853 0.220602
H22   H     H_    0.220509 0.441448 0.703782 0.196948
N7    N     N_3   0.232739 0.602007 0.259618 -0.606312
H23   H     H_    0.259767 0.529802 0.206709 0.245593
H24   H     H_    0.282565 0.670931 0.291058 0.242310
N8    N     N_3   0.907136 0.618773 0.138917 -0.613803
H25   H     H_    0.922783 0.559700 0.058250 0.216085
H26   H     H_    0.931135 0.709745 0.113569 0.217129

loop_
_geom_bond_atom_site_label_1
_geom_bond_atom_site_label_2
_ccdc_geom_bond_type
N4    H16   S    
C33   O7    A    
N6    H20   S    
Cu1   N2    S    
C35   C36   A    
C21   H9    S    
C7    C8    A    
N7    H23   S    
C26   C27   A    
C29   C30   A    
C18   C24   A    
C28   C29   A    
C34   C35   A    
C5    C6    A    
N8    H25   S    
Cu1   O3    S    
C15   C16   A    
C18   C19   A    
C16   H10   S    
C1    O2    A    
N3    H13   S    
C10   H22   S    
C31   C32   A    
C8    C9    A    
C23   C24   S    
C6    C38   A    
N5    H18   S    
C27   H17   S    
C14   H2    S    
C2    C34   A    
Cu1   O1    S    
C30   N1    A    
C33   O8    A    
Cu2   O8    S    
C21   C22   A    
N6    H21   S    
C31   N3    S    
C34   H1    S    
N7    H24   S    
C13   N7    S    
C26   N4    S    
C23   O5    A    
C25   H14   S    
N8    H26   S    
Cu1   Cu2   S    
C16   C17   A    
C25   C26   A    
Cu1   O7    S    
C9    N8    S    
C8    H8    S    
C32   N2    A    
C37   C38   A    
C2    C38   A    
Cu1   O5    S    
Cu2   O4    S    
N3    H12   S    
C17   C18   A    
C36   H5    S    
C4    N6    S    
C22   C24   A    
C31   N1    A    
C3    C4    A    
C29   N2    A    
C25   C30   A    
C23   O6    A    
C36   C37   A    
C1    C20   S    
Cu2   O6    S    
C32   H6    S    
C14   C19   A    
C28   N5    S    
C4    C5    A    
C11   C12   S    
C6    C7    A    
C19   C20   A    
C17   H4    S    
C15   H3    S    
C5    C10   A    
C22   H11   S    
C11   C13   A    
Cu2   N1    S    
C3    H7    S    
C33   C35   S    
N4    H15   S    
C1    O1    A    
C12   O4    A    
C10   C11   A    
C7    C13   A    
C20   C21   A    
C3    C37   A    
Cu2   O2    S    
C27   C28   A    
C14   C15   A    
N5    H19   S    
C2    C9    A    
C12   O3    A    
