data_mof_unit_63823.cif
_audit_creation_date              2012-12-10T18:07:27-0500
_audit_creation_method            fapswitch 2.2
_symmetry_space_group_name_H-M    P1
_symmetry_Int_Tables_number       1
_space_group_crystal_system       tetragonal
_cell_length_a                    18.298785
_cell_length_b                    18.298785
_cell_length_c                    42.878749
_cell_angle_alpha                 90.0
_cell_angle_beta                  90.0
_cell_angle_gamma                 90.0
_cell_volume                      14357.7575408

loop_
_atom_site_label
_atom_site_type_symbol
_atom_type_description
_atom_site_fract_x
_atom_site_fract_y
_atom_site_fract_z
_atom_type_partial_charge
C1    C     C_R   0.433849 0.000588 0.114723 -0.213234
C2    C     C_R   0.066160 0.499145 0.385237 -0.225708
C3    C     C_R   0.270971 0.783383 0.721822 0.113562
C4    C     C_R   0.217598 0.271833 0.278677 0.103503
C5    C     C_R   0.783383 0.729029 0.721822 0.113562
C6    C     C_R   0.271833 0.782402 0.278677 0.103503
C7    C     C_R   0.729029 0.216617 0.721822 0.113562
C8    C     C_R   0.196928 0.695576 0.250299 -0.151154
C9    C     C_R   0.803769 0.303905 0.750206 -0.159285
C10   C     C_R   0.304424 0.196928 0.250299 -0.151154
C11   C     C_R   0.696095 0.803769 0.750206 -0.159285
C12   C     C_R   0.803072 0.304424 0.250299 -0.151155
C13   C     C_R   0.499412 0.933849 0.614723 -0.213234
C14   C     C_R   0.196231 0.696095 0.750206 -0.159285
C15   C     C_R   0.695576 0.803072 0.250299 -0.151155
C16   C     C_R   0.303905 0.196231 0.750206 -0.159285
C17   C     C_R   0.195575 0.303072 0.750299 -0.151155
C18   C     C_R   0.803905 0.696231 0.250206 -0.159285
C19   C     C_R   0.303072 0.804424 0.750299 -0.151155
C20   C     C_R   0.696231 0.196095 0.250206 -0.159285
C21   C     C_R   0.804424 0.696928 0.750299 -0.151155
C22   C     C_R   0.196095 0.303769 0.250206 -0.159285
C23   C     C_R   0.696928 0.195575 0.750299 -0.151155
C24   C     C_R   0.500855 0.066160 0.385237 -0.225708
C25   C     C_R   0.303769 0.803905 0.250206 -0.159285
C26   C     C_R   0.500000 0.000000 0.065654 -0.038771
C27   C     C_R   0.500000 0.000000 0.934300 -0.034996
C28   C     C_R   0.000000 0.500000 0.065654 -0.038771
C29   C     C_R   0.000000 0.500000 0.934300 -0.034996
C30   C     C_R   1.000000 0.500000 0.565654 -0.038771
C31   C     C_R   0.000000 0.500000 0.434300 -0.034996
C32   C     C_R   0.500000 0.000000 0.565654 -0.038771
C33   C     C_R   0.500000 1.000000 0.434300 -0.034996
C34   C     C_3   0.391593 0.764601 0.188479 -0.757552
C35   C     C_R   0.066151 0.499412 0.614723 -0.213234
C36   C     C_3   0.711763 0.148783 0.824634 -0.671321
C37   C     C_3   0.235399 0.391594 0.188479 -0.757552
C38   C     C_3   0.851217 0.711763 0.824634 -0.671321
C39   C     C_3   0.608407 0.235399 0.188479 -0.757552
C40   C     C_3   0.288237 0.851217 0.824634 -0.671320
C41   C     C_3   0.764601 0.608407 0.188479 -0.757550
C42   C     C_3   0.148783 0.288237 0.824634 -0.671322
C43   C     C_3   0.282166 0.157436 0.827027 -0.681819
C44   C     C_3   0.612259 0.753972 0.187900 -0.763883
C45   C     C_3   0.157436 0.717834 0.827027 -0.681820
C46   C     C_R   0.933840 0.500855 0.385237 -0.225708
C47   C     C_3   0.753972 0.387741 0.187900 -0.763884
C48   C     C_3   0.717834 0.842564 0.827027 -0.681820
C49   C     C_3   0.387741 0.246028 0.187900 -0.763885
C50   C     C_3   0.842564 0.282166 0.827027 -0.681818
C51   C     C_3   0.246028 0.612259 0.187900 -0.763883
C52   C     C_3   0.891593 0.264601 0.688479 -0.757551
C53   C     C_3   0.211763 0.648783 0.324634 -0.671321
C54   C     C_3   0.735399 0.891593 0.688479 -0.757550
C55   C     C_3   0.351217 0.211763 0.324634 -0.671320
C56   C     C_3   0.108407 0.735399 0.688479 -0.757552
C57   C     C_R   0.500588 0.066151 0.614723 -0.213234
C58   C     C_3   0.788237 0.351217 0.324634 -0.671321
C59   C     C_3   0.264601 0.108407 0.688479 -0.757552
C60   C     C_3   0.648783 0.788237 0.324634 -0.671321
C61   C     C_3   0.782166 0.657436 0.327027 -0.681820
C62   C     C_3   0.112259 0.253972 0.687900 -0.763882
C63   C     C_3   0.657436 0.217834 0.327027 -0.681819
C64   C     C_3   0.253972 0.887741 0.687900 -0.763883
C65   C     C_3   0.217834 0.342564 0.327027 -0.681817
C66   C     C_3   0.887741 0.746028 0.687900 -0.763883
C67   C     C_3   0.342564 0.782166 0.327027 -0.681820
C68   C     C_R   0.499145 0.933840 0.385237 -0.225708
C69   C     C_3   0.746028 0.112259 0.687900 -0.763883
C70   C     C_R   0.433437 0.000598 0.082176 0.156287
C71   C     C_R   0.566568 0.999149 0.917779 0.160943
C72   C     C_R   0.999402 0.433437 0.082176 0.156287
C73   C     C_R   0.566160 0.999145 0.885237 -0.225708
C74   C     C_R   0.000851 0.566568 0.917779 0.160943
C75   C     C_R   0.566562 0.999402 0.082176 0.156287
C76   C     C_R   0.433432 0.000851 0.917779 0.160943
C77   C     C_R   0.000598 0.566562 0.082176 0.156287
C78   C     C_R   0.999149 0.433432 0.917779 0.160943
C79   C     C_R   0.933437 0.500598 0.582176 0.156287
C80   C     C_R   0.066568 0.499149 0.417779 0.160943
C81   C     C_R   0.499402 0.933437 0.582176 0.156287
C82   C     C_R   0.500851 0.066568 0.417779 0.160943
C83   C     C_R   0.066562 0.499402 0.582176 0.156287
C84   C     C_R   0.999412 0.433849 0.114723 -0.213234
C85   C     C_R   0.933432 0.500851 0.417779 0.160943
C86   C     C_R   0.500598 0.066562 0.582176 0.156287
C87   C     C_R   0.499149 0.933432 0.417779 0.160943
C88   C     C_R   0.500000 0.000000 0.131252 -0.088699
C89   C     C_R   0.500000 0.000000 0.868720 -0.074446
C90   C     C_R   0.000000 0.500000 0.131252 -0.088699
C91   C     C_R   0.000000 0.500000 0.868720 -0.074446
C92   C     C_R   1.000000 0.500000 0.631252 -0.088699
C93   C     C_R   1.000000 0.500000 0.368720 -0.074446
C94   C     C_R   0.500000 0.000000 0.631252 -0.088699
C95   C     C_R   0.000855 0.566160 0.885237 -0.225708
C96   C     C_R   0.500000 0.000000 0.368720 -0.074446
C97   C     C_R   1.000000 0.500000 0.468450 0.344186
C98   C     C_R   1.000000 0.500000 0.531500 0.344141
C99   C     C_R   0.500000 1.000000 0.468450 0.344186
C100  C     C_R   0.500000 0.000000 0.531500 0.344140
C101  C     C_R   0.500000 0.000000 0.968450 0.344186
C102  C     C_R   0.500000 0.000000 0.031499 0.344141
C103  C     C_R   0.000000 0.500000 0.968450 0.344187
C104  C     C_R   0.000000 0.500000 0.031499 0.344141
C105  C     C_R   0.500000 0.000000 0.334370 0.816271
C106  C     C_R   0.566151 0.999412 0.114723 -0.213234
C107  C     C_R   0.500000 0.000000 0.665620 0.814508
C108  C     C_R   0.000000 0.500000 0.334370 0.816271
C109  C     C_R   1.000000 0.500000 0.665620 0.814508
C110  C     C_R   0.000000 0.500000 0.834370 0.816271
C111  C     C_R   0.000000 0.500000 0.165620 0.814508
C112  C     C_R   0.500000 0.000000 0.834370 0.816271
C113  C     C_R   0.500000 0.000000 0.165620 0.814508
C114  C     C_R   0.359672 0.139839 0.250262 0.892979
C115  C     C_R   0.639854 0.859766 0.750134 0.862473
C116  C     C_R   0.860161 0.359672 0.250262 0.892979
C117  C     C_R   0.433840 0.000855 0.885237 -0.225708
C118  C     C_R   0.140234 0.639854 0.750134 0.862473
C119  C     C_R   0.640328 0.860161 0.250262 0.892979
C120  C     C_R   0.360146 0.140234 0.750134 0.862473
C121  C     C_R   0.139839 0.640328 0.250262 0.892979
C122  C     C_R   0.859766 0.360146 0.750134 0.862472
C123  C     C_R   0.360161 0.859672 0.750262 0.892978
C124  C     C_R   0.640234 0.139854 0.250134 0.862473
C125  C     C_R   0.859672 0.639839 0.750262 0.892979
C126  C     C_R   0.139854 0.359766 0.250134 0.862473
C127  C     C_R   0.639839 0.140328 0.750262 0.892979
C128  C     C_R   0.000588 0.566151 0.114723 -0.213235
C129  C     C_R   0.359766 0.860146 0.250134 0.862472
C130  C     C_R   0.140328 0.360161 0.750262 0.892979
C131  C     C_R   0.860146 0.640234 0.250134 0.862473
C132  C     C_R   0.283014 0.771295 0.221766 0.127679
C133  C     C_R   0.718472 0.227613 0.778740 0.127084
C134  C     C_R   0.228705 0.283014 0.221766 0.127678
C135  C     C_R   0.772387 0.718472 0.778740 0.127083
C136  C     C_R   0.716986 0.228705 0.221766 0.127678
C137  C     C_R   0.281527 0.772386 0.778740 0.127084
C138  C     C_R   0.771296 0.716986 0.221766 0.127679
C139  C     C_R   0.999145 0.433840 0.885237 -0.225707
C140  C     C_R   0.227613 0.281527 0.778740 0.127084
C141  C     C_R   0.282402 0.228167 0.778677 0.103503
C142  C     C_R   0.716617 0.770971 0.221822 0.113562
C143  C     C_R   0.228167 0.717598 0.778677 0.103503
C144  C     C_R   0.770971 0.283383 0.221822 0.113562
C145  C     C_R   0.717598 0.771833 0.778677 0.103504
C146  C     C_R   0.283383 0.229029 0.221822 0.113562
C147  C     C_R   0.771833 0.282402 0.778677 0.103503
C148  C     C_R   0.229029 0.716617 0.221822 0.113562
C149  C     C_R   0.783014 0.271296 0.721766 0.127679
C150  C     C_R   0.933849 0.500588 0.614723 -0.213234
C151  C     C_R   0.218473 0.727613 0.278740 0.127084
C152  C     C_R   0.728704 0.783014 0.721766 0.127679
C153  C     C_R   0.272386 0.218472 0.278740 0.127083
C154  C     C_R   0.216986 0.728704 0.721766 0.127679
C155  C     C_R   0.781527 0.272386 0.278740 0.127084
C156  C     C_R   0.271295 0.216986 0.721766 0.127679
C157  C     C_R   0.727613 0.781527 0.278740 0.127083
C158  C     C_R   0.782402 0.728167 0.278677 0.103504
C159  C     C_R   0.216617 0.270971 0.721822 0.113562
C160  C     C_R   0.728167 0.217598 0.278677 0.103503
H1    H     H_    0.382203 0.001442 0.127049 0.190046
H2    H     H_    0.117806 0.498062 0.372907 0.174409
H3    H     H_    0.071962 0.689605 0.681675 0.237817
H4    H     H_    0.833242 0.246792 0.320698 0.241860
H5    H     H_    0.761132 0.330788 0.346094 0.224989
H6    H     H_    0.747798 0.382962 0.310779 0.240276
H7    H     H_    0.833192 0.388387 0.331691 0.251524
H8    H     H_    0.297246 0.213030 0.673709 0.231552
H9    H     H_    0.223662 0.108921 0.669366 0.232518
H10   H     H_    0.238459 0.085709 0.709805 0.228350
H11   H     H_    0.310395 0.071962 0.681675 0.237817
H12   H     H_    0.753208 0.833242 0.320698 0.241860
H13   H     H_    0.498558 0.882203 0.627049 0.190046
H14   H     H_    0.669212 0.761132 0.346094 0.224989
H15   H     H_    0.617038 0.747798 0.310779 0.240276
H16   H     H_    0.611613 0.833192 0.331691 0.251524
H17   H     H_    0.874448 0.703388 0.305781 0.212506
H18   H     H_    0.779724 0.679224 0.351148 0.236441
H19   H     H_    0.813372 0.605378 0.327449 0.248053
H20   H     H_    0.725601 0.645636 0.318976 0.238464
H21   H     H_    0.212911 0.296278 0.674240 0.232619
H22   H     H_    0.085792 0.277106 0.666791 0.238040
H23   H     H_    0.074204 0.260869 0.707869 0.228829
H24   H     H_    0.501938 0.117806 0.372907 0.174409
H25   H     H_    0.122442 0.194850 0.684037 0.243858
H26   H     H_    0.703388 0.125552 0.305781 0.212507
H27   H     H_    0.679224 0.220276 0.351148 0.236441
H28   H     H_    0.605378 0.186628 0.327449 0.248053
H29   H     H_    0.645636 0.274398 0.318976 0.238464
H30   H     H_    0.296278 0.787089 0.674240 0.232619
H31   H     H_    0.277106 0.914208 0.666791 0.238040
H32   H     H_    0.260869 0.925796 0.707869 0.228829
H33   H     H_    0.194850 0.877558 0.684037 0.243858
H34   H     H_    0.125552 0.296611 0.305781 0.212506
H35   H     H_    0.117797 0.498558 0.627049 0.190046
H36   H     H_    0.220275 0.320775 0.351148 0.236440
H37   H     H_    0.186628 0.394622 0.327449 0.248052
H38   H     H_    0.274398 0.354363 0.318976 0.238464
H39   H     H_    0.787088 0.703721 0.674240 0.232619
H40   H     H_    0.914208 0.722894 0.666791 0.238040
H41   H     H_    0.925796 0.739131 0.707869 0.228829
H42   H     H_    0.877558 0.805150 0.684037 0.243858
H43   H     H_    0.296612 0.874448 0.305781 0.212507
H44   H     H_    0.320775 0.779724 0.351148 0.236441
H45   H     H_    0.394622 0.813372 0.327449 0.248053
H46   H     H_    0.882193 0.501938 0.372907 0.174409
H47   H     H_    0.354364 0.725601 0.318976 0.238464
H48   H     H_    0.703721 0.212911 0.674240 0.232619
H49   H     H_    0.722894 0.085792 0.666791 0.238040
H50   H     H_    0.739131 0.074204 0.707869 0.228829
H51   H     H_    0.805150 0.122442 0.684037 0.243858
H52   H     H_    0.501442 0.117797 0.627049 0.190046
H53   H     H_    0.498062 0.882193 0.372907 0.174409
H54   H     H_    0.286970 0.797246 0.173709 0.231552
H55   H     H_    0.391080 0.723662 0.169366 0.232517
H56   H     H_    0.414291 0.738459 0.209805 0.228350
H57   H     H_    0.617807 0.998062 0.872907 0.174409
H58   H     H_    0.428038 0.810395 0.181675 0.237817
H59   H     H_    0.666758 0.253208 0.820698 0.241860
H60   H     H_    0.738868 0.169212 0.846094 0.224989
H61   H     H_    0.752202 0.117038 0.810779 0.240276
H62   H     H_    0.666808 0.111613 0.831691 0.251524
H63   H     H_    0.202755 0.286970 0.173709 0.231552
H64   H     H_    0.276338 0.391080 0.169367 0.232518
H65   H     H_    0.261541 0.414292 0.209806 0.228349
H66   H     H_    0.189605 0.428038 0.181675 0.237817
H67   H     H_    0.746792 0.666758 0.820698 0.241860
H68   H     H_    0.998558 0.382203 0.127049 0.190046
H69   H     H_    0.830788 0.738868 0.846094 0.224989
H70   H     H_    0.882962 0.752202 0.810779 0.240276
H71   H     H_    0.888387 0.666808 0.831691 0.251524
H72   H     H_    0.713030 0.202754 0.173709 0.231552
H73   H     H_    0.608920 0.276338 0.169366 0.232518
H74   H     H_    0.585708 0.261541 0.209805 0.228349
H75   H     H_    0.571962 0.189605 0.181675 0.237817
H76   H     H_    0.333242 0.746792 0.820698 0.241860
H77   H     H_    0.261132 0.830788 0.846094 0.224989
H78   H     H_    0.247798 0.882962 0.810779 0.240276
H79   H     H_    0.001938 0.617807 0.872907 0.174409
H80   H     H_    0.333192 0.888387 0.831691 0.251523
H81   H     H_    0.797246 0.713030 0.173709 0.231552
H82   H     H_    0.723662 0.608921 0.169366 0.232517
H83   H     H_    0.738459 0.585709 0.209805 0.228349
H84   H     H_    0.810395 0.571962 0.181675 0.237817
H85   H     H_    0.253208 0.333242 0.820698 0.241860
H86   H     H_    0.169212 0.261132 0.846094 0.224989
H87   H     H_    0.117038 0.247798 0.810779 0.240277
H88   H     H_    0.111613 0.333192 0.831691 0.251524
H89   H     H_    0.374448 0.203388 0.805781 0.212507
H90   H     H_    0.617797 0.998558 0.127049 0.190046
H91   H     H_    0.279724 0.179224 0.851148 0.236441
H92   H     H_    0.313372 0.105378 0.827449 0.248052
H93   H     H_    0.225601 0.145636 0.818976 0.238464
H94   H     H_    0.712911 0.796279 0.174240 0.232619
H95   H     H_    0.585792 0.777106 0.166791 0.238040
H96   H     H_    0.574204 0.760869 0.207869 0.228829
H97   H     H_    0.622442 0.694850 0.184037 0.243858
H98   H     H_    0.203388 0.625552 0.805781 0.212506
H99   H     H_    0.179224 0.720276 0.851148 0.236441
H100  H     H_    0.105378 0.686628 0.827449 0.248053
H101  H     H_    0.382193 0.001938 0.872907 0.174409
H102  H     H_    0.145636 0.774398 0.818976 0.238464
H103  H     H_    0.796279 0.287089 0.174240 0.232619
H104  H     H_    0.777106 0.414208 0.166791 0.238040
H105  H     H_    0.760869 0.425796 0.207869 0.228829
H106  H     H_    0.694850 0.377558 0.184037 0.243858
H107  H     H_    0.625552 0.796612 0.805781 0.212506
H108  H     H_    0.720276 0.820775 0.851148 0.236441
H109  H     H_    0.686628 0.894622 0.827449 0.248052
H110  H     H_    0.774399 0.854364 0.818976 0.238464
H111  H     H_    0.287089 0.203721 0.174240 0.232619
H112  H     H_    0.001442 0.617797 0.127049 0.190046
H113  H     H_    0.414209 0.222894 0.166791 0.238040
H114  H     H_    0.425796 0.239131 0.207869 0.228830
H115  H     H_    0.377558 0.305150 0.184037 0.243859
H116  H     H_    0.796612 0.374448 0.805781 0.212506
H117  H     H_    0.820776 0.279724 0.851148 0.236441
H118  H     H_    0.894622 0.313372 0.827449 0.248052
H119  H     H_    0.854364 0.225601 0.818976 0.238464
H120  H     H_    0.203721 0.712911 0.174240 0.232619
H121  H     H_    0.222894 0.585792 0.166791 0.238040
H122  H     H_    0.239131 0.574204 0.207869 0.228829
H123  H     H_    0.998062 0.382193 0.872907 0.174409
H124  H     H_    0.305150 0.622442 0.184037 0.243858
H125  H     H_    0.786970 0.297246 0.673709 0.231552
H126  H     H_    0.891079 0.223662 0.669366 0.232517
H127  H     H_    0.914291 0.238459 0.709805 0.228350
H128  H     H_    0.928038 0.310395 0.681675 0.237817
H129  H     H_    0.166758 0.753208 0.320698 0.241860
H130  H     H_    0.238868 0.669212 0.346094 0.224989
H131  H     H_    0.252202 0.617038 0.310779 0.240276
H132  H     H_    0.166808 0.611613 0.331691 0.251524
H133  H     H_    0.702754 0.786970 0.673709 0.231552
H134  H     H_    0.882203 0.501442 0.627049 0.190046
H135  H     H_    0.776338 0.891079 0.669366 0.232517
H136  H     H_    0.761541 0.914291 0.709805 0.228349
H137  H     H_    0.689605 0.928038 0.681675 0.237817
H138  H     H_    0.246792 0.166758 0.320698 0.241860
H139  H     H_    0.330788 0.238868 0.346094 0.224989
H140  H     H_    0.382962 0.252202 0.310779 0.240276
H141  H     H_    0.388387 0.166808 0.331691 0.251523
H142  H     H_    0.213030 0.702754 0.673709 0.231552
H143  H     H_    0.108920 0.776338 0.669366 0.232518
H144  H     H_    0.085708 0.761541 0.709805 0.228349
I1    I     I_    0.330186 0.005227 0.059604 -0.255371
I2    I     I_    0.169822 0.494174 0.440326 -0.274287
I3    I     I_    0.494773 0.830186 0.559604 -0.255371
I4    I     I_    0.505826 0.169822 0.440326 -0.274287
I5    I     I_    0.169814 0.494773 0.559604 -0.255371
I6    I     I_    0.830178 0.505826 0.440326 -0.274286
I7    I     I_    0.505227 0.169814 0.559604 -0.255371
I8    I     I_    0.494174 0.830178 0.440326 -0.274286
I9    I     I_    0.669822 0.994174 0.940326 -0.274287
I10   I     I_    0.994773 0.330186 0.059604 -0.255371
I11   I     I_    0.005826 0.669822 0.940326 -0.274286
I12   I     I_    0.669814 0.994773 0.059604 -0.255371
I13   I     I_    0.330178 0.005826 0.940326 -0.274286
I14   I     I_    0.005227 0.669814 0.059604 -0.255371
I15   I     I_    0.994174 0.330178 0.940326 -0.274286
I16   I     I_    0.830186 0.505227 0.559604 -0.255371
N1    N     N_R   0.530686 0.056086 0.015491 -0.120571
N2    N     N_R   0.969310 0.443916 0.484458 -0.120245
N3    N     N_R   0.443914 0.030686 0.515491 -0.120570
N4    N     N_R   0.556084 0.969310 0.484458 -0.120245
N5    N     N_R   0.969314 0.443914 0.515491 -0.120570
N6    N     N_R   0.030690 0.556084 0.484458 -0.120245
N7    N     N_R   0.556086 0.969313 0.515491 -0.120570
N8    N     N_R   0.443916 0.030690 0.484458 -0.120245
N9    N     N_2   0.318430 0.792532 0.193507 -0.280294
N10   N     N_2   0.681561 0.209286 0.807005 -0.304959
N11   N     N_2   0.207468 0.318430 0.193507 -0.280294
N12   N     N_R   0.469310 0.943916 0.984458 -0.120245
N13   N     N_2   0.790714 0.681561 0.807005 -0.304959
N14   N     N_2   0.681570 0.207467 0.193507 -0.280294
N15   N     N_2   0.318439 0.790714 0.807005 -0.304959
N16   N     N_2   0.792532 0.681570 0.193507 -0.280293
N17   N     N_2   0.209286 0.318439 0.807005 -0.304959
N18   N     N_2   0.318580 0.210146 0.807150 -0.304458
N19   N     N_2   0.680356 0.791764 0.193717 -0.280458
N20   N     N_2   0.210147 0.681419 0.807150 -0.304458
N21   N     N_2   0.791764 0.319644 0.193717 -0.280458
N22   N     N_2   0.681419 0.789853 0.807150 -0.304458
N23   N     N_R   0.943914 0.530686 0.015491 -0.120570
N24   N     N_2   0.319644 0.208236 0.193717 -0.280458
N25   N     N_2   0.789853 0.318580 0.807150 -0.304458
N26   N     N_2   0.208236 0.680356 0.193717 -0.280458
N27   N     N_2   0.818430 0.292532 0.693507 -0.280294
N28   N     N_2   0.181560 0.709286 0.307005 -0.304960
N29   N     N_2   0.707467 0.818430 0.693507 -0.280294
N30   N     N_2   0.290714 0.181560 0.307005 -0.304960
N31   N     N_2   0.181570 0.707468 0.693507 -0.280294
N32   N     N_2   0.818439 0.290714 0.307005 -0.304960
N33   N     N_2   0.292532 0.181570 0.693507 -0.280294
N34   N     N_R   0.056084 0.469309 0.984458 -0.120245
N35   N     N_2   0.709286 0.818439 0.307005 -0.304960
N36   N     N_2   0.818580 0.710146 0.307150 -0.304458
N37   N     N_2   0.180356 0.291764 0.693717 -0.280458
N38   N     N_2   0.710146 0.181419 0.307150 -0.304458
N39   N     N_2   0.291764 0.819644 0.693717 -0.280458
N40   N     N_2   0.181419 0.289853 0.307150 -0.304458
N41   N     N_2   0.819644 0.708236 0.693717 -0.280458
N42   N     N_2   0.289853 0.818581 0.307150 -0.304458
N43   N     N_2   0.708236 0.180356 0.693717 -0.280458
N44   N     N_R   0.469314 0.943914 0.015491 -0.120570
N45   N     N_R   0.530690 0.056084 0.984458 -0.120245
N46   N     N_R   0.056086 0.469313 0.015491 -0.120571
N47   N     N_R   0.943916 0.530690 0.984458 -0.120245
N48   N     N_R   0.030686 0.556086 0.515491 -0.120571
O1    O     O_3   0.500000 0.000000 0.250000 -0.486685
O2    O     O_R   0.500000 0.939250 0.680570 -0.635998
O3    O     O_R   0.939250 0.500000 0.319430 -0.660117
O4    O     O_R   0.060750 0.500000 0.680570 -0.635998
O5    O     O_R   1.000000 0.439250 0.819430 -0.660117
O6    O     O_R   1.000000 0.560750 0.180570 -0.635998
O7    O     O_R   0.560750 0.000000 0.819430 -0.660118
O8    O     O_R   0.439250 0.000000 0.180570 -0.635997
O9    O     O_R   0.000000 0.560750 0.819430 -0.660118
O10   O     O_R   1.000000 0.439250 0.180570 -0.635997
O11   O     O_R   0.439250 0.000000 0.819430 -0.660117
O12   O     O_3   0.500000 0.000000 0.750000 -0.486685
O13   O     O_R   0.560750 0.000000 0.180570 -0.635998
O14   O     O_R   0.414500 0.146140 0.268270 -0.643158
O15   O     O_R   0.585500 0.853860 0.731730 -0.623000
O16   O     O_R   0.853860 0.414500 0.268270 -0.643158
O17   O     O_R   0.146140 0.585500 0.731730 -0.623000
O18   O     O_R   0.585500 0.853860 0.268270 -0.643158
O19   O     O_R   0.414500 0.146140 0.731730 -0.623000
O20   O     O_R   0.146140 0.585500 0.268270 -0.643158
O21   O     O_R   0.853860 0.414500 0.731730 -0.623000
O22   O     O_R   0.414500 0.853860 0.731730 -0.626348
O23   O     O_3   0.000000 0.500000 0.250000 -0.486685
O24   O     O_R   0.585500 0.146140 0.268270 -0.648908
O25   O     O_R   0.853860 0.585500 0.731730 -0.626348
O26   O     O_R   0.146140 0.414500 0.268270 -0.648908
O27   O     O_R   0.585500 0.146140 0.731730 -0.626349
O28   O     O_R   0.414500 0.853860 0.268270 -0.648908
O29   O     O_R   0.146140 0.414500 0.731730 -0.626348
O30   O     O_R   0.853860 0.585500 0.268270 -0.648908
O31   O     O_R   0.914500 0.646140 0.768270 -0.643158
O32   O     O_R   0.085500 0.353860 0.231730 -0.623000
O33   O     O_R   0.353860 0.914500 0.768270 -0.643158
O34   O     O_3   0.000000 0.500000 0.750000 -0.486685
O35   O     O_R   0.646140 0.085500 0.231730 -0.623000
O36   O     O_R   0.085500 0.353860 0.768270 -0.643158
O37   O     O_R   0.914500 0.646140 0.231730 -0.623000
O38   O     O_R   0.646140 0.085500 0.768270 -0.643158
O39   O     O_R   0.353860 0.914500 0.231730 -0.623000
O40   O     O_R   0.914500 0.353860 0.231730 -0.626348
O41   O     O_R   0.085500 0.646140 0.768270 -0.648908
O42   O     O_R   0.353860 0.085500 0.231730 -0.626349
O43   O     O_R   0.646140 0.914500 0.768270 -0.648908
O44   O     O_R   0.085500 0.646140 0.231730 -0.626349
O45   O     O_R   0.500000 0.939250 0.319430 -0.660117
O46   O     O_R   0.914500 0.353860 0.768270 -0.648908
O47   O     O_R   0.646140 0.914500 0.231730 -0.626348
O48   O     O_R   0.353860 0.085500 0.768270 -0.648908
O49   O     O_R   0.500000 0.060750 0.680570 -0.635998
O50   O     O_R   0.060750 0.500000 0.319430 -0.660118
O51   O     O_R   0.939250 0.500000 0.680570 -0.635997
O52   O     O_R   0.500000 0.060750 0.319430 -0.660118
Zn1   Zn    Zn3+2 0.413200 0.000000 0.224130 0.986383
Zn2   Zn    Zn3+2 0.086800 0.500000 0.275870 0.941332
Zn3   Zn    Zn3+2 0.500000 0.913200 0.724130 0.986383
Zn4   Zn    Zn3+2 0.500000 0.086800 0.275870 0.941332
Zn5   Zn    Zn3+2 0.086800 0.500000 0.724130 0.986383
Zn6   Zn    Zn3+2 0.913200 0.500000 0.275870 0.941332
Zn7   Zn    Zn3+2 0.500000 0.086800 0.724130 0.986383
Zn8   Zn    Zn3+2 0.500000 0.913200 0.275870 0.941332
Zn9   Zn    Zn3+2 0.586800 0.000000 0.775870 0.941332
Zn10  Zn    Zn3+2 0.000000 0.413200 0.224130 0.986383
Zn11  Zn    Zn3+2 0.000000 0.586800 0.775870 0.941332
Zn12  Zn    Zn3+2 0.586800 0.000000 0.224130 0.986383
Zn13  Zn    Zn3+2 0.413200 0.000000 0.775870 0.941332
Zn14  Zn    Zn3+2 0.000000 0.586800 0.224130 0.986383
Zn15  Zn    Zn3+2 0.000000 0.413200 0.775870 0.941332
Zn16  Zn    Zn3+2 0.913200 0.500000 0.724130 0.986383

loop_
_geom_bond_atom_site_label_1
_geom_bond_atom_site_label_2
_ccdc_geom_bond_type
C157  C158  A    
C24   H24   S    
C60   H14   S    
C50   N25   S    
H98   N20   S    
C52   H127  S    
C40   N15   S    
H17   N36   S    
C13   H13   S    
C32   C81   A    
C50   H117  S    
C9    C149  A    
C36   N10   S    
O17   Zn5   S    
O14   Zn4   S    
C34   H55   S    
C24   C96   A    
C48   N22   S    
C92   C109  S    
N2    N5    A    
C66   N41   S    
H8    N33   S    
C58   H5    S    
C62   H23   S    
C66   H41   S    
C99   N4    A    
H142  N31   S    
O18   Zn8   S    
C156  N33   S    
C67   N42   S    
C3    C19   A    
C69   H51   S    
C11   C115  S    
C67   H45   S    
O40   Zn10  S    
C43   H93   S    
C4    C153  A    
C49   H113  S    
C134  N11   S    
N12   N44   A    
C59   H11   S    
C159  N37   S    
C64   H32   S    
O8    Zn1   S    
C134  C146  A    
C41   H84   S    
C150  H134  S    
H81   N16   S    
C158  N36   S    
C31   C80   A    
C140  C141  A    
C39   H73   S    
C44   H96   S    
O12   Zn9   S    
O24   Zn4   S    
O46   Zn15  S    
C102  N1    A    
C15   C142  A    
C28   C104  S    
C60   N35   S    
C32   C86   A    
C41   N16   S    
C95   H79   S    
C68   H53   S    
C72   C84   A    
C142  N19   S    
C71   I9    S    
C6    C151  A    
C47   N21   S    
C37   H66   S    
C129  O39   A    
C60   H16   S    
C27   C71   A    
C58   N32   S    
C54   N29   S    
H138  N30   S    
C105  O45   A    
C107  O49   A    
C102  N44   A    
C38   H71   S    
C29   C74   A    
C1    C70   A    
C13   C94   A    
C106  H90   S    
C26   C102  S    
C49   N24   S    
C132  N9    S    
C127  O27   A    
N4    N7    A    
C77   I14   S    
C27   C101  S    
O4    Zn5   S    
C7    N43   S    
C144  N21   S    
C8    C121  S    
C124  O24   A    
C130  O36   A    
C6    C25   A    
C43   H91   S    
C5    C21   A    
C49   H115  S    
C112  O11   A    
C20   C160  A    
C100  N3    A    
O33   Zn13  S    
C45   H100  S    
O22   Zn3   S    
C121  O20   A    
C59   H9    S    
C21   C135  A    
C66   H40   S    
C54   H136  S    
C107  O2    A    
O16   Zn6   S    
C143  N20   S    
C31   C85   A    
O31   Zn11  S    
C78   C139  A    
C2    H2    S    
C53   N28   S    
O12   Zn7   S    
H54   N9    S    
C19   C123  S    
C131  O30   A    
O20   Zn2   S    
C140  N17   S    
C16   C120  S    
O45   Zn8   S    
C52   H126  S    
C59   N33   S    
C45   N20   S    
C56   H143  S    
C120  O19   A    
C88   C113  S    
C126  O26   A    
C40   H78   S    
C112  O7    A    
C133  C147  A    
C38   N13   S    
C135  N13   S    
O30   Zn6   S    
C65   H36   S    
C47   H105  S    
C48   H110  S    
O28   Zn8   S    
O34   Zn11  S    
C128  H112  S    
C84   C90   A    
C90   C111  S    
C38   H69   S    
C86   I7    S    
C94   C107  S    
H59   N10   S    
C29   C78   A    
C137  N15   S    
C43   N18   S    
C76   I13   S    
C3    C154  A    
C78   I15   S    
C32   C100  S    
H21   N37   S    
C33   C99   S    
C4    C22   A    
C19   C137  A    
C26   C75   A    
O34   Zn16  S    
O42   Zn1   S    
H89   N18   S    
C20   C136  A    
C28   C77   A    
C155  N32   S    
C10   C146  A    
C111  O6    A    
C30   C79   A    
C55   H139  S    
C89   C117  A    
C63   H27   S    
C57   C94   A    
C62   H25   S    
C127  O38   A    
C51   H124  S    
C113  O13   A    
H125  N27   S    
C119  O18   A    
C115  O15   A    
C108  O3    A    
C118  O41   A    
C82   I4    S    
C46   H46   S    
C130  O29   A    
C42   H86   S    
C17   C130  S    
O41   Zn11  S    
C146  N24   S    
C80   I2    S    
C97   N2    A    
C52   H128  S    
C55   H141  S    
C47   H104  S    
C50   H118  S    
C16   C141  A    
C33   C87   A    
C40   H80   S    
C34   H56   S    
C72   I10   S    
O9    Zn11  S    
C7    C23   A    
C97   N6    A    
O23   Zn2   S    
C15   C119  S    
C79   I16   S    
H39   N41   S    
O7    Zn9   S    
C58   H6    S    
C20   C124  S    
C91   C95   A    
C65   H38   S    
C66   H42   S    
O15   Zn3   S    
C109  O51   A    
O32   Zn10  S    
O51   Zn16  S    
C68   C87   A    
C69   H50   S    
C25   C132  A    
C108  O50   A    
C36   H61   S    
C104  N23   A    
C12   C116  S    
C101  N12   A    
C96   C105  S    
C122  O21   A    
O1    Zn4   S    
O2    Zn3   S    
C28   C72   A    
C152  N29   S    
C89   C112  S    
O19   Zn7   S    
C68   C96   A    
C41   H83   S    
C91   C110  S    
H94   N19   S    
C93   C108  S    
C131  O37   A    
H107  N22   S    
C100  N7    A    
C13   C81   A    
C116  O40   A    
O23   Zn6   S    
C3    N39   S    
C30   C83   A    
C18   C138  A    
C151  N28   S    
C115  O43   A    
O44   Zn14  S    
H63   N11   S    
C135  C145  A    
C16   C156  A    
C51   H122  S    
O27   Zn7   S    
H72   N14   S    
C33   C82   A    
C10   C114  S    
C35   H35   S    
C46   C85   A    
C117  H101  S    
C35   C92   A    
C1    C88   A    
C37   H65   S    
C1    H1    S    
C61   H18   S    
C118  O17   A    
C18   C131  S    
C8    C148  A    
C129  O28   A    
O3    Zn6   S    
C141  N18   S    
C10   C153  A    
O1    Zn8   S    
C156  C159  A    
C6    N42   S    
C34   N9    S    
O52   Zn4   S    
O23   Zn14  S    
C119  O47   A    
C74   I11   S    
C116  O16   A    
H129  N28   S    
C120  O48   A    
C35   C83   A    
O35   Zn12  S    
C52   N27   S    
C65   N40   S    
O10   Zn10  S    
C64   N39   S    
C70   I1    S    
H26   N38   S    
C62   H22   S    
C44   N19   S    
C42   H88   S    
O29   Zn5   S    
C9    C122  S    
C69   N43   S    
H133  N29   S    
C153  N30   S    
C5    N41   S    
O12   Zn13  S    
N6    N48   A    
C79   C150  A    
C91   C139  A    
C49   H114  S    
O36   Zn15  S    
O47   Zn12  S    
C51   N26   S    
C92   C150  A    
C26   C70   A    
C21   C125  S    
C27   C76   A    
H34   N40   S    
C64   H31   S    
C23   C127  S    
C87   I8    S    
C30   C98   S    
C14   C143  A    
C148  N26   S    
C123  O33   A    
H120  N26   S    
C39   H74   S    
C34   H58   S    
C44   H95   S    
C147  N25   S    
H116  N25   S    
H4    N32   S    
C76   C117  A    
C62   N37   S    
H85   N17   S    
C37   N11   S    
C73   C89   A    
C136  C144  A    
O39   Zn1   S    
C111  O10   A    
C42   N17   S    
C56   H144  S    
H76   N15   S    
C31   C97   S    
C124  O35   A    
C53   H130  S    
C123  O22   A    
O49   Zn7   S    
O38   Zn9   S    
C83   I5    S    
C75   C106  A    
H30   N39   S    
O34   Zn5   S    
C60   H15   S    
C55   N30   S    
O5    Zn15  S    
H111  N24   S    
C99   N8    A    
C85   I6    S    
N34   N46   A    
C113  O8    A    
O11   Zn13  S    
C25   C129  S    
C36   H60   S    
C122  O46   A    
C105  O52   A    
C38   H70   S    
C46   C93   A    
C56   H3    S    
C5    C152  A    
C22   C134  A    
C18   C158  A    
C15   C157  A    
O1    Zn1   S    
C22   C126  S    
C61   N36   S    
N23   N47   A    
C48   H108  S    
C57   C86   A    
C29   C103  S    
H43   N42   S    
N3    N8    A    
C24   C82   A    
C67   H44   S    
C44   H97   S    
O50   Zn2   S    
C43   H92   S    
C53   H131  S    
C14   C118  S    
C59   H10   S    
C75   I12   S    
C54   H135  S    
C137  C143  A    
C57   H52   S    
C7    C149  A    
C104  N46   A    
H48   N43   S    
C125  O31   A    
C17   C159  A    
C61   H20   S    
C4    N40   S    
C126  O32   A    
C45   H99   S    
H12   N35   S    
C138  C142  A    
C42   H87   S    
C23   C133  A    
C132  C148  A    
O23   Zn10  S    
C8    C151  A    
C2    C80   A    
C133  N10   S    
C11   C145  A    
C98   N5    A    
C63   H29   S    
C50   H119  S    
C114  O42   A    
C12   C144  A    
C56   N31   S    
C53   H132  S    
C40   H77   S    
C121  O44   A    
O12   Zn3   S    
C88   C106  A    
C55   H140  S    
C64   H33   S    
C73   H57   S    
C136  N14   S    
C58   H7    S    
C54   H137  S    
N1    N45   A    
C77   C128  A    
O1    Zn12  S    
C65   H37   S    
O6    Zn14  S    
C47   H106  S    
H67   N13   S    
C48   H109  S    
C149  N27   S    
C114  O14   A    
C69   H49   S    
C157  N35   S    
C12   C155  A    
C101  N45   A    
C84   H68   S    
C36   H62   S    
C67   H47   S    
C103  N47   A    
C138  N16   S    
C109  O4    A    
C155  C160  A    
C74   C95   A    
C2    C93   A    
C37   H64   S    
O21   Zn16  S    
C61   H19   S    
C139  H123  S    
C41   H82   S    
O26   Zn2   S    
C110  O9    A    
C103  N34   A    
C39   H75   S    
O43   Zn9   S    
C45   H102  S    
H103  N21   S    
O25   Zn16  S    
C9    C147  A    
C63   N38   S    
C110  O5    A    
O37   Zn14  S    
O34   Zn15  S    
C17   C140  A    
C81   I3    S    
C160  N38   S    
O48   Zn13  S    
C98   N48   A    
C39   N14   S    
C11   C152  A    
C63   H28   S    
C71   C73   A    
C154  N31   S    
C90   C128  A    
C51   H121  S    
C125  O25   A    
O13   Zn12  S    
C14   C154  A    
C145  N22   S    
