data_mof_unit_36190.cif
_audit_creation_date              2012-12-11T14:41:04-0500
_audit_creation_method            fapswitch 2.2
_symmetry_space_group_name_H-M    P1
_symmetry_Int_Tables_number       1
_space_group_crystal_system       triclinic
_cell_length_a                    6.940704
_cell_length_b                    17.814869
_cell_length_c                    18.945588
_cell_angle_alpha                 89.999533
_cell_angle_beta                  90.001128
_cell_angle_gamma                 90.003972
_cell_volume                      2342.57899144

loop_
_atom_site_label
_atom_site_type_symbol
_atom_type_description
_atom_site_fract_x
_atom_site_fract_y
_atom_site_fract_z
_atom_type_partial_charge
O1    O     O_R   0.377350 0.828520 0.186660 -0.538421
O2    O     O_R   0.622650 0.171480 0.813340 -0.538421
O3    O     O_R   0.122650 0.171480 0.686660 -0.538427
O4    O     O_R   0.877350 0.828520 0.313340 -0.538427
O5    O     O_R   0.877350 0.671480 0.313340 -0.538424
O6    O     O_R   0.122650 0.328520 0.686660 -0.538424
O7    O     O_R   0.622650 0.328520 0.813340 -0.538424
O8    O     O_R   0.377350 0.671480 0.186660 -0.538424
O9    O     O_R   0.707090 0.671930 0.178410 -0.541974
O10   O     O_R   0.292910 0.328070 0.821590 -0.541974
O11   O     O_R   0.792910 0.328070 0.678410 -0.541977
O12   O     O_R   0.207090 0.671930 0.321590 -0.541977
O13   O     O_R   0.207090 0.828070 0.321590 -0.542000
O14   O     O_R   0.792910 0.171930 0.678410 -0.542000
O15   O     O_R   0.292910 0.171930 0.821590 -0.541986
O16   O     O_R   0.707090 0.828070 0.178410 -0.541986
C1    C     C_R   0.540007 0.645673 0.161350 0.701197
C2    C     C_R   0.459993 0.354327 0.838650 0.701197
C3    C     C_R   0.959990 0.354327 0.661350 0.701209
C4    C     C_R   0.040010 0.645673 0.338650 0.701209
C5    C     C_R   0.040022 0.854325 0.338653 0.701205
C6    C     C_R   0.959978 0.145675 0.661347 0.701205
C7    C     C_R   0.459983 0.145674 0.838651 0.701200
C8    C     C_R   0.540017 0.854326 0.161349 0.701200
O17   O     O_3   0.543850 0.750000 0.294270 -0.368177
O18   O     O_3   0.456150 0.250000 0.705730 -0.368177
O19   O     O_3   0.956150 0.250000 0.794270 -0.368168
O20   O     O_3   0.043850 0.750000 0.205730 -0.368168
V1    V     V_3+5 0.818700 0.750000 0.241790 1.400354
V2    V     V_3+5 0.181300 0.250000 0.758210 1.400354
V3    V     V_3+5 0.681300 0.250000 0.741790 1.400345
V4    V     V_3+5 0.318700 0.750000 0.258210 1.400345
C9    C     C_R   0.955543 0.415357 0.607467 -0.069656
C10   C     C_R   0.044457 0.584643 0.392533 -0.069655
C11   C     C_R   0.544445 0.584641 0.107470 -0.069652
C12   C     C_R   0.455555 0.415359 0.892530 -0.069652
C13   C     C_R   0.455523 0.084648 0.892538 -0.069651
C14   C     C_R   0.544477 0.915352 0.107462 -0.069651
C15   C     C_R   0.044510 0.915341 0.392550 -0.069665
C16   C     C_R   0.955490 0.084659 0.607449 -0.069665
C17   C     C_R   0.235107 0.489873 0.455026 -0.199920
C18   C     C_R   0.764893 0.510127 0.544973 -0.199920
C19   C     C_R   0.264930 0.510151 0.955001 -0.199900
C20   C     C_R   0.735070 0.489849 0.044999 -0.199900
C21   C     C_R   0.735158 0.010103 0.044944 -0.199947
C22   C     C_R   0.264842 0.989897 0.955056 -0.199947
C23   C     C_R   0.764728 0.989996 0.544857 -0.200048
C24   C     C_R   0.235272 0.010004 0.455143 -0.200048
C25   C     C_R   0.214445 0.541843 0.400327 -0.161225
C26   C     C_R   0.785555 0.458157 0.599673 -0.161225
C27   C     C_R   0.285592 0.458177 0.900305 -0.161225
C28   C     C_R   0.714408 0.541823 0.099695 -0.161225
C29   C     C_R   0.714499 0.958135 0.099646 -0.161226
C30   C     C_R   0.285501 0.041865 0.900354 -0.161226
C31   C     C_R   0.785386 0.041950 0.599568 -0.161226
C32   C     C_R   0.214614 0.958050 0.400432 -0.161226
C33   C     C_R   0.892678 0.572796 0.440331 -0.240958
C34   C     C_R   0.107322 0.427204 0.559669 -0.240958
C35   C     C_R   0.607310 0.427191 0.940345 -0.240959
C36   C     C_R   0.392690 0.572809 0.059655 -0.240959
C37   C     C_R   0.392666 0.927215 0.059682 -0.240964
C38   C     C_R   0.607334 0.072784 0.940318 -0.240964
C39   C     C_R   0.107377 0.072731 0.559727 -0.240984
C40   C     C_R   0.892623 0.927269 0.440273 -0.240984
C41   C     C_R   0.913491 0.520785 0.496159 0.160250
C42   C     C_R   0.086509 0.479215 0.503841 0.160250
C43   C     C_R   0.586497 0.479206 0.996169 0.160238
C44   C     C_R   0.413503 0.520794 0.003831 0.160238
C45   C     C_R   0.413476 0.979224 0.003852 0.160263
C46   C     C_R   0.586524 0.020776 0.996148 0.160263
C47   C     C_R   0.086563 0.020738 0.503885 0.160321
C48   C     C_R   0.913437 0.979262 0.496115 0.160321
H1    H     H_    0.238249 0.394403 0.564423 0.123157
H2    H     H_    0.761751 0.605596 0.435577 0.123157
H3    H     H_    0.261784 0.605625 0.064394 0.123153
H4    H     H_    0.738216 0.394375 0.935606 0.123153
H5    H     H_    0.738288 0.105571 0.935547 0.123156
H6    H     H_    0.261712 0.894429 0.064453 0.123156
H7    H     H_    0.761595 0.894548 0.435447 0.123166
H8    H     H_    0.238405 0.105452 0.564553 0.123166
H9    H     H_    0.665851 0.450731 0.635698 0.128695
H10   H     H_    0.334149 0.549269 0.364302 0.128695
H11   H     H_    0.834093 0.549237 0.135732 0.128687
H12   H     H_    0.165907 0.450763 0.864267 0.128687
H13   H     H_    0.165768 0.049302 0.864344 0.128707
H14   H     H_    0.834232 0.950698 0.135656 0.128706
H15   H     H_    0.334414 0.950566 0.364469 0.128745
H16   H     H_    0.665586 0.049434 0.635531 0.128745
H17   H     H_    0.368430 0.458560 0.459489 0.122788
H18   H     H_    0.631570 0.541440 0.540511 0.122788
H19   H     H_    0.131625 0.541478 0.959449 0.122790
H20   H     H_    0.868375 0.458521 0.040551 0.122790
H21   H     H_    0.868505 0.041403 0.040466 0.122783
H22   H     H_    0.131495 0.958596 0.959534 0.122783
H23   H     H_    0.631327 0.958750 0.540331 0.122774
H24   H     H_    0.368673 0.041250 0.459669 0.122774

loop_
_geom_bond_atom_site_label_1
_geom_bond_atom_site_label_2
_ccdc_geom_bond_type
C33   H2    S    
C17   H17   S    
C9    C34   A    
C28   H11   S    
O13   V4    S    
O14   V3    S    
C12   C35   A    
C21   H21   S    
C13   C38   A    
O5    C4    A    
C15   C40   A    
O11   C3    A    
C16   C39   A    
O20   V1    S    
C38   C46   A    
C31   H16   S    
C22   C45   A    
C38   H5    S    
C35   C43   A    
C34   C42   A    
C19   C44   A    
C5    C15   S    
C18   C41   A    
C8    C14   S    
C29   H14   S    
O4    V1    S    
C20   H20   S    
O9    V1    S    
C14   C37   A    
C4    C10   S    
C20   C28   A    
O17   V4    S    
O15   C7    A    
O11   V3    S    
O18   V3    S    
O16   C8    A    
O12   V4    S    
O19   V2    S    
C22   C30   A    
C17   C25   A    
O5    V1    S    
C39   H8    S    
O17   V1    S    
O7    V3    S    
O19   V3    S    
C43   C44   A    
O8    V4    S    
O20   V4    S    
C3    C9    S    
C32   H15   S    
C9    C26   A    
C7    C13   S    
C34   H1    S    
O1    V4    S    
C19   H19   S    
O2    V3    S    
C18   H18   S    
C25   H10   S    
O3    V2    S    
O6    C3    A    
C10   C33   A    
O10   V2    S    
C15   C32   A    
C22   H22   S    
C37   H6    S    
O7    C2    A    
C6    C16   S    
O12   C4    A    
O13   C5    A    
C12   C27   A    
C18   C26   A    
C13   C30   A    
O9    C1    A    
O6    V2    S    
C39   C47   A    
O18   V2    S    
C40   H7    S    
C24   C47   A    
C11   C28   A    
O15   V2    S    
C23   C31   A    
C37   C45   A    
C24   C32   A    
C10   C25   A    
C24   H24   S    
C21   C46   A    
C33   C41   A    
C20   C43   A    
C16   C31   A    
C30   H13   S    
C17   C42   A    
C36   H3    S    
O8    C1    A    
O14   C6    A    
O16   V1    S    
C47   C48   A    
O4    C5    A    
C19   C27   A    
C14   C29   A    
O10   C2    A    
C35   H4    S    
C40   C48   A    
C45   C46   A    
C23   C48   A    
C21   C29   A    
C36   C44   A    
O1    C8    A    
C41   C42   A    
O2    C7    A    
C23   H23   S    
C11   C36   A    
O3    C6    A    
C1    C11   S    
C2    C12   S    
C27   H12   S    
C26   H9    S    
