data_mof_unit_49854.cif
_audit_creation_date              2013-03-05T15:45:30-0500
_audit_creation_method            fapswitch 2.2
_symmetry_space_group_name_H-M    P1
_symmetry_Int_Tables_number       1
_space_group_crystal_system       triclinic
_cell_length_a                    27.681593
_cell_length_b                    10.727139
_cell_length_c                    10.062754
_cell_angle_alpha                 90.05986
_cell_angle_beta                  91.060907
_cell_angle_gamma                 90.314533
_cell_volume                      2987.51819764

loop_
_atom_site_label
_atom_site_type_symbol
_atom_site_description
_atom_site_fract_x
_atom_site_fract_y
_atom_site_fract_z
_atom_type_partial_charge
O1    O     O_R   0.499990 0.319060 0.613040 -0.628970
O2    O     O_R   0.500010 0.319100 0.386900 -0.655228
C1    C     C_R   0.498359 0.262841 0.499755 0.928192
O3    O     O_R   0.428750 0.500000 0.613050 -0.606513
O4    O     O_R   0.428760 0.500040 0.386920 -0.620666
C2    C     C_R   0.406058 0.499078 0.498805 0.861478
Zn1   Zn    Zn3+2 0.499990 0.499970 0.650990 0.945287
Zn2   Zn    Zn3+2 0.500010 0.500030 0.349010 0.962266
O5    O     O_R   0.499990 0.680900 0.613100 -0.624702
O6    O     O_R   0.500010 0.680940 0.386960 -0.615514
O7    O     O_R   0.571240 0.499960 0.613080 -0.633332
O8    O     O_R   0.571250 0.500000 0.386950 -0.629536
C3    C     C_R   0.500643 0.737257 0.499949 0.939603
C4    C     C_R   0.593943 0.499746 0.501271 0.871543
C5    C     C_R   0.177736 0.377785 0.534034 0.504471
O9    O     O_2   0.203226 0.275685 0.569144 -0.553189
N1    N     N_R   0.201149 0.481985 0.490229 -0.357803
C6    C     C_R   0.176658 0.586241 0.450820 0.506725
C7    C     C_R   0.277789 0.489735 0.613164 -0.106373
C8    C     C_R   0.327909 0.494961 0.615600 -0.207661
C9    C     C_R   0.327767 0.488657 0.374118 -0.216129
C10   C     C_R   0.277565 0.483494 0.372066 -0.094998
C11   C     C_R   0.252625 0.484162 0.491585 0.317702
C12   C     C_R   0.101486 0.484804 0.507112 -0.053770
C13   C     C_R   0.127366 0.376908 0.542657 -0.022217
C14   C     C_R   0.102565 0.271571 0.587263 -0.133306
C15   C     C_R   0.126313 0.589700 0.458518 -0.018918
C16   C     C_R   0.353266 0.494759 0.496049 -0.042716
H1    H     H_    0.346506 0.487746 0.280581 0.169785
H2    H     H_    0.257998 0.479165 0.277973 0.142848
H3    H     H_    0.121753 0.188111 0.617129 0.191863
C17   C     C_R   0.646752 0.498659 0.505104 -0.037311
C18   C     C_R   0.974488 0.377878 0.550403 0.061092
C19   C     C_R   0.975596 0.606538 0.520052 0.020934
C20   C     C_R   0.949738 0.492756 0.534446 0.030886
C21   C     C_R   0.947243 0.266363 0.557287 -0.217134
C22   C     C_R   0.897149 0.268068 0.550897 -0.136400
C23   C     C_R   0.872546 0.380906 0.538511 -0.008371
C24   C     C_R   0.898721 0.493700 0.532057 -0.056298
C25   C     C_R   0.873783 0.607306 0.522086 -0.072532
C26   C     C_R   0.823254 0.605883 0.515380 0.519147
N2    N     N_R   0.798763 0.495202 0.519341 -0.358114
C27   C     C_R   0.822067 0.383875 0.531524 0.503419
C28   C     C_R   0.723060 0.508091 0.391917 -0.103231
C29   C     C_R   0.672825 0.509109 0.387172 -0.213507
C30   C     C_R   0.671574 0.486899 0.627495 -0.214711
C31   C     C_R   0.721712 0.485492 0.631767 -0.103749
C32   C     C_R   0.747370 0.496153 0.514163 0.324533
O10   O     O_2   0.796371 0.276702 0.536400 -0.550664
C33   C     C_R   0.025570 0.378003 0.555738 0.044805
C34   C     C_R   0.050752 0.487726 0.519559 0.073536
C35   C     C_R   0.025589 0.599974 0.493502 0.048835
C36   C     C_R   0.052466 0.271558 0.592848 -0.220717
H4    H     H_    0.654508 0.518426 0.291684 0.158402
H5    H     H_    0.743144 0.516351 0.300979 0.136299
H6    H     H_    0.877774 0.180150 0.554990 0.191157
H7    H     H_    0.963720 0.175591 0.562420 0.143401
H8    H     H_    0.035773 0.187789 0.629985 0.146669
O11   O     O_2   0.201097 0.686822 0.406763 -0.551927
C37   C     C_R   0.100362 0.694691 0.417573 -0.140543
H9    H     H_    0.346689 0.499315 0.710890 0.170337
H10   H     H_    0.258372 0.490824 0.705609 0.141392
H11   H     H_    0.118324 0.774146 0.373614 0.192965
C38   C     C_R   0.949912 0.721024 0.531657 0.187486
C39   C     C_R   0.899486 0.719679 0.525294 -0.144389
O12   O     O_2   0.798671 0.713936 0.505653 -0.551200
C40   C     C_R   0.050649 0.698780 0.432663 -0.224656
H12   H     H_    0.652349 0.478406 0.719854 0.158534
H13   H     H_    0.880308 0.807484 0.528791 0.198675
H14   H     H_    0.740724 0.476392 0.726267 0.135783
H15   H     H_    0.032032 0.778787 0.392413 0.172930
C41   C     C_2   0.493342 0.932578 0.388582 -0.146990
C42   C     C_2   0.503780 0.869212 0.499528 -0.323967
H16   H     H_    0.483748 0.885855 0.295816 0.172223
H17   H     H_    0.516000 0.912901 0.591416 0.146328
C43   C     C_2   0.496105 0.066669 0.387182 -0.164950
C44   C     C_2   0.492222 0.131452 0.499649 -0.323247
H18   H     H_    0.501709 0.111746 0.292076 0.160764
H19   H     H_    0.483317 0.089043 0.593901 0.151169
C45   C     C_2   0.510929 0.597016 0.927777 0.028269
N3    N     N_2   0.500520 0.501330 0.852150 -0.037664
H20   H     H_    0.512173 0.688923 0.883233 0.098689
C46   C     C_2   0.520386 0.587481 0.076564 0.025806
N4    N     N_2   0.500540 0.501360 0.147810 0.050012
H21   H     H_    0.544023 0.655522 0.124517 0.077785
C47   C     C_3   0.973333 0.843635 0.571044 -0.949370
H22   H     H_    0.010140 0.831079 0.614127 0.258675
H23   H     H_    0.974154 0.907541 0.484386 0.238218
H24   H     H_    0.952162 0.889131 0.650177 0.246500
C48   C     C_3   0.523589 0.383015 0.886453 -0.510557
H25   H     H_    0.551669 0.362650 0.812734 0.212234
H26   H     H_    0.543212 0.380290 0.983212 0.151492
H27   H     H_    0.496727 0.306453 0.881106 0.189356
O13   O     O_3   0.458279 0.460793 0.092143 -0.556172
C49   C     C_3   0.449213 0.337552 0.133014 0.214467
H28   H     H_    0.435468 0.335995 0.234886 0.190492
H29   H     H_    0.482204 0.279127 0.126060 0.112432
C50   C     C_3   0.408884 0.281503 0.045322 -0.421292
H30   H     H_    0.375011 0.334550 0.060307 0.230288
H31   H     H_    0.418115 0.288900 0.938798 0.237573
C51   C     C_3   0.400031 0.144766 0.079545 -0.946443
H32   H     H_    0.433102 0.089283 0.062224 0.256431
H33   H     H_    0.370254 0.107077 0.015625 0.283581
H34   H     H_    0.389692 0.135385 0.185246 0.271886

loop_
_geom_bond_atom_site_label_1
_geom_bond_atom_site_label_2
_geom_bond_distance
_ccdc_geom_bond_type
C51   H32   1.111018 S    
C17   C29   1.404601 A    
C20   C24   1.412095 A    
C49   H28   1.100148 S    
C12   C15   1.408080 A    
C41   C43   1.440123 S    
C49   C50   1.530192 S    
Zn1   O7    2.015790 S    
N1    C11   1.424813 S    
C37   H11   1.083351 S    
C21   C22   1.387212 A    
C43   H18   1.086016 S    
C15   C37   1.397552 A    
O3    Zn1   2.001702 S    
C23   C24   1.409076 A    
C45   N3    1.304896 D    
O7    C4    1.298852 A    
C47   H23   1.110262 S    
C5    C13   1.398597 A    
C7    H10   1.083028 S    
C5    O9    1.349927 S    
C18   C21   1.413065 A    
Zn1   O5    1.978348 S    
C19   C20   1.420461 A    
C26   N2    1.364953 A    
C8    H9    1.083072 S    
O5    C3    1.290083 A    
C22   H6    1.083574 S    
C2    C16   1.461595 S    
C31   C32   1.395912 A    
C37   C40   1.388205 A    
C12   C34   1.412779 A    
C14   H3    1.083444 S    
C51   H33   1.110301 S    
O1    Zn1   1.977473 S    
C9    C10   1.390233 A    
C42   H17   1.083887 S    
C45   C46   1.518790 S    
C38   C47   1.512411 S    
C33   C34   1.416020 A    
C44   H19   1.084244 S    
C33   C36   1.413322 A    
C34   C35   1.416651 A    
C12   C13   1.407584 A    
C41   H16   1.086972 S    
C21   H7    1.078393 S    
C4    C17   1.461732 S    
C24   C25   1.406661 A    
C47   H22   1.108828 S    
C27   O10   1.350002 S    
N2    C32   1.422728 S    
C8    C16   1.404009 A    
C18   C33   1.414058 A    
C9    H1    1.083152 S    
O6    C3    1.286742 A    
O1    C1    1.289028 A    
C7    C11   1.397635 A    
C31   H14   1.083055 S    
C30   H12   1.083156 S    
C22   C23   1.396685 A    
C48   H26   1.106610 S    
C46   N4    1.296017 D    
Zn2   O8    2.001705 S    
C19   C38   1.428185 A    
N1    C6    1.366356 A    
N4    O13   1.356958 S    
C43   C44   1.333786 D    
C35   C40   1.410120 A    
N3    C48   1.462675 S    
O3    C2    1.299789 A    
C25   C26   1.399092 A    
C46   H21   1.084454 S    
C9    C16   1.405426 A    
C3    C42   1.417699 S    
C29   H4    1.083089 S    
C51   H34   1.111106 S    
C50   H31   1.109377 S    
C25   C39   1.396450 A    
N2    C27   1.364975 A    
C1    C44   1.418693 S    
C14   C36   1.389014 A    
C28   C29   1.390615 A    
C48   H27   1.105449 S    
C5    N1    1.366520 A    
C30   C31   1.387935 A    
C10   H2    1.082903 S    
Zn1   N3    2.024042 S    
Zn2   N4    2.025016 S    
C17   C30   1.405273 A    
O2    Zn2   1.978349 S    
C6    C15   1.397895 A    
O8    C4    1.300492 A    
C41   C42   1.335562 D    
C47   H24   1.111456 S    
O4    Zn2   2.015787 S    
C36   H8    1.078519 S    
C49   H29   1.113678 S    
C26   O12   1.350031 S    
C50   C51   1.526560 S    
C19   C35   1.416403 A    
C38   C39   1.396136 A    
C7    C8    1.387996 A    
O2    C1    1.288028 A    
C13   C14   1.397702 A    
C23   C27   1.398348 A    
C28   H5    1.082954 S    
C48   H25   1.106832 S    
O4    C2    1.299522 A    
C39   H13   1.084595 S    
C18   C20   1.421040 A    
C45   H20   1.084072 S    
C40   H15   1.078915 S    
O13   C49   1.407551 S    
C6    O11   1.349974 S    
Zn2   O6    1.977472 S    
C50   H30   1.112038 S    
C10   C11   1.397828 A    
C28   C32   1.397536 A    
