data_mof_unit_30980.cif
_audit_creation_date              2012-12-11T14:56:21-0500
_audit_creation_method            fapswitch 2.2
_symmetry_space_group_name_H-M    P1
_symmetry_Int_Tables_number       1
_space_group_crystal_system       triclinic
_cell_length_a                    10.571067
_cell_length_b                    10.640231
_cell_length_c                    17.068438
_cell_angle_alpha                 80.040455
_cell_angle_beta                  89.999067
_cell_angle_gamma                 119.348689
_cell_volume                      1640.15365794

loop_
_atom_site_label
_atom_site_type_symbol
_atom_type_description
_atom_site_fract_x
_atom_site_fract_y
_atom_site_fract_z
_atom_type_partial_charge
C1    C     C_R   0.221471 0.853178 0.128604 0.537711
C2    C     C_1   0.684431 0.401520 0.709764 -0.030369
C3    C     C_R   0.624598 0.712726 0.805033 -0.111071
C4    C     C_R   0.636291 0.280290 0.086144 0.545663
C5    C     C_R   0.611251 0.697555 0.726704 -0.105722
C6    C     C_R   0.669806 0.822628 0.665287 0.037002
C7    C     C_R   0.747419 0.963429 0.682494 -0.137990
C8    C     C_R   0.757369 0.978953 0.761542 -0.131366
C9    C     C_R   0.690095 0.853177 0.822838 0.017230
C10   C     C_R   0.078012 0.892521 0.792314 -0.197813
C11   C     C_R   0.040473 0.875622 0.715916 -0.192563
C12   C     C_R   0.797909 0.416502 0.264089 -0.151581
C13   C     C_R   0.051900 0.770668 0.681954 -0.045460
C14   C     C_R   0.083536 0.668250 0.730210 0.244753
C15   C     C_R   0.123721 0.687844 0.806810 0.403903
C16   C     C_R   0.601036 0.882089 0.130932 0.549859
C17   C     C_R   0.130796 0.806434 0.835694 -0.012834
C18   C     C_R   0.683454 0.813661 0.358563 0.555765
C19   C     C_R   0.689735 0.396960 0.394414 0.559363
C20   C     C_R   0.104641 0.810817 0.359322 0.562854
C21   C     C_R   0.677701 0.800499 0.585346 0.531470
C22   C     C_R   0.717092 0.445778 0.625857 0.538695
C23   C     C_R   0.788230 0.404579 0.185321 -0.189424
C24   C     C_R   0.029521 0.773557 0.597168 0.553349
C25   C     C_R   0.214060 0.857630 0.902773 0.567787
C26   C     C_R   0.640184 0.290587 0.861893 0.543794
C27   C     C_R   0.647529 0.866715 0.899609 0.550852
C28   C     C_R   0.526918 0.312825 0.203987 0.374337
C29   C     C_R   0.537586 0.326839 0.283193 -0.091227
C30   C     C_R   0.671720 0.371682 0.314150 -0.031114
C31   C     C_R   0.651769 0.343667 0.156222 0.030640
C32   C     C_1   0.634742 0.871912 0.211209 -0.024675
C33   C     C_1   0.661832 0.856431 0.278920 -0.025527
C34   C     C_1   0.180306 0.824854 0.211316 -0.019463
C35   C     C_1   0.151768 0.820048 0.279886 -0.018354
C36   C     C_1   0.661650 0.357676 0.780371 -0.025760
Cl1   Cl    Cl    0.083819 0.518957 0.698241 -0.504331
Cr1   Cr    Cr6+3 0.402240 0.783890 0.019450 1.102396
Cr2   Cr    Cr6+3 0.382360 0.097900 0.991800 1.095082
Cr3   Cr    Cr6+3 0.715380 0.118170 0.988700 1.077741
Cr4   Cr    Cr6+3 0.936650 0.882420 0.465510 1.039391
Cr5   Cr    Cr6+3 0.605770 0.565620 0.493360 1.052266
Cr6   Cr    Cr6+3 0.921340 0.550490 0.496380 1.075117
F1    F     F_    0.393325 0.259542 0.176440 -0.603149
F2    F     F_    0.164438 0.596546 0.850680 -0.574017
H1    H     H_    0.009490 0.950226 0.681730 0.168502
H2    H     H_    0.441305 0.299602 0.320599 0.157562
H3    H     H_    0.904922 0.460966 0.285654 0.160937
H4    H     H_    0.886058 0.433037 0.148922 0.160311
H5    H     H_    0.573408 0.614774 0.851798 0.147866
H6    H     H_    0.557097 0.587529 0.714223 0.147373
H7    H     H_    0.798733 0.060208 0.635059 0.151218
H8    H     H_    0.808074 0.088671 0.774424 0.176240
H9    H     H_    0.076447 0.981089 0.814684 0.174005
O1    O     O_R   0.521780 0.757110 0.108900 -0.488939
O2    O     O_R   0.805020 0.410040 0.421340 -0.514122
O3    O     O_R   0.049240 0.685450 0.403290 -0.502822
O4    O     O_R   0.275160 0.783810 0.101120 -0.524290
O5    O     O_R   0.077520 0.903010 0.551800 -0.501440
O6    O     O_R   0.802980 0.872780 0.546830 -0.531879
O7    O     O_R   0.578090 0.681300 0.569920 -0.501348
O8    O     O_R   0.608530 0.436370 0.586530 -0.491637
O9    O     O_R   0.798770 0.401880 0.597100 -0.465913
O10   O     O_R   0.043450 0.677890 0.566230 -0.445257
O11   O     O_3   0.821250 0.666180 0.485090 -0.314575
O12   O     O_R   0.513330 0.228330 0.898660 -0.499671
O13   O     O_R   0.237900 0.972600 0.090980 -0.459010
O14   O     O_R   0.511190 0.220540 0.061620 -0.436324
O15   O     O_R   0.736920 0.257720 0.063840 -0.529394
O16   O     O_R   0.710450 0.984050 0.081720 -0.485588
O17   O     O_R   0.524090 0.765520 0.933110 -0.476845
O18   O     O_R   0.277300 0.791600 0.938160 -0.428379
O19   O     O_R   0.240210 0.981010 0.915190 -0.527131
O20   O     O_R   0.739230 0.266130 0.888050 -0.475146
O21   O     O_R   0.712580 0.991850 0.918770 -0.500829
O22   O     O_3   0.499990 0.999980 0.999980 -0.304022
O23   O     O_R   0.083770 0.911170 0.376030 -0.482444
O24   O     O_R   0.808770 0.880340 0.383890 -0.486614
O25   O     O_R   0.584340 0.689460 0.394160 -0.500875
O26   O     O_R   0.614320 0.443940 0.423590 -0.492724

loop_
_geom_bond_atom_site_label_1
_geom_bond_atom_site_label_2
_ccdc_geom_bond_type
C19   O2    A    
Cr5   O26   S    
Cr2   O14   S    
C12   H3    S    
Cr6   O9    S    
C7    C8    A    
Cr1   O22   S    
C12   C23   A    
Cr3   O16   S    
C20   O23   A    
C29   H2    S    
C28   C29   A    
C7    H7    S    
Cr4   O23   S    
C5    C6    A    
C23   H4    S    
C10   C17   A    
C1    C34   S    
C34   C35   T    
C26   O20   A    
C22   O9    A    
Cr1   O4    S    
C20   C35   S    
Cr1   O1    S    
C18   O25   A    
C2    C22   S    
Cr5   O11   S    
Cr5   O8    S    
C21   O7    A    
C18   O24   A    
Cr5   O25   S    
C24   O10   A    
C13   C14   A    
C27   O21   A    
C4    O15   A    
C3    H5    S    
Cr6   O10   S    
Cr1   O18   S    
Cr3   O15   S    
C26   O12   A    
C16   O16   A    
Cr4   O5    S    
C21   O6    A    
Cr4   O24   S    
C4    O14   A    
C8    C9    A    
Cr4   O11   S    
C6    C21   S    
C28   F1    S    
Cr3   O22   S    
C13   C24   S    
C23   C31   A    
C29   C30   A    
C3    C9    A    
C22   O8    A    
Cr6   O11   S    
C25   O18   A    
Cr2   O22   S    
Cr5   O7    S    
C26   C36   S    
Cr2   O12   S    
C15   F2    S    
C27   O17   A    
C9    C27   S    
C2    C36   T    
C15   C17   A    
Cr1   O17   S    
C12   C30   A    
Cr2   O13   S    
C28   C31   A    
Cr4   O6    S    
C3    C5    A    
C8    H8    S    
C6    C7    A    
C16   C32   S    
Cr3   O21   S    
C17   C25   S    
C32   C33   T    
C16   O1    A    
C1    O4    A    
C14   Cl1   S    
C11   C13   A    
C24   O5    A    
C1    O13   A    
Cr3   O20   S    
C25   O19   A    
Cr2   O19   S    
C19   O26   A    
C10   H9    S    
C18   C33   S    
C4    C31   S    
C10   C11   A    
Cr6   O3    S    
Cr6   O2    S    
C14   C15   A    
C5    H6    S    
C11   H1    S    
C20   O3    A    
C19   C30   S    
