data_mof_unit_34045.cif
_audit_creation_date              2012-10-26T18:40:21-0400
_audit_creation_method            fapswitch 2.2
_symmetry_space_group_name_H-M    P1
_symmetry_Int_Tables_number       1
_space_group_crystal_system       triclinic
_cell_length_a                    8.805731
_cell_length_b                    15.145888
_cell_length_c                    13.889135
_cell_angle_alpha                 89.815524
_cell_angle_beta                  98.037652
_cell_angle_gamma                 90.48876
_cell_volume                      1834.13463771

loop_
_atom_site_label
_atom_site_type_symbol
_atom_type_description
_atom_site_fract_x
_atom_site_fract_y
_atom_site_fract_z
_atom_type_partial_charge
C1    C     C_R   0.503730 0.329745 0.500737 0.555484
C2    C     C_R   0.563702 0.567868 0.898903 -0.157154
C3    C     C_R   0.503296 0.497671 0.054870 -0.001702
C4    C     C_R   0.501092 0.496728 0.945377 -0.004198
C5    C     C_R   0.204358 0.502088 0.475463 0.576525
C6    C     C_R   0.795922 0.500898 0.524861 0.564601
C7    C     C_2   0.039900 0.513470 0.463187 0.239928
C8    C     C_2   0.961358 0.497123 0.538954 0.228955
C9    C     C_R   0.516741 0.093330 0.591148 0.277316
C10   C     C_R   0.398164 0.905107 0.432971 0.274737
C11   C     C_R   0.526518 0.185685 0.591884 0.273574
C12   C     C_R   0.499655 0.669791 0.499628 0.558387
C13   C     C_R   0.402639 0.812626 0.427965 0.264854
C14   C     C_R   0.511299 0.232822 0.502912 -0.028082
C15   C     C_R   0.501093 0.765833 0.498408 -0.013806
C16   C     C_R   0.505079 0.186382 0.415353 -0.207758
C17   C     C_R   0.605064 0.811015 0.566388 -0.201704
C18   C     C_R   0.508228 0.094826 0.415405 -0.155365
C19   C     C_R   0.611076 0.902549 0.565206 -0.158782
C20   C     C_R   0.510795 0.047524 0.502486 0.007801
C21   C     C_R   0.506631 0.950412 0.499933 0.007190
C22   C     C_3   0.010001 0.629550 0.356645 -0.111535
C23   C     C_R   0.628853 0.531965 0.119523 0.215691
C24   C     C_3   0.049317 0.534772 0.696207 -0.105591
C25   C     C_3   0.370974 0.038575 0.700020 -0.104829
C26   C     C_3   0.156330 0.958953 0.413259 -0.108889
C27   C     C_3   0.704137 0.238822 0.711654 -0.092207
C28   C     C_3   0.353592 0.771456 0.269436 -0.098790
C29   C     C_3   0.869423 0.496307 0.094513 -0.122984
C30   C     C_3   0.485359 0.289876 0.949784 -0.133434
C31   C     C_3   0.239707 0.332781 0.205820 -0.119242
C32   C     C_3   0.769884 0.672725 0.811991 -0.159426
C33   C     C_R   0.437180 0.426133 0.885690 0.214634
C34   C     C_R   0.619856 0.536486 0.220091 0.009850
C35   C     C_R   0.433164 0.431273 0.783876 0.029364
C36   C     C_R   0.382635 0.459981 0.198719 0.396790
C37   C     C_R   0.572621 0.566375 0.797543 0.401207
C38   C     C_R   0.378439 0.464095 0.096587 -0.160289
Cu1   Cu    Cu3+1 0.500000 0.499990 0.596430 1.015137
Cu2   Cu    Cu3+1 0.500000 0.500010 0.403570 1.004200
H1    H     H_    0.498578 0.220750 0.346465 0.141938
H2    H     H_    0.006825 0.672578 0.421302 0.097730
H3    H     H_    0.928919 0.657551 0.296276 0.137355
H4    H     H_    0.939448 0.546517 0.724003 0.153879
H5    H     H_    0.092783 0.597111 0.666567 0.098632
H6    H     H_    0.133586 0.514767 0.759226 0.142423
H7    H     H_    0.301477 0.995259 0.645996 0.097993
H8    H     H_    0.314176 0.103567 0.704447 0.143706
H9    H     H_    0.375756 0.006263 0.772145 0.136111
H10   H     H_    0.176787 0.001059 0.479286 0.100391
H11   H     H_    0.109322 0.893339 0.431093 0.134749
H12   H     H_    0.684774 0.775281 0.618540 0.155108
H13   H     H_    0.067974 0.991839 0.360789 0.135895
H14   H     H_    0.720671 0.279214 0.778795 0.123083
H15   H     H_    0.763229 0.274201 0.656815 0.129072
H16   H     H_    0.758506 0.173629 0.729303 0.135814
H17   H     H_    0.280120 0.727766 0.218153 0.125211
H18   H     H_    0.473517 0.747349 0.273666 0.119054
H19   H     H_    0.345068 0.839372 0.238758 0.156182
H20   H     H_    0.826812 0.437074 0.051314 0.107134
H21   H     H_    0.904928 0.477955 0.172017 0.176677
H22   H     H_    0.972950 0.521052 0.065430 0.140713
H23   H     H_    0.507414 0.060752 0.346890 0.160127
H24   H     H_    0.583995 0.316711 0.000525 0.106661
H25   H     H_    0.525212 0.262491 0.883657 0.155331
H26   H     H_    0.434951 0.234589 0.987615 0.134867
H27   H     H_    0.178505 0.296102 0.258217 0.143206
H28   H     H_    0.165367 0.331380 0.134315 0.104879
H29   H     H_    0.349080 0.297432 0.201542 0.102967
H30   H     H_    0.846432 0.705001 0.765214 0.113086
H31   H     H_    0.840336 0.623893 0.858452 0.112588
H32   H     H_    0.727460 0.725268 0.856797 0.125618
H33   H     H_    0.697342 0.936046 0.615681 0.162062
H34   H     H_    0.711227 0.567767 0.267613 0.182692
H35   H     H_    0.377896 0.378841 0.738924 0.193179
H36   H     H_    0.276788 0.441259 0.050415 0.154411
H37   H     H_    0.604311 0.624929 0.941615 0.154213
H38   H     H_    0.125041 0.631583 0.333001 0.200570
N1    N     N_R   0.500000 0.500020 0.258690 -0.250782
N2    N     N_R   0.500000 0.499980 0.741310 -0.251814
O1    O     O_R   0.500010 0.371450 0.581430 -0.475298
O2    O     O_3   0.033730 0.465516 0.627598 -0.580790
O3    O     O_3   0.521861 0.048351 0.678358 -0.569800
O4    O     O_3   0.290962 0.950790 0.369884 -0.576987
O5    O     O_3   0.545400 0.229069 0.680246 -0.557174
O6    O     O_3   0.300214 0.767636 0.360577 -0.586031
O7    O     O_3   0.758961 0.563764 0.085492 -0.601685
O8    O     O_3   0.371198 0.353765 0.924767 -0.591490
O9    O     O_3   0.263861 0.420484 0.239051 -0.522025
O10   O     O_3   0.646205 0.632705 0.751454 -0.531868
O11   O     O_R   0.499990 0.628550 0.418570 -0.507117
O12   O     O_R   0.500010 0.371460 0.418560 -0.495299
O13   O     O_R   0.499990 0.628540 0.581440 -0.455871
O14   O     O_R   0.274840 0.499990 0.562640 -0.497747
O15   O     O_R   0.725160 0.500010 0.437360 -0.493791
O16   O     O_R   0.274840 0.500000 0.399770 -0.436159
O17   O     O_R   0.725160 0.500000 0.600230 -0.483975
O18   O     O_3   0.965970 0.541585 0.373518 -0.600060

loop_
_geom_bond_atom_site_label_1
_geom_bond_atom_site_label_2
_ccdc_geom_bond_type
C36   O9    S    
C22   O18   S    
C7    O18   S    
C30   H24   S    
C12   O11   A    
C3    C23   A    
C5    O14   A    
C27   H14   S    
C7    C8    D    
C32   H32   S    
C38   H36   S    
C28   H17   S    
C31   H27   S    
C35   H35   S    
C37   O10   S    
C8    O2    S    
C24   H5    S    
C19   C21   A    
C33   O8    S    
C26   H10   S    
C11   C14   A    
C27   H15   S    
C18   H23   S    
Cu1   O17   S    
C1    O1    A    
C35   N2    A    
C27   O5    S    
C24   O2    S    
Cu1   O13   S    
C33   C35   A    
C4    C33   A    
C32   O10   S    
C3    C38   A    
C31   O9    S    
C13   O6    S    
C29   H20   S    
C25   H7    S    
C23   O7    S    
Cu2   O16   S    
C17   H12   S    
C32   H31   S    
C10   C21   A    
C31   H28   S    
C37   N2    A    
C29   H21   S    
C6    O17   A    
C19   H33   S    
C22   H38   S    
Cu1   Cu2   S    
C5    C7    S    
C27   H16   S    
C32   H30   S    
C10   C13   A    
C2    C4    A    
Cu1   O14   S    
C34   N1    A    
C9    C20   A    
C22   H3    S    
C12   C15   S    
C23   C34   A    
Cu2   N1    S    
Cu2   O12   S    
C9    C11   A    
C25   H8    S    
Cu1   O1    S    
C30   H26   S    
C34   H34   S    
C9    O3    S    
C1    O12   A    
C13   C15   A    
C28   O6    S    
C24   H4    S    
C14   C16   A    
C12   O13   A    
Cu2   O15   S    
C30   O8    S    
C3    C4    S    
C26   H13   S    
C5    O16   A    
C28   H19   S    
C15   C17   A    
C29   H22   S    
C26   O4    S    
C36   N1    A    
C6    C8    S    
C28   H18   S    
C24   H6    S    
Cu1   N2    S    
C36   C38   A    
C2    H37   S    
C26   H11   S    
C2    C37   A    
C22   H2    S    
C11   O5    S    
C10   O4    S    
C17   C19   A    
C18   C20   A    
Cu2   O11   S    
C25   H9    S    
C29   O7    S    
C30   H25   S    
C31   H29   S    
C20   C21   S    
C16   C18   A    
C6    O15   A    
C25   O3    S    
C1    C14   S    
C16   H1    S    
