data_mof_unit_9436.cif
_audit_creation_date              2012-12-11T15:21:17-0500
_audit_creation_method            fapswitch 2.2
_symmetry_space_group_name_H-M    P1
_symmetry_Int_Tables_number       1
_space_group_crystal_system       triclinic
_cell_length_a                    18.366793
_cell_length_b                    18.378221
_cell_length_c                    51.293212
_cell_angle_alpha                 89.960434
_cell_angle_beta                  90.116124
_cell_angle_gamma                 120.214811
_cell_volume                      14961.7455622

loop_
_atom_site_label
_atom_site_type_symbol
_atom_type_description
_atom_site_fract_x
_atom_site_fract_y
_atom_site_fract_z
_atom_type_partial_charge
C1    C     C_R   0.408937 0.584289 0.287774 0.559188
C2    C     C_R   0.408998 0.584322 0.212281 0.587525
C3    C     C_R   0.058544 0.515161 0.362442 0.274558
C4    C     C_R   0.075303 0.519444 0.135389 0.279985
C5    C     C_R   0.641010 0.508229 0.674408 -0.147629
C6    C     C_R   0.497949 0.392960 0.827058 -0.112183
C7    C     C_R   0.500335 0.386713 0.671534 -0.077807
C8    C     C_R   0.639371 0.513274 0.824163 -0.084103
C9    C     C_R   0.495722 0.404816 0.645319 0.293178
C10   C     C_R   0.634147 0.534442 0.849982 0.304099
C11   C     C_R   0.564694 0.473982 0.633428 0.236175
C12   C     C_R   0.561420 0.483139 0.864641 0.242541
C13   C     C_R   0.589837 0.501158 0.479933 0.042907
C14   C     C_R   0.451978 0.527642 0.009567 0.042649
C15   C     C_R   0.564465 0.557997 0.470637 -0.048806
C16   C     C_R   0.494954 0.502270 0.027175 -0.048231
C17   C     C_R   0.548925 0.607651 0.488303 0.022145
C18   C     C_R   0.544788 0.469343 0.017685 0.027305
C19   C     C_R   0.620836 0.466031 0.461224 0.219285
C20   C     C_R   0.389152 0.543004 0.020049 0.221212
C21   C     C_R   0.533531 0.684462 0.451535 0.290072
C22   C     C_R   0.563429 0.433923 0.062416 0.274305
C23   C     C_R   0.497570 0.614183 0.532460 0.292886
C24   C     C_R   0.636262 0.472369 0.981589 0.298423
C25   C     C_R   0.000636 0.491774 0.442998 -0.087945
C26   C     C_R   0.027474 0.495372 0.054212 -0.090095
C27   C     C_R   0.503265 0.607135 0.559710 0.249416
C28   C     C_R   0.646286 0.465079 0.954571 0.258162
C29   C     C_R   0.548115 0.679273 0.478307 0.284717
C30   C     C_R   0.565648 0.422961 0.035263 0.263446
C31   C     C_R   0.590786 0.175453 0.712289 0.551828
C32   C     C_R   0.591347 0.175766 0.787543 0.569729
C33   C     C_R   0.823777 0.415459 0.712229 0.575985
C34   C     C_R   0.824997 0.415869 0.787523 0.608738
C35   C     C_R   0.584685 0.408260 0.712116 0.541719
C36   C     C_R   0.584261 0.409252 0.787534 0.581073
C37   C     C_R   0.945502 0.427048 0.425755 0.002384
C38   C     C_R   0.959435 0.451611 0.071793 0.011040
C39   C     C_R   0.869225 0.359994 0.435937 0.257767
C40   C     C_R   0.876278 0.407510 0.061573 0.248819
C41   C     C_R   0.068877 0.566133 0.432906 0.010590
C42   C     C_R   0.108994 0.550084 0.063936 -0.002115
C43   C     C_R   0.127187 0.557616 0.312004 -0.020796
C44   C     C_R   0.131854 0.559362 0.187147 0.003141
C45   C     C_R   0.860416 0.425923 0.685907 -0.016674
C46   C     C_R   0.866830 0.427748 0.813070 -0.002213
C47   C     C_R   0.911464 0.393857 0.507979 0.055627
C48   C     C_R   0.920324 0.408838 0.990231 0.052827
C49   C     C_R   0.035037 0.535216 0.514779 0.045642
C50   C     C_R   0.068499 0.516381 0.981994 0.050226
C51   C     C_R   0.966820 0.459847 0.524929 -0.007344
C52   C     C_R   0.986803 0.457347 0.972627 -0.013207
C53   C     C_R   0.175067 0.590879 0.287530 0.546910
C54   C     C_R   0.175472 0.591045 0.212371 0.577156
C55   C     C_R   0.856328 0.313798 0.519401 0.266102
C56   C     C_R   0.846519 0.337646 0.980132 0.295064
C57   C     C_R   0.841320 0.306766 0.546183 -0.081557
C58   C     C_R   0.831186 0.329221 0.953389 -0.025240
C59   C     C_R   0.888976 0.374789 0.562837 -0.005628
C60   C     C_R   0.892078 0.384694 0.935846 0.004345
C61   C     C_R   0.955883 0.449293 0.552401 -0.037792
C62   C     C_R   0.972049 0.444884 0.945337 -0.041630
C63   C     C_R   0.012959 0.512633 0.569429 0.047465
C64   C     C_R   0.037679 0.491708 0.927566 0.046487
C65   C     C_R   0.997555 0.504319 0.596399 0.481856
C66   C     C_R   0.020058 0.484958 0.900706 0.459944
C67   C     C_R   0.874507 0.368565 0.589919 0.464084
C68   C     C_R   0.876327 0.378993 0.908879 0.494276
C69   C     C_R   0.921413 0.384068 0.651000 -0.056221
C70   C     C_R   0.930073 0.383554 0.846703 -0.052590
C71   C     C_R   0.898784 0.380180 0.677254 0.203833
C72   C     C_R   0.904285 0.380147 0.820830 0.211382
C73   C     C_R   0.847153 0.475991 0.667935 -0.134224
C74   C     C_R   0.859888 0.480976 0.831344 -0.096608
C75   C     C_R   0.416295 0.825249 0.287628 0.543704
C76   C     C_R   0.415785 0.824723 0.212609 0.558464
C77   C     C_R   0.868733 0.478763 0.641793 0.286542
C78   C     C_R   0.885053 0.483529 0.857128 0.303226
C79   C     C_R   0.905735 0.432419 0.633184 0.205472
C80   C     C_R   0.918967 0.433615 0.864965 0.196534
C81   C     C_R   0.918063 0.408556 0.480524 0.053010
C82   C     C_R   0.932217 0.429549 0.017186 0.042518
C83   C     C_R   0.987666 0.482718 0.470410 -0.044984
C84   C     C_R   0.014212 0.485052 0.026816 -0.050538
C85   C     C_R   0.042585 0.549354 0.487406 0.047030
C86   C     C_R   0.082043 0.533147 0.009276 0.051446
C87   C     C_R   0.852676 0.356531 0.462987 0.330905
C88   C     C_R   0.863511 0.404486 0.034360 0.298870
C89   C     C_R   0.115100 0.634795 0.449404 -0.047902
C90   C     C_R   0.173046 0.602477 0.046751 -0.024271
C91   C     C_R   0.097708 0.590405 0.532408 -0.072823
C92   C     C_R   0.134947 0.550812 0.963707 -0.056207
C93   C     C_R   0.085400 0.581364 0.559174 -0.079848
C94   C     C_R   0.119555 0.542086 0.937037 -0.087168
C95   C     C_R   0.099629 0.628791 0.476016 0.215864
C96   C     C_R   0.158691 0.599074 0.020060 0.261547
C97   C     C_R   0.966990 0.435089 0.398844 0.501889
C98   C     C_R   0.977329 0.458440 0.098932 0.483085
C99   C     C_R   0.388198 0.882630 0.407499 0.501988
C100  C     C_R   0.390362 0.950474 0.095984 0.504176
C101  C     C_R   0.469838 0.031122 0.399063 0.489286
C102  C     C_R   0.536657 0.991603 0.098210 0.484199
C103  C     C_R   0.492887 0.908593 0.356182 0.311711
C104  C     C_R   0.409006 0.840157 0.139678 0.305999
C105  C     C_R   0.492181 0.879610 0.330843 0.217527
C106  C     C_R   0.397449 0.807402 0.164948 0.224207
C107  C     C_R   0.377480 0.905393 0.319478 0.187132
C108  C     C_R   0.464943 0.950376 0.182827 0.190608
C109  C     C_R   0.377535 0.931114 0.345102 -0.031061
C110  C     C_R   0.474697 0.981794 0.157414 -0.017233
C111  C     C_R   0.433427 0.931032 0.363506 0.137989
C112  C     C_R   0.447003 0.927430 0.135925 0.134368
C113  C     C_R   0.443624 0.980408 0.443969 -0.113235
C114  C     C_R   0.473839 0.991047 0.056183 -0.112081
C115  C     C_R   0.398261 0.896477 0.434656 0.047346
C116  C     C_R   0.395429 0.962899 0.068687 0.047864
C117  C     C_R   0.368820 0.828472 0.452414 0.289551
C118  C     C_R   0.323107 0.942857 0.053590 0.297421
C119  C     C_R   0.086828 0.572421 0.406208 0.447296
C120  C     C_R   0.123720 0.555870 0.090873 0.471075
C121  C     C_R   0.478240 0.048904 0.426093 0.050632
C122  C     C_R   0.546132 0.008492 0.071144 0.045531
C123  C     C_R   0.431021 0.873320 0.312410 -0.035080
C124  C     C_R   0.425808 0.862103 0.186645 -0.009445
C125  C     C_R   0.560276 0.133824 0.686564 -0.026798
C126  C     C_R   0.568031 0.144605 0.814290 -0.002986
C127  C     C_R   0.420305 0.945607 0.516102 0.054189
C128  C     C_R   0.419414 0.007972 0.986785 0.055095
C129  C     C_R   0.523420 0.094022 0.507612 0.038535
C130  C     C_R   0.560957 0.025756 0.988300 0.045109
C131  C     C_R   0.477731 0.027375 0.525370 0.046724
C132  C     C_R   0.493253 0.021567 0.973873 0.050671
C133  C     C_R   0.364276 0.885531 0.534092 -0.060537
C134  C     C_R   0.361058 0.020849 0.972555 -0.066507
C135  C     C_R   0.374240 0.900698 0.560769 -0.067672
C136  C     C_R   0.368468 0.033513 0.945724 -0.077749
C137  C     C_R   0.438271 0.978085 0.570341 0.036394
C138  C     C_R   0.436618 0.037420 0.932252 0.037571
C139  C     C_R   0.488850 0.042583 0.552611 -0.026655
C140  C     C_R   0.500111 0.032875 0.946395 -0.024282
C141  C     C_R   0.100731 0.475764 0.352053 0.309903
C142  C     C_R   0.111030 0.476525 0.147673 0.323269
C143  C     C_R   0.550320 0.122175 0.562034 0.037676
C144  C     C_R   0.571121 0.041109 0.933208 0.036080
C145  C     C_R   0.561346 0.135740 0.589068 0.458570
C146  C     C_R   0.577541 0.053494 0.906066 0.463957
C147  C     C_R   0.451575 0.993298 0.597250 0.481285
C148  C     C_R   0.445161 0.050375 0.905133 0.464319
C149  C     C_R   0.597290 0.095108 0.645420 -0.094528
C150  C     C_R   0.508219 0.029809 0.845437 -0.093640
C151  C     C_R   0.615024 0.118475 0.671449 -0.168704
C152  C     C_R   0.526714 0.058177 0.819665 -0.177914
C153  C     C_R   0.483276 0.119306 0.675273 0.228229
C154  C     C_R   0.591441 0.202938 0.834926 0.228821
C155  C     C_R   0.466845 0.097561 0.648743 0.319438
C156  C     C_R   0.572189 0.174358 0.860684 0.316712
C157  C     C_R   0.524743 0.086814 0.633787 0.198386
C158  C     C_R   0.530933 0.087689 0.865947 0.200179
C159  C     C_R   0.417896 0.927702 0.489071 0.024755
C160  C     C_R   0.408609 0.986757 0.013752 0.017500
C161  C     C_R   0.454964 0.995884 0.471228 -0.009269
C162  C     C_R   0.479996 0.001418 0.028634 -0.005018
C163  C     C_R   0.134360 0.496841 0.326674 -0.123580
C164  C     C_R   0.138602 0.496321 0.173668 -0.099242
C165  C     C_R   0.505232 0.079520 0.480562 0.004256
C166  C     C_R   0.557170 0.024143 0.015958 0.008276
C167  C     C_R   0.383329 0.844504 0.479332 0.219248
C168  C     C_R   0.328860 0.948867 0.026201 0.208698
C169  C     C_R   0.521850 0.132279 0.435970 0.278174
C170  C     C_R   0.624498 0.039632 0.058312 0.276689
C171  C     C_R   0.585791 0.172825 0.517576 -0.114112
C172  C     C_R   0.630345 0.031750 0.974515 -0.100479
C173  C     C_R   0.599352 0.186256 0.544267 -0.102431
C174  C     C_R   0.634972 0.038772 0.947494 -0.087551
C175  C     C_R   0.535051 0.146315 0.462628 -0.083078
C176  C     C_R   0.628794 0.045991 0.031313 -0.057777
C177  C     C_R   0.554677 0.519716 0.398980 0.439252
C178  C     C_R   0.432352 0.550671 0.091000 0.443119
C179  C     C_R   0.517817 0.625845 0.407070 0.479796
C180  C     C_R   0.521138 0.491948 0.099199 0.469922
C181  C     C_R   0.550777 0.635950 0.346595 -0.036443
C182  C     C_R   0.410681 0.474080 0.150519 -0.060647
C183  C     C_R   0.522044 0.637227 0.321500 -0.136946
C184  C     C_R   0.395504 0.488384 0.176062 -0.159576
C185  C     C_R   0.080841 0.592791 0.322203 -0.128269
C186  C     C_R   0.092297 0.598715 0.174903 -0.122739
C187  C     C_R   0.396757 0.501269 0.329203 0.220045
C188  C     C_R   0.505124 0.635425 0.172322 0.243059
C189  C     C_R   0.426713 0.500542 0.354259 -0.011899
C190  C     C_R   0.519253 0.620170 0.146621 0.006580
C191  C     C_R   0.502206 0.568606 0.363288 0.180066
C192  C     C_R   0.470757 0.540397 0.135500 0.192936
C193  C     C_R   0.556742 0.567036 0.443423 -0.100008
C194  C     C_R   0.485589 0.506963 0.054494 -0.098876
C195  C     C_R   0.571084 0.517202 0.425658 0.000449
C196  C     C_R   0.435819 0.539402 0.064077 -0.000630
C197  C     C_R   0.605803 0.469452 0.434744 -0.026496
C198  C     C_R   0.386028 0.554463 0.046740 -0.034289
C199  C     C_R   0.534662 0.625685 0.434012 0.033904
C200  C     C_R   0.525306 0.478706 0.072159 0.037446
C201  C     C_R   0.443262 0.571987 0.312680 0.012401
C202  C     C_R   0.439862 0.569624 0.187137 0.034845
C203  C     C_R   0.573805 0.436910 0.686180 -0.034576
C204  C     C_R   0.572341 0.440877 0.812714 -0.002869
C205  C     C_R   0.585801 0.484684 0.507261 0.053183
C206  C     C_R   0.470912 0.532794 0.982470 0.048545
C207  C     C_R   0.046735 0.571557 0.347158 -0.092669
C208  C     C_R   0.064159 0.578724 0.149231 -0.088172
C209  C     C_R   0.539912 0.587425 0.515334 0.040949
C210  C     C_R   0.566820 0.478471 0.990803 0.042136
C211  C     C_R   0.563558 0.530112 0.524912 -0.021045
C212  C     C_R   0.525563 0.504837 0.973116 -0.025584
C213  C     C_R   0.594053 0.417868 0.517433 -0.082757
C214  C     C_R   0.444158 0.573016 0.964631 -0.083137
C215  C     C_R   0.595585 0.405829 0.544071 -0.082400
C216  C     C_R   0.456380 0.571106 0.938032 -0.089481
C217  C     C_R   0.581355 0.455247 0.561727 0.052462
C218  C     C_R   0.502200 0.535153 0.928330 0.045194
C219  C     C_R   0.560696 0.514730 0.552233 -0.080262
C220  C     C_R   0.541509 0.506474 0.945932 -0.085481
C221  C     C_R   0.536195 0.557714 0.569926 0.004154
C222  C     C_R   0.596642 0.479854 0.936414 -0.002919
C223  C     C_R   0.540867 0.545141 0.597090 0.486483
C224  C     C_R   0.602052 0.472489 0.909041 0.510392
C225  C     C_R   0.583286 0.443305 0.588683 0.483408
C226  C     C_R   0.511607 0.529624 0.901398 0.447524
C227  C     C_R   0.636408 0.526470 0.648226 -0.074335
C228  C     C_R   0.492754 0.413911 0.852832 -0.078216
Cr1   Cr    Cr6+3 0.456550 0.732290 0.250000 1.151587
Cr2   Cr    Cr6+3 0.275740 0.543450 0.250000 1.093241
Cr3   Cr    Cr6+3 0.267710 0.724260 0.250000 1.084972
Cr4   Cr    Cr6+3 0.543450 0.275740 0.750000 1.128474
Cr5   Cr    Cr6+3 0.724260 0.267710 0.750000 1.175272
Cr6   Cr    Cr6+3 0.732290 0.456550 0.750000 1.065437
H1    H     H_    0.073736 0.639346 0.311308 0.168382
H2    H     H_    0.086271 0.647497 0.184764 0.163459
H3    H     H_    0.160827 0.695415 0.441381 0.210464
H4    H     H_    0.233492 0.650898 0.054235 0.213953
H5    H     H_    0.158740 0.639227 0.525958 0.194513
H6    H     H_    0.200038 0.581922 0.969441 0.218816
H7    H     H_    0.816224 0.510232 0.673913 0.163587
H8    H     H_    0.830601 0.517398 0.825993 0.185021
H9    H     H_    0.133831 0.627680 0.571842 0.182533
H10   H     H_    0.172506 0.573365 0.923835 0.176821
H11   H     H_    0.333473 0.951036 0.350790 0.186976
H12   H     H_    0.504460 0.049086 0.154307 0.197790
H13   H     H_    0.014579 0.602225 0.355195 0.152149
H14   H     H_    0.037126 0.612178 0.139636 0.154058
H15   H     H_    0.674060 0.128367 0.679346 0.189049
H16   H     H_    0.509512 0.012985 0.803975 0.150315
H17   H     H_    0.641786 0.086501 0.633921 0.175720
H18   H     H_    0.477006 0.962990 0.849517 0.163940
H19   H     H_    0.331224 0.851605 0.573875 0.187408
H20   H     H_    0.321129 0.041555 0.935619 0.182667
H21   H     H_    0.310671 0.826968 0.527721 0.199771
H22   H     H_    0.310780 0.024674 0.982126 0.181964
H23   H     H_    0.627035 0.224620 0.505119 0.170093
H24   H     H_    0.681210 0.028986 0.984116 0.136973
H25   H     H_    0.648395 0.247450 0.550957 0.167252
H26   H     H_    0.689714 0.043726 0.937844 0.178381
H27   H     H_    0.566985 0.211089 0.468989 0.153392
H28   H     H_    0.690400 0.071025 0.022739 0.184691
H29   H     H_    0.389541 0.448157 0.367209 0.177139
H30   H     H_    0.566037 0.671269 0.134858 0.175215
H31   H     H_    0.626241 0.438470 0.421047 0.228173
H32   H     H_    0.340132 0.569974 0.054062 0.204371
H33   H     H_    0.698570 0.547987 0.685089 0.156274
H34   H     H_    0.445298 0.336774 0.818853 0.167026
H35   H     H_    0.689783 0.579848 0.639168 0.179916
H36   H     H_    0.436584 0.374088 0.864045 0.152571
H37   H     H_    0.605137 0.355382 0.550797 0.164195
H38   H     H_    0.431128 0.599640 0.925082 0.174809
H39   H     H_    0.594886 0.370779 0.505199 0.173035
H40   H     H_    0.416725 0.609859 0.970853 0.190616
H41   H     H_    0.560526 0.691223 0.309298 0.195070
H42   H     H_    0.345875 0.436095 0.186716 0.156330
H43   H     H_    0.609676 0.688623 0.353356 0.185436
H44   H     H_    0.372861 0.412189 0.141973 0.155733
H45   H     H_    0.447772 0.331213 0.680049 0.207759
H46   H     H_    0.697292 0.551422 0.813508 0.161479
H47   H     H_    0.950610 0.348884 0.644324 0.180994
H48   H     H_    0.957219 0.345874 0.852818 0.175794
H49   H     H_    0.796030 0.245893 0.554161 0.192972
H50   H     H_    0.772703 0.276556 0.946291 0.207732
H51   H     H_    0.169829 0.469198 0.319004 0.175892
H52   H     H_    0.169276 0.465638 0.182805 0.131303
N1    N     N_R   0.037154 0.506676 0.389715 -0.374258
N2    N     N_R   0.058443 0.509671 0.107841 -0.374796
N3    N     N_R   0.927072 0.434353 0.606121 -0.367455
N4    N     N_R   0.939272 0.431472 0.891901 -0.376960
N5    N     N_R   0.427190 0.949111 0.390417 -0.404850
N6    N     N_R   0.459160 0.960705 0.109849 -0.399277
N7    N     N_R   0.512364 0.071462 0.606205 -0.375884
N8    N     N_R   0.515553 0.059256 0.892548 -0.372970
N9    N     N_R   0.526121 0.571861 0.390209 -0.406398
N10   N     N_R   0.476243 0.528689 0.108029 -0.408135
N11   N     N_R   0.563959 0.488633 0.605866 -0.382624
N12   N     N_R   0.559062 0.496407 0.892203 -0.385221
O1    O     O_R   0.475290 0.813700 0.278840 -0.443771
O2    O     O_R   0.475290 0.813700 0.221160 -0.433980
O3    O     O_2   0.147375 0.636213 0.397553 -0.451062
O4    O     O_2   0.194683 0.602382 0.099366 -0.403059
O5    O     O_2   0.046070 0.559649 0.611258 -0.450970
O6    O     O_2   0.075977 0.527415 0.885168 -0.475249
O7    O     O_2   0.346382 0.811249 0.398811 -0.373344
O8    O     O_2   0.324256 0.928266 0.107505 -0.395514
O9    O     O_2   0.409404 0.937155 0.612768 -0.440783
O10   O     O_2   0.390919 0.055362 0.892730 -0.477070
O11   O     O_2   0.502049 0.087921 0.383094 -0.380156
O12   O     O_2   0.596331 0.001599 0.111443 -0.388363
O13   O     O_2   0.614040 0.204826 0.597443 -0.437220
O14   O     O_2   0.639109 0.061100 0.894474 -0.470349
O15   O     O_2   0.565399 0.475361 0.383522 -0.457940
O16   O     O_2   0.390058 0.579826 0.099400 -0.418202
O17   O     O_2   0.602191 0.392542 0.596972 -0.432753
O18   O     O_2   0.477043 0.553579 0.886049 -0.481736
O19   O     O_2   0.494283 0.672770 0.398583 -0.365659
O20   O     O_2   0.557489 0.471301 0.114926 -0.399459
O21   O     O_2   0.524096 0.583685 0.613056 -0.395043
O22   O     O_2   0.643805 0.443817 0.900000 -0.321015
O23   O     O_R   0.448450 0.657720 0.276690 -0.500250
O24   O     O_R   0.448450 0.657720 0.223310 -0.426761
O25   O     O_R   0.524710 0.338410 0.721160 -0.475402
O26   O     O_R   0.524710 0.338410 0.778840 -0.486998
O27   O     O_R   0.551550 0.209270 0.723310 -0.448020
O28   O     O_R   0.551550 0.209270 0.776690 -0.470133
O29   O     O_R   0.661590 0.186300 0.721160 -0.499350
O30   O     O_R   0.661590 0.186300 0.778840 -0.462308
O31   O     O_R   0.790730 0.342280 0.723310 -0.440443
O32   O     O_R   0.790730 0.342280 0.776690 -0.416673
O33   O     O_R   0.813700 0.475290 0.721160 -0.513918
O34   O     O_R   0.813700 0.475290 0.778840 -0.510765
O35   O     O_R   0.657720 0.448450 0.723310 -0.506665
O36   O     O_R   0.657720 0.448450 0.776690 -0.491264
O37   O     O_3   0.666667 0.333333 0.750000 -0.272784
O38   O     O_R   0.338410 0.524710 0.278840 -0.440242
O39   O     O_R   0.338410 0.524710 0.221160 -0.518425
O40   O     O_R   0.209270 0.551550 0.276690 -0.491250
O41   O     O_R   0.209270 0.551550 0.223310 -0.490860
O42   O     O_R   0.186300 0.661590 0.278840 -0.490759
O43   O     O_R   0.186300 0.661590 0.221160 -0.492153
O44   O     O_R   0.342280 0.790730 0.276690 -0.488769
O45   O     O_R   0.342280 0.790730 0.223310 -0.485468
O46   O     O_3   0.333333 0.666667 0.250000 -0.262288
O47   O     O_2   0.923923 0.379020 0.383459 -0.376239
O48   O     O_2   0.921461 0.419152 0.114743 -0.391184
O49   O     O_2   0.814723 0.305298 0.599076 -0.465059
O50   O     O_2   0.806505 0.328301 0.900463 -0.401282
O51   O     O_3   0.111975 0.420680 0.367515 -0.622677
H53   H     H_    0.143427 0.399287 0.357478 0.357663
O52   O     O_3   0.121311 0.418429 0.133543 -0.627973
H54   H     H_    0.148303 0.394858 0.144834 0.329266
Cl1   Cl    Cl    0.844866 0.537540 0.619856 -0.510018
Cl2   Cl    Cl    0.870094 0.546924 0.879667 -0.380379
Cl3   Cl    Cl    0.140298 0.726860 0.492080 -0.602143
Cl4   Cl    Cl    0.232146 0.690743 0.003135 -0.509959
O53   O     O_3   0.323737 0.911964 0.302089 -0.644819
H55   H     H_    0.349685 0.922946 0.284557 0.340933
O54   O     O_3   0.494397 0.007983 0.203025 -0.640682
H56   H     H_    0.482405 0.978277 0.219937 0.331938
O55   O     O_3   0.331577 0.747056 0.442855 -0.586521
H57   H     H_    0.297631 0.706621 0.456678 0.365130
O56   O     O_3   0.246138 0.912327 0.065864 -0.583587
H58   H     H_    0.208209 0.922638 0.054698 0.371648
Cl5   Cl    Cl    0.379227 0.763107 0.499105 -0.549857
Cl6   Cl    Cl    0.234273 0.887418 0.008294 -0.511591
Cl7   Cl    Cl    0.567115 0.848791 0.323749 -0.473068
Cl8   Cl    Cl    0.348073 0.697117 0.169218 -0.504522
Cl9   Cl    Cl    0.566089 0.913524 0.379618 -0.352081
Cl10  Cl    Cl    0.378490 0.772182 0.112428 -0.400761
Cl11  Cl    Cl    0.561851 0.223639 0.416381 -0.427312
Cl12  Cl    Cl    0.721342 0.073222 0.074534 -0.392780
Cl13  Cl    Cl    0.406085 0.127683 0.693500 -0.447354
Cl14  Cl    Cl    0.648932 0.312200 0.828863 -0.547444
Cl15  Cl    Cl    0.792120 0.279779 0.415676 -0.369071
Cl16  Cl    Cl    0.786002 0.355149 0.081817 -0.419990
Cl17  Cl    Cl    0.376176 0.088710 0.633639 -0.376385
Cl18  Cl    Cl    0.601292 0.246881 0.886672 -0.380414
Cl19  Cl    Cl    0.299344 0.413117 0.320473 -0.549288
Cl20  Cl    Cl    0.568440 0.739064 0.183939 -0.481962
Cl21  Cl    Cl    0.920815 0.318461 0.698544 -0.478402
Cl22  Cl    Cl    0.920747 0.315969 0.798955 -0.473624
Cl23  Cl    Cl    0.695472 0.434958 0.468242 -0.595638
Cl24  Cl    Cl    0.299821 0.528302 0.002531 -0.630411
O57   O     O_3   0.523098 0.749008 0.441924 -0.552049
H59   H     H_    0.506769 0.773814 0.456287 0.393454
O58   O     O_3   0.592990 0.396913 0.079707 -0.576153
H60   H     H_    0.632066 0.383354 0.070536 0.384570
O59   O     O_3   0.444852 0.639937 0.521871 -0.593794
H61   H     H_    0.401770 0.632824 0.534758 0.387279
O60   O     O_3   0.696906 0.480769 0.999354 -0.630309
H62   H     H_    0.750802 0.498160 0.990378 0.382062
Cl25  Cl    Cl    0.467588 0.661030 0.580036 -0.426015
Cl26  Cl    Cl    0.722479 0.438502 0.944512 -0.424602
Cl27  Cl    Cl    0.404403 0.337878 0.627366 -0.433866
Cl28  Cl    Cl    0.720583 0.623453 0.863935 -0.445530
Cl29  Cl    Cl    0.587749 0.772221 0.497418 -0.414446
Cl30  Cl    Cl    0.570660 0.334103 0.024069 -0.483843
Cl31  Cl    Cl    0.820685 0.217178 0.502876 -0.466018
Cl32  Cl    Cl    0.780338 0.247638 0.998979 -0.517083
O61   O     O_3   0.771624 0.309376 0.472641 -0.623641
H63   H     H_    0.729935 0.291465 0.458353 0.391424
O62   O     O_3   0.786260 0.385230 0.023953 -0.579031
H64   H     H_    0.751902 0.392688 0.037338 0.390578

loop_
_geom_bond_atom_site_label_1
_geom_bond_atom_site_label_2
_ccdc_geom_bond_type
C194  C196  A    
C63   C65   A    
O53   H55   S    
C33   C45   S    
C185  C207  A    
C2    C202  S    
C39   C87   A    
C29   Cl29  S    
C67   O49   D    
C170  C176  A    
C171  C173  A    
Cr3   O44   S    
C21   O57   S    
C34   O32   A    
Cr2   O46   S    
C18   C210  A    
C84   C86   A    
C4    C142  A    
C57   C59   A    
C205  C211  A    
Cr1   O46   S    
C58   C60   A    
C128  C132  A    
C111  N5    S    
C105  C123  A    
C135  C137  A    
C61   C63   A    
C7    C203  A    
C227  H35   S    
C98   N2    Am   
C122  C170  A    
C50   C52   A    
C159  C161  A    
Cr2   O39   S    
C46   C72   A    
C206  C214  A    
C9    Cl27  S    
C182  C192  A    
C108  C124  A    
C39   Cl15  S    
C96   Cl4   S    
C33   O33   A    
C4    C208  A    
C77   C79   A    
C156  Cl18  S    
C181  H43   S    
C59   C61   A    
C90   H4    S    
C183  C201  A    
C140  C144  A    
C8    C204  A    
C25   C41   A    
C1    O38   A    
C26   C38   A    
C47   C81   A    
C212  C220  A    
C193  C199  A    
C21   C29   A    
C56   Cl32  S    
C78   Cl2   S    
C22   O58   S    
C223  N11   Am   
C92   C94   A    
C32   O30   A    
C20   C198  A    
C138  C140  A    
C126  C154  A    
C176  H28   S    
C185  H1    S    
C5    H33   S    
C82   C84   A    
C14   C206  A    
C6    H34   S    
O59   H61   S    
C143  C173  A    
O58   H60   S    
C33   O31   A    
C225  O17   D    
C187  C201  A    
C168  Cl6   S    
C177  C195  A    
Cr4   O28   S    
C207  H13   S    
Cr6   O36   S    
C150  H18   S    
C147  N7    Am   
C67   N3    Am   
C186  C208  A    
C3    C207  A    
C40   C88   A    
C156  C158  A    
C105  Cl7   S    
C64   C94   A    
C100  N6    Am   
C228  H36   S    
C99   C115  A    
C57   H49   S    
C80   N4    S    
C214  H40   S    
C170  Cl12  S    
Cr4   O25   S    
C159  C167  A    
C99   O7    D    
C160  C168  A    
C127  C131  A    
C12   C228  A    
C113  C161  A    
C74   H8    S    
C206  C212  A    
C142  O52   S    
C48   C52   A    
C28   C222  A    
C106  C124  A    
O54   H56   S    
C133  C135  A    
C73   C77   A    
C218  C226  A    
C161  C165  A    
C72   Cl22  S    
C113  C115  A    
C41   C89   A    
O51   H53   S    
C45   C71   A    
O52   H54   S    
C3    C141  A    
C38   C98   A    
C133  H21   S    
C152  H16   S    
O61   H63   S    
C146  N8    Am   
C182  H44   S    
C180  O20   D    
C24   O60   S    
C60   C62   A    
C40   Cl16  S    
C216  C218  A    
C173  H25   S    
C149  C151  A    
C174  H26   S    
C214  C216  A    
C43   C185  A    
C102  O12   D    
Cr3   O45   S    
C167  Cl5   S    
C188  C190  A    
Cr4   O37   S    
C188  C202  A    
C189  C191  A    
C87   O61   S    
C59   C67   A    
Cr6   O33   S    
C139  C143  A    
C194  C200  A    
C116  C118  A    
C62   C64   A    
C34   C46   S    
C30   Cl30  S    
C191  N9    S    
C109  H11   S    
C36   O36   A    
C21   C199  A    
C19   Cl23  S    
C81   C83   A    
C88   O62   S    
C172  C174  A    
C11   N11   S    
C186  H2    S    
C27   C221  A    
C226  N12   Am   
C177  O15   D    
C31   O29   A    
C104  C112  A    
C71   Cl21  S    
C49   C51   A    
C178  C196  A    
C119  O3    D    
C5    C227  A    
C42   C90   A    
C160  C162  A    
C208  H14   S    
C180  C200  A    
C128  C134  A    
C218  C220  A    
Cr5   O29   S    
C103  C105  A    
C106  Cl8   S    
C222  C224  A    
C169  Cl11  S    
C8    C10   A    
C20   Cl24  S    
C210  C212  A    
C95   Cl3   S    
C69   C79   A    
C31   C125  S    
C144  C174  A    
Cr1   O24   S    
C26   C42   A    
C119  N1    Am   
C120  N2    Am   
C92   H6    S    
C226  O18   D    
C22   C30   A    
C24   C28   A    
C141  O51   S    
C108  O54   S    
C5    C203  A    
C114  C116  A    
C90   C96   A    
C211  C219  A    
Cr3   O43   S    
C164  H52   S    
C224  O22   D    
C213  C215  A    
C52   C62   A    
C175  H27   S    
C25   C83   A    
C85   C95   A    
C42   C120  A    
C10   Cl28  S    
C82   C88   A    
C56   C58   A    
C150  C152  A    
C75   O1    A    
C97   O47   D    
C131  C139  A    
C23   O59   S    
C44   C54   S    
C113  C121  A    
C11   C227  A    
Cr2   O40   S    
C154  Cl14  S    
C217  C225  A    
C53   O40   A    
C195  C197  A    
C149  H17   S    
C68   N4    Am   
C155  C157  A    
C17   C29   A    
C75   O44   A    
C179  N9    Am   
C100  C116  A    
C107  C123  A    
C1    C201  S    
C104  C106  A    
C65   O5    D    
C3    N1    S    
C137  C139  A    
C66   O6    D    
C104  Cl10  S    
C22   C200  A    
C49   C91   A    
C17   C209  A    
C142  C164  A    
C7    H45   S    
C114  C162  A    
Cr1   O2    S    
C103  C111  A    
C157  N7    S    
C162  C166  A    
C43   C53   S    
C130  C172  A    
C115  C117  A    
C6    C228  A    
Cr3   O42   S    
C54   O43   A    
C26   C84   A    
O56   H58   S    
C36   O26   A    
C153  C155  A    
C154  C156  A    
C98   O48   D    
C205  C213  A    
C192  N10   S    
C180  N10   Am   
C107  C109  A    
C120  O4    D    
C68   O50   D    
C107  O53   S    
C19   C197  A    
C13   C19   A    
C70   C80   A    
C14   C20   A    
C171  H23   S    
C144  C146  A    
C93   H9    S    
C181  C183  A    
Cr6   O37   S    
C188  Cl20  S    
C24   C210  A    
C2    O39   A    
C47   C51   A    
C101  C121  A    
C89   C95   A    
C130  C132  A    
C6    C204  A    
C89   H3    S    
C91   C93   A    
C130  C166  A    
C31   O27   A    
Cr4   O26   S    
C41   C119  A    
C64   C66   A    
C81   C87   A    
C86   C96   A    
C53   O42   A    
C196  C198  A    
C83   C85   A    
C177  N9    Am   
C187  Cl19  S    
C13   C205  A    
C165  C175  A    
C172  H24   S    
C178  O16   D    
C101  N5    Am   
C102  N6    Am   
O57   H59   S    
C65   N3    Am   
C15   C17   A    
C190  C192  A    
C150  C158  A    
C137  C147  A    
C127  C133  A    
C1    O23   A    
C77   Cl1   S    
C223  O21   D    
C132  C140  A    
C148  N8    Am   
C63   C93   A    
C129  C165  A    
C125  C153  A    
C109  C111  A    
C134  H22   S    
C37   C39   A    
C70   H48   S    
C38   C40   A    
C181  C191  A    
C179  C199  A    
C117  C167  A    
C118  C168  A    
C54   O41   A    
C48   C82   A    
C78   C80   A    
C76   C124  S    
Cr6   O34   S    
C15   C193  A    
C73   H7    S    
C60   C68   A    
C74   C78   A    
C44   C164  A    
C102  C122  A    
C149  C157  A    
C44   C186  A    
C43   C163  A    
C184  H42   S    
C121  C169  A    
C163  H51   S    
C143  C145  A    
Cr4   O27   S    
O62   H64   S    
C51   C61   A    
C35   O25   A    
Cr6   O35   S    
C220  C222  A    
O60   H62   S    
C148  O10   D    
C76   O45   A    
C4    N2    S    
C75   C123  S    
C136  H20   S    
C198  H32   S    
C215  C217  A    
C32   C126  S    
C147  O9    D    
C225  N11   Am   
C189  H29   S    
C45   C73   A    
C12   N12   S    
C190  H30   S    
C69   C71   A    
C94   H10   S    
C25   C37   A    
Cr5   O30   S    
C69   H47   S    
C108  C110  A    
C193  C195  A    
C18   C30   A    
C23   C27   A    
C125  C151  A    
C179  O19   D    
C37   C97   A    
C100  O8    D    
C110  H12   S    
C155  Cl17  S    
C224  N12   Am   
C197  H31   S    
C126  C152  A    
C99   N5    Am   
C97   N1    Am   
C8    H46   S    
Cr1   O23   S    
Cr5   O37   S    
C110  C112  A    
C169  C175  A    
C184  C202  A    
Cr3   O46   S    
C49   C85   A    
C16   C194  A    
C158  N8    S    
C136  C138  A    
C138  C148  A    
C76   O2    A    
C134  C136  A    
C23   C209  A    
C2    O24   A    
Cr2   O38   S    
C118  O56   S    
C34   O34   A    
C219  C221  A    
C145  O13   D    
C183  H41   S    
C146  O14   D    
C28   Cl26  S    
C135  H19   S    
C9    C11   A    
C27   Cl25  S    
C10   C12   A    
C79   N3    S    
C50   C92   A    
C213  H39   S    
C141  C163  A    
C13   C15   A    
C112  N6    S    
C14   C16   A    
Cr2   O41   S    
C151  H15   S    
C127  C159  A    
Cr5   O31   S    
C46   C74   A    
C128  C160  A    
C47   C55   A    
C48   C56   A    
C182  C184  A    
C103  Cl9   S    
C129  C171  A    
C70   C72   A    
C217  C219  A    
O55   H57   S    
C166  C176  A    
C117  O55   S    
C55   C57   A    
C221  C223  A    
C145  N7    Am   
C178  N10   Am   
C35   C203  S    
Cr5   O32   S    
C58   H50   S    
C209  C211  A    
C35   O35   A    
Cr1   O1    S    
C187  C189  A    
C55   Cl31  S    
C50   C86   A    
C114  C122  A    
C7    C9    A    
C101  O11   D    
C66   N4    Am   
C16   C18   A    
C91   H5    S    
C32   O28   A    
C36   C204  S    
C215  H37   S    
C216  H38   S    
C129  C131  A    
C153  Cl13  S    
