data_mof_unit_68017.cif
_audit_creation_date              2012-12-11T14:03:22-0500
_audit_creation_method            fapswitch 2.2
_symmetry_space_group_name_H-M    P1
_symmetry_Int_Tables_number       1
_space_group_crystal_system       triclinic
_cell_length_a                    6.999349
_cell_length_b                    11.499981
_cell_length_c                    18.730006
_cell_angle_alpha                 89.999647
_cell_angle_beta                  94.192296
_cell_angle_gamma                 89.999512
_cell_volume                      1503.58884748

loop_
_atom_site_label
_atom_site_type_symbol
_atom_type_description
_atom_site_fract_x
_atom_site_fract_y
_atom_site_fract_z
_atom_type_partial_charge
O1    O     O_R   0.330540 0.606360 0.598870 -0.533907
O2    O     O_R   0.669460 0.106360 0.401130 -0.533935
O3    O     O_R   0.026770 0.620470 0.750430 -0.554164
O4    O     O_R   0.973230 0.120470 0.249570 -0.554166
O5    O     O_R   0.856460 0.393640 0.750930 -0.529568
O6    O     O_R   0.143540 0.893640 0.249070 -0.529558
C1    C     C_R   0.200249 0.647812 0.774642 0.670557
C2    C     C_R   0.799750 0.147820 0.225360 0.670556
O7    O     O_R   0.000920 0.620350 0.599420 -0.534959
O8    O     O_R   0.999080 0.120350 0.400580 -0.534915
O9    O     O_R   0.830430 0.393520 0.598850 -0.527845
O10   O     O_R   0.169570 0.893520 0.401150 -0.527815
C3    C     C_R   0.166224 0.647815 0.574818 0.695900
C4    C     C_R   0.833773 0.147823 0.425178 0.695905
O11   O     O_R   0.356570 0.606480 0.750960 -0.548465
O12   O     O_R   0.643430 0.106480 0.249040 -0.548456
O13   O     O_3   0.176990 0.425580 0.674890 -0.346841
O14   O     O_3   0.823010 0.925580 0.325110 -0.346894
V1    V     V_3+5 0.902170 0.513810 0.674910 1.515913
V2    V     V_3+5 0.097830 0.013810 0.325090 1.515980
O15   O     O_R   0.500800 0.379530 0.599380 -0.537329
O16   O     O_R   0.499200 0.879530 0.400620 -0.537413
C5    C     C_R   0.666035 0.351602 0.575010 0.699510
C6    C     C_R   0.333966 0.851602 0.424990 0.699667
O17   O     O_R   0.526650 0.379650 0.750390 -0.546711
O18   O     O_R   0.473350 0.879650 0.249610 -0.546757
C7    C     C_R   0.700198 0.353358 0.775089 0.742954
C8    C     C_R   0.299804 0.853356 0.224913 0.743117
V3    V     V_3+5 0.402160 0.486190 0.674900 1.517713
V4    V     V_3+5 0.597840 0.986190 0.325100 1.517559
O19   O     O_3   0.677210 0.574420 0.674910 -0.369136
O20   O     O_3   0.322790 0.074420 0.325090 -0.369112
C9    C     C_R   0.810751 0.075750 0.877920 0.354726
C10   C     C_R   0.189330 0.575739 0.122089 0.354592
H1    H     H_    0.895709 0.953258 0.000340 0.142850
H2    H     H_    0.104196 0.453280 0.999665 0.142823
C11   C     C_R   0.722569 0.268699 0.833867 -0.191224
C12   C     C_R   0.277440 0.768704 0.166133 -0.191295
C13   C     C_R   0.751853 0.347713 0.179697 -0.179250
C14   C     C_R   0.248224 0.847696 0.820298 -0.179188
C15   C     C_R   0.724770 0.429157 0.124255 0.082851
C16   C     C_R   0.275324 0.929144 0.875735 0.082839
C17   C     C_R   0.719350 0.390973 0.052974 -0.256433
C18   C     C_R   0.280686 0.890972 0.947017 -0.256342
C19   C     C_R   0.744823 0.272364 0.035606 0.089736
C20   C     C_R   0.255142 0.772370 0.964392 0.089747
C21   C     C_R   0.781975 0.192215 0.092923 0.072923
C22   C     C_R   0.217977 0.692219 0.907078 0.072873
C23   C     C_R   0.744196 0.231988 0.963135 0.071263
C24   C     C_R   0.255750 0.731998 0.036865 0.071311
C25   C     C_R   0.797365 0.114750 0.949528 -0.008287
C26   C     C_R   0.202610 0.614755 0.050476 -0.008269
C27   C     C_R   0.844772 0.040558 0.007645 -0.162041
C28   C     C_R   0.155153 0.540573 0.992360 -0.162046
C29   C     C_R   0.830166 0.076996 0.077533 -0.210728
C30   C     C_R   0.169740 0.577010 0.922470 -0.210724
C31   C     C_R   0.698133 0.305416 0.903680 -0.323217
C32   C     C_R   0.301776 0.805437 0.096317 -0.323242
C33   C     C_R   0.783384 0.155032 0.821160 0.390165
C34   C     C_R   0.216775 0.655014 0.178849 0.390303
C35   C     C_R   0.777900 0.229931 0.164817 -0.122253
C36   C     C_R   0.222098 0.729924 0.835183 -0.122272
H3    H     H_    0.647460 0.393109 0.909682 0.135186
H4    H     H_    0.352360 0.893148 0.090315 0.135174
H5    H     H_    0.755246 0.376016 0.234992 0.141680
H6    H     H_    0.244866 0.875989 0.765001 0.141695
H7    H     H_    0.702369 0.456684 0.012150 0.156388
H8    H     H_    0.297705 0.956687 0.987836 0.156365
H9    H     H_    0.864974 0.014545 0.119756 0.123420
H10   H     H_    0.134905 0.514562 0.880249 0.123425
C37   C     C_2   0.831449 0.234309 0.484079 -0.274779
C38   C     C_2   0.168541 0.734285 0.515906 -0.274749
C39   C     C_2   0.667795 0.264305 0.516470 -0.279306
C40   C     C_2   0.332208 0.764312 0.483535 -0.279354
O21   O     O_3   0.838762 0.123886 0.754402 -0.523437
C41   C     C_3   0.677043 0.087567 0.710764 0.106638
H11   H     H_    0.599647 0.164133 0.686842 0.137816
H12   H     H_    0.575694 0.035317 0.740508 0.130652
C42   C     C_3   0.743934 0.012363 0.650861 -0.561200
H13   H     H_    0.833662 0.939678 0.673454 0.234554
H14   H     H_    0.618473 0.975230 0.619144 0.212805
H15   H     H_    0.829649 0.065532 0.615409 0.234142
O22   O     O_3   0.161749 0.623813 0.245645 -0.523449
C43   C     C_3   0.323678 0.587369 0.289127 0.106430
H16   H     H_    0.401429 0.663878 0.312962 0.138122
H17   H     H_    0.424640 0.535022 0.259265 0.130507
C44   C     C_3   0.257113 0.512233 0.349117 -0.560903
H18   H     H_    0.166829 0.439714 0.326625 0.234741
H19   H     H_    0.382714 0.474867 0.380639 0.212660
H20   H     H_    0.172062 0.565524 0.384729 0.233874
C45   C     C_2   0.481861 0.210083 0.494651 0.848999
O23   O     O_2   0.385729 0.248311 0.442839 -0.554218
O24   O     O_R   0.425100 0.110043 0.529698 -0.665977
H21   H     H_    0.302735 0.075201 0.506614 0.303721
C46   C     C_2   0.518149 0.710118 0.505376 0.848962
O25   O     O_2   0.614276 0.748403 0.557172 -0.554232
O26   O     O_R   0.574890 0.610019 0.470384 -0.665955
H22   H     H_    0.697252 0.575199 0.493484 0.303745
O27   O     O_3   0.886447 0.968200 0.862005 -0.546059
C47   C     C_3   0.765951 0.874416 0.877536 0.049474
H23   H     H_    0.635642 0.900145 0.903435 0.106140
H24   H     H_    0.847654 0.815043 0.915176 0.154356
C48   C     C_3   0.713597 0.805307 0.809693 -0.620344
H25   H     H_    0.840558 0.795422 0.778426 0.238673
H26   H     H_    0.659927 0.718011 0.823705 0.182734
H27   H     H_    0.601942 0.850349 0.775472 0.184212
O28   O     O_3   0.113683 0.468182 0.138022 -0.546042
C49   C     C_3   0.234113 0.374393 0.122438 0.049439
H28   H     H_    0.364453 0.400133 0.096564 0.106195
H29   H     H_    0.152373 0.315095 0.084762 0.154334
C50   C     C_3   0.286382 0.305156 0.190240 -0.620176
H30   H     H_    0.159444 0.295348 0.221525 0.238731
H31   H     H_    0.339831 0.217831 0.176174 0.182663
H32   H     H_    0.398181 0.350048 0.224470 0.184127
C51   C     C_2   0.711951 0.555492 0.140305 0.759404
O29   O     O_2   0.728032 0.589874 0.202228 -0.548259
O30   O     O_R   0.689493 0.636150 0.084423 -0.682167
H33   H     H_    0.692041 0.719499 0.102094 0.293606
C52   C     C_2   0.288219 0.055471 0.859676 0.759646
O31   O     O_2   0.272408 0.089832 0.797747 -0.548314
O32   O     O_R   0.310442 0.136149 0.915555 -0.682145
H34   H     H_    0.307950 0.219491 0.897874 0.293623
C53   C     C_2   0.017244 0.287464 0.506740 0.864997
O33   O     O_2   0.112464 0.247586 0.558280 -0.535641
O34   O     O_R   0.073053 0.389494 0.473718 -0.665788
H35   H     H_    0.195634 0.423082 0.497424 0.292619
C54   C     C_2   0.982728 0.787384 0.493210 0.865069
O35   O     O_2   0.887549 0.747431 0.441683 -0.535586
O36   O     O_R   0.926885 0.889466 0.526166 -0.665857
H36   H     H_    0.804311 0.923019 0.502434 0.292622

loop_
_geom_bond_atom_site_label_1
_geom_bond_atom_site_label_2
_ccdc_geom_bond_type
C44   H18   S    
O24   H21   S    
H1    C27   S    
C46   O25   D    
O13   V3    S    
C4    C37   S    
C50   H30   S    
C43   C44   S    
O4    C2    A    
V1    O19   S    
O26   H22   S    
C23   C31   A    
C53   O33   D    
C13   C15   A    
O9    V1    S    
C10   O28   S    
C37   C53   S    
C15   C51   S    
O3    C1    A    
C34   O22   S    
C16   C52   S    
C53   O34   S    
O12   V4    S    
C51   O29   D    
C14   C36   A    
C49   H28   S    
O17   V3    S    
C2    O12   A    
C19   C21   A    
O7    C3    A    
O5    C7    A    
O7    V1    S    
O6    C8    A    
O22   C43   S    
C18   C20   A    
C51   O30   S    
C24   C26   A    
O28   C49   S    
C41   C42   S    
O3    V1    S    
O14   V4    S    
C8    C12   S    
C48   H27   S    
C15   C17   A    
C2    C35   S    
C52   O32   S    
C9    C33   A    
C12   C32   A    
C10   C34   A    
C13   H5    S    
C16   C18   A    
C5    C39   S    
C47   H24   S    
O18   C8    A    
C26   C28   A    
O11   V3    S    
C20   C22   A    
C27   C29   A    
C32   H4    S    
C13   C35   A    
C28   C30   A    
C38   C54   S    
C24   C32   A    
C41   H11   S    
C39   C45   S    
C38   C40   D    
O8    C4    A    
O8    V2    S    
C45   O23   D    
C37   C39   D    
C1    O11   A    
C23   C25   A    
O15   V3    S    
C47   C48   S    
C25   C27   A    
O21   C41   S    
C54   O36   S    
C1    C36   S    
C45   O24   S    
C22   C36   A    
O27   C47   S    
C19   C23   A    
O10   V2    S    
O1    V3    S    
C50   H31   S    
C29   H9    S    
C43   H16   S    
C17   C19   A    
O32   H34   S    
C11   C33   A    
C12   C34   A    
O18   V4    S    
C30   H10   S    
O15   C5    A    
O34   H35   S    
C48   H26   S    
O16   C6    A    
C18   H8    S    
O1    C3    A    
C54   O35   D    
C33   O21   S    
C21   C29   A    
O36   H36   S    
V2    O20   S    
C22   C30   A    
O10   C6    A    
O16   V4    S    
C10   C26   A    
C40   C46   S    
C31   H3    S    
C41   H12   S    
C14   C16   A    
C21   C35   A    
C42   H15   S    
C52   O31   D    
C46   O26   S    
O5    V1    S    
C3    C38   S    
C9    C25   A    
O6    V2    S    
C20   C24   A    
C42   H14   S    
C49   C50   S    
O2    V4    S    
C44   H19   S    
V3    O19   S    
O30   H33   S    
V4    O20   S    
C6    C40   S    
C7    C11   S    
O9    C5    A    
C47   H23   S    
O13   V1    S    
C49   H29   S    
C50   H32   S    
O14   V2    S    
O2    C4    A    
H2    C28   S    
C42   H13   S    
O4    V2    S    
C17   H7    S    
C44   H20   S    
C48   H25   S    
C43   H17   S    
C14   H6    S    
C9    O27   S    
C11   C31   A    
O17   C7    A    
