data_mof_unit_60432.cif
_audit_creation_date              2013-03-05T16:52:54-0500
_audit_creation_method            fapswitch 2.2
_symmetry_space_group_name_H-M    P1
_symmetry_Int_Tables_number       1
_space_group_crystal_system       triclinic
_cell_length_a                    15.865877
_cell_length_b                    15.062791
_cell_length_c                    17.565827
_cell_angle_alpha                 89.999752
_cell_angle_beta                  89.989876
_cell_angle_gamma                 90.003831
_cell_volume                      4197.95836288

loop_
_atom_site_label
_atom_site_type_symbol
_atom_site_description
_atom_site_fract_x
_atom_site_fract_y
_atom_site_fract_z
_atom_type_partial_charge
O1    O     O_R   0.378020 0.573650 0.500020 -0.594850
O2    O     O_R   0.621980 0.426350 0.499980 -0.593880
O3    O     O_R   0.621980 0.573650 0.499980 -0.593642
O4    O     O_R   0.378020 0.426350 0.500020 -0.594612
C1    C     C_R   0.338918 0.499996 0.500221 0.895643
C2    C     C_R   0.661082 0.500003 0.499779 0.897481
O5    O     O_R   0.500000 0.573690 0.389120 -0.616922
O6    O     O_R   0.500000 0.426310 0.610880 -0.616994
O7    O     O_R   0.500000 0.573690 0.610880 -0.616787
O8    O     O_R   0.500000 0.426310 0.389120 -0.616713
C3    C     C_R   0.499252 0.500000 0.353029 0.870016
C4    C     C_R   0.499245 0.500000 0.646971 0.869077
Zn1   Zn    Zn3+2 0.500000 0.598370 0.500000 1.019632
Zn2   Zn    Zn3+2 0.500000 0.401630 0.500000 1.019632
C5    C     C_R   0.478599 0.580653 0.847535 -0.143701
C6    C     C_R   0.478664 0.419341 0.152467 -0.144637
C7    C     C_R   0.478620 0.580653 0.152469 -0.144718
C8    C     C_R   0.478617 0.419341 0.847537 -0.143796
H1    H     H_    0.475728 0.643117 0.878065 0.145622
H2    H     H_    0.475815 0.356876 0.121938 0.145510
H3    H     H_    0.475737 0.643117 0.121941 0.145486
H4    H     H_    0.475761 0.356876 0.878067 0.145598
C9    C     C_R   0.488049 0.580785 0.769083 -0.174348
C10   C     C_R   0.488111 0.419212 0.230917 -0.175342
C11   C     C_R   0.488068 0.580785 0.230919 -0.175711
C12   C     C_R   0.488067 0.419212 0.769084 -0.174729
H5    H     H_    0.491364 0.643836 0.739587 0.168787
H6    H     H_    0.491447 0.356162 0.260411 0.168698
H7    H     H_    0.491369 0.643836 0.260414 0.168609
H8    H     H_    0.491396 0.356162 0.739589 0.168701
C13   C     C_R   0.492824 0.499999 0.729479 -0.043758
C14   C     C_R   0.492849 0.499999 0.270521 -0.043167
C15   C     C_R   0.473822 0.499996 0.886170 0.152482
C16   C     C_R   0.473853 0.499996 0.113836 0.152546
C17   C     C_1   0.469548 0.499996 0.966223 -0.043670
C18   C     C_1   0.469558 0.499996 0.033785 -0.043717
C19   C     C_R   0.956043 0.581634 0.497820 0.198697
C20   C     C_R   0.043967 0.418365 0.502214 0.198776
C21   C     C_R   0.043957 0.581546 0.504139 0.198782
C22   C     C_R   0.956053 0.418453 0.495895 0.198701
C23   C     C_R   0.913115 0.500086 0.493845 -0.200786
C24   C     C_R   0.086894 0.499913 0.506186 -0.200856
C25   C     C_1   0.823998 0.500048 0.495586 0.167066
C26   C     C_1   0.176009 0.499951 0.504436 0.166875
C27   C     C_1   0.250721 0.499982 0.502347 -0.095346
C28   C     C_1   0.749284 0.500018 0.497665 -0.096082
H9    H     H_    0.408109 0.081913 0.409815 0.151919
H10   H     H_    0.591876 0.918087 0.590186 0.152306
H11   H     H_    0.591875 0.081924 0.590186 0.152147
H12   H     H_    0.408110 0.918075 0.409815 0.151759
C29   C     C_R   0.448476 0.953107 0.449438 -0.131482
C30   C     C_R   0.551508 0.046893 0.550564 -0.131425
C31   C     C_R   0.551508 0.953114 0.550564 -0.131168
C32   C     C_R   0.448476 0.046886 0.449438 -0.131225
C33   C     C_R   0.499993 0.905044 0.500001 0.062863
C34   C     C_R   0.499993 0.094956 0.500001 0.062863
C35   C     C_1   0.499996 0.807188 0.500000 0.090655
C36   C     C_1   0.499996 0.192812 0.500000 0.090655
N1    N     N_1   0.500000 0.270550 0.500000 -0.078685
N2    N     N_1   0.500000 0.729450 0.500000 -0.078685
N3    N     N_R   0.089725 0.664038 0.505170 0.248069
O9    O     O_R   0.147403 0.678385 0.556375 -0.351111
O10   O     O_R   0.074080 0.725007 0.454626 -0.298754
N4    N     N_R   0.910287 0.335960 0.494862 0.248107
O11   O     O_R   0.852612 0.321611 0.443655 -0.350616
O12   O     O_R   0.925942 0.274985 0.545398 -0.298557
N5    N     N_R   0.910265 0.664116 0.498733 0.248074
O13   O     O_R   0.852597 0.680091 0.447877 -0.350381
O14   O     O_R   0.925904 0.723445 0.550695 -0.298974
N6    N     N_R   0.089747 0.335883 0.501298 0.248038
O15   O     O_R   0.147419 0.319909 0.552151 -0.350870
O16   O     O_R   0.074116 0.276561 0.449328 -0.299173

loop_
_geom_bond_atom_site_label_1
_geom_bond_atom_site_label_2
_geom_bond_distance
_ccdc_geom_bond_type
O3    Zn1   1.970839 S    
N3    O9    1.301310 A    
O5    C3    1.278325 A    
C20   N6    1.439272 S    
C12   H8    1.083124 S    
N6    O15   1.301311 A    
C9    H5    1.083125 S    
C8    C15   1.393664 A    
C31   C33   1.407610 A    
C29   C33   1.407618 A    
C17   C18   1.186772 T    
C8    C12   1.386185 A    
O6    C4    1.278323 A    
C6    H2    1.083942 S    
H11   C30   1.083121 S    
C7    C11   1.386185 A    
N4    O11   1.301312 A    
C29   C32   1.412581 A    
C11   C14   1.403732 A    
C10   C14   1.403733 A    
H12   C29   1.083123 S    
C12   C13   1.403731 A    
C19   C21   1.399250 A    
Zn1   N2    1.974432 S    
C1    C27   1.399814 S    
C30   C31   1.412573 A    
C5    H1    1.083941 S    
Zn2   N1    1.974432 S    
C23   C25   1.414249 S    
C15   C17   1.407823 S    
N4    O12   1.301294 A    
C25   C28   1.185956 T    
O2    C2    1.271076 A    
C24   C26   1.414220 S    
H9    C32   1.083125 S    
O1    C1    1.271070 A    
C19   N5    1.439260 S    
C5    C9    1.386184 A    
C22   C23   1.406227 A    
C20   C22   1.399263 A    
C34   C36   1.473984 S    
C3    C14   1.452889 S    
C20   C24   1.406223 A    
C21   C24   1.406219 A    
C16   C18   1.407826 S    
C33   C35   1.473983 S    
C4    C13   1.452885 S    
O4    Zn2   1.970840 S    
H10   C31   1.083124 S    
O2    Zn2   1.970790 S    
O7    C4    1.278323 A    
C32   C34   1.407615 A    
O1    Zn1   1.970791 S    
C7    C16   1.393663 A    
N5    O13   1.301309 A    
C10   H6    1.083125 S    
O5    Zn1   1.982860 S    
C21   N3    1.439271 S    
C26   C27   1.185933 T    
C11   H7    1.083125 S    
C6    C10   1.386186 A    
O8    C3    1.278323 A    
O3    C2    1.271058 A    
N5    O14   1.301297 A    
N3    O10   1.301293 A    
O7    Zn1   1.982857 S    
C35   N2    1.170948 T    
O6    Zn2   1.982860 S    
C2    C28   1.399880 S    
C6    C16   1.393666 A    
C36   N1    1.170948 T    
C8    H4    1.083939 S    
C19   C23   1.406240 A    
N6    O16   1.301294 A    
C7    H3    1.083942 S    
C30   C34   1.407612 A    
O8    Zn2   1.982857 S    
O4    C1    1.271049 A    
C5    C15   1.393665 A    
C9    C13   1.403731 A    
C22   N4    1.439265 S    
