data_mof_unit_55251.cif
_audit_creation_date              2012-12-10T17:19:03-0500
_audit_creation_method            fapswitch 2.2
_symmetry_space_group_name_H-M    P1
_symmetry_Int_Tables_number       1
_space_group_crystal_system       triclinic
_cell_length_a                    18.432449
_cell_length_b                    18.483118
_cell_length_c                    34.373042
_cell_angle_alpha                 90.090443
_cell_angle_beta                  89.858386
_cell_angle_gamma                 90.156881
_cell_volume                      11710.4276387

loop_
_atom_site_label
_atom_site_type_symbol
_atom_type_description
_atom_site_fract_x
_atom_site_fract_y
_atom_site_fract_z
_atom_type_partial_charge
C1    C     C_R   0.634246 0.986063 0.519767 -0.077283
C2    C     C_R   0.865926 0.504807 0.980057 -0.087822
C3    C     C_R   0.501958 0.930422 0.958592 0.036363
C4    C     C_R   0.932506 0.505664 0.041476 0.040668
C5    C     C_R   0.065508 0.490344 0.958547 0.033495
C6    C     C_R   0.498997 0.931154 0.041410 0.043992
C7    C     C_R   0.485150 0.062867 0.958692 0.046200
C8    C     C_R   0.000287 0.499850 0.644542 0.994490
C9    C     C_R   0.999899 0.499948 0.355453 0.974079
C10   C     C_R   0.500484 0.999978 0.644589 0.984243
C11   C     C_R   0.500126 0.000100 0.355438 0.968047
C12   C     C_R   0.500030 0.999846 0.144529 0.985812
C13   C     C_R   0.485516 0.130351 0.019165 -0.090083
C14   C     C_R   0.499879 0.999360 0.855449 0.985166
C15   C     C_R   0.000031 0.499966 0.144583 0.980498
C16   C     C_R   0.000013 0.499879 0.855430 0.966540
C17   C     C_R   0.860039 0.640033 0.750008 0.809764
C18   C     C_R   0.139898 0.360107 0.249972 0.807091
C19   C     C_R   0.360067 0.860060 0.750144 0.794390
C20   C     C_R   0.639881 0.139846 0.249943 0.801254
C21   C     C_R   0.143345 0.363017 0.751900 0.837966
C22   C     C_R   0.860001 0.639823 0.249984 0.807644
C23   C     C_R   0.639974 0.139832 0.749986 0.796992
C24   C     C_R   0.510418 0.865176 0.980025 -0.082653
C25   C     C_R   0.360195 0.860149 0.249876 0.799132
C26   C     C_R   0.859983 0.360106 0.250048 0.797492
C27   C     C_R   0.139861 0.639899 0.749855 0.795386
C28   C     C_R   0.360063 0.140005 0.250000 0.803123
C29   C     C_R   0.639883 0.860137 0.749958 0.805852
C30   C     C_R   0.139933 0.639904 0.250079 0.795489
C31   C     C_R   0.860139 0.360183 0.749973 0.797093
C32   C     C_R   0.640027 0.860089 0.249995 0.805151
C33   C     C_R   0.356601 0.136880 0.748020 0.836923
C34   C     C_R   0.195052 0.699410 0.677605 -0.142515
C35   C     C_R   0.866944 0.515708 0.020356 -0.077132
C36   C     C_R   0.801737 0.302702 0.322600 -0.151818
C37   C     C_R   0.332984 0.235078 0.681281 -0.112929
C38   C     C_R   0.691725 0.796727 0.322537 -0.146728
C39   C     C_R   0.807508 0.299180 0.677807 -0.138745
C40   C     C_R   0.197122 0.698468 0.322649 -0.154064
C41   C     C_R   0.692545 0.798295 0.677749 -0.129063
C42   C     C_R   0.308617 0.204911 0.322527 -0.148923
C43   C     C_R   0.200372 0.307102 0.322174 -0.213618
C44   C     C_R   0.796031 0.691330 0.677398 -0.208488
C45   C     C_R   0.297953 0.809145 0.321893 -0.214238
C46   C     C_R   0.132062 0.489011 0.979275 -0.088399
C47   C     C_R   0.701256 0.193602 0.677543 -0.215452
C48   C     C_R   0.799308 0.693773 0.322209 -0.214519
C49   C     C_R   0.277313 0.369136 0.700837 -0.203021
C50   C     C_R   0.699681 0.193301 0.322030 -0.214581
C51   C     C_R   0.298635 0.807571 0.677832 -0.209031
C52   C     C_R   0.693330 0.200259 0.177748 -0.137009
C53   C     C_R   0.303033 0.801214 0.822674 -0.167630
C54   C     C_R   0.807591 0.701198 0.177698 -0.128962
C55   C     C_R   0.166683 0.264324 0.818376 -0.129094
C56   C     C_R   0.304714 0.801495 0.177630 -0.134251
C57   C     C_R   0.498122 0.864842 0.020273 -0.079884
C58   C     C_R   0.694803 0.199905 0.822414 -0.149130
C59   C     C_R   0.192458 0.297897 0.177719 -0.130486
C60   C     C_R   0.809548 0.706419 0.822559 -0.144853
C61   C     C_R   0.699642 0.806790 0.822102 -0.212469
C62   C     C_R   0.297152 0.192060 0.177424 -0.211547
C63   C     C_R   0.798560 0.307866 0.822041 -0.216295
C64   C     C_R   0.199673 0.694884 0.177594 -0.209430
C65   C     C_R   0.222406 0.130261 0.798696 -0.191871
C66   C     C_R   0.702529 0.806728 0.177448 -0.209682
C67   C     C_R   0.201674 0.691017 0.821875 -0.219117
C68   C     C_R   0.469116 0.126912 0.979565 -0.114577
C69   C     C_R   0.799838 0.305566 0.177553 -0.210929
C70   C     C_R   0.225970 0.720767 0.642179 -0.018015
C71   C     C_R   0.769893 0.281211 0.357833 0.026946
C72   C     C_R   0.346044 0.293676 0.656295 -0.005391
C73   C     C_R   0.708320 0.760938 0.357300 0.022023
C74   C     C_R   0.777134 0.278319 0.642209 -0.008026
C75   C     C_R   0.227168 0.721912 0.357940 0.027106
C76   C     C_R   0.705538 0.760843 0.643074 -0.010325
C77   C     C_R   0.292014 0.241389 0.357190 0.022451
C78   C     C_R   0.237354 0.294291 0.356858 -0.083402
C79   C     C_R   0.275696 0.778485 0.714068 0.075797
C80   C     C_R   0.759939 0.707699 0.642708 -0.043789
C81   C     C_R   0.278556 0.778403 0.357551 -0.085092
C82   C     C_R   0.724472 0.222998 0.642090 -0.036628
C83   C     C_R   0.762649 0.707687 0.356992 -0.086861
C84   C     C_R   0.318771 0.362389 0.666794 -0.068788
C85   C     C_R   0.717352 0.225806 0.357481 -0.085294
C86   C     C_R   0.276631 0.777881 0.642269 -0.039257
C87   C     C_R   0.724023 0.220983 0.142153 -0.013950
C88   C     C_R   0.272860 0.777815 0.857986 0.027834
C89   C     C_R   0.793682 0.737843 0.142957 -0.007981
C90   C     C_R   0.723498 0.221960 0.285888 0.083713
C91   C     C_R   0.154900 0.205826 0.843568 0.016721
C92   C     C_R   0.272433 0.782171 0.142287 -0.008854
C93   C     C_R   0.724812 0.222674 0.857824 0.026506
C94   C     C_R   0.206039 0.260606 0.143048 -0.005711
C95   C     C_R   0.792566 0.743035 0.857141 0.020147
C96   C     C_R   0.736660 0.794614 0.856828 -0.084635
C97   C     C_R   0.261278 0.208332 0.142671 -0.037903
C98   C     C_R   0.778482 0.277023 0.857565 -0.086596
C99   C     C_R   0.220736 0.726013 0.142202 -0.038252
C100  C     C_R   0.179336 0.136633 0.832173 -0.067500
C101  C     C_R   0.258517 0.308606 0.723999 0.097720
C102  C     C_R   0.738099 0.789750 0.142593 -0.043269
C103  C     C_R   0.220923 0.721783 0.857554 -0.080431
C104  C     C_R   0.777036 0.275941 0.142094 -0.035328
C105  C     C_R   0.502515 0.004741 0.520743 0.031978
C106  C     C_R   0.501953 0.004701 0.479396 0.054918
C107  C     C_R   0.002808 0.500990 0.520665 0.033384
C108  C     C_R   0.001600 0.500660 0.479354 0.051117
C109  C     C_R   0.999261 0.498589 0.020677 0.028544
C110  C     C_R   0.998991 0.497834 0.979353 0.053117
C111  C     C_R   0.494186 0.997603 0.020624 0.032089
C112  C     C_R   0.368869 0.013997 0.481023 -0.095291
C113  C     C_R   0.774474 0.720556 0.285909 0.082729
C114  C     C_R   0.493772 0.996842 0.979286 0.050629
C115  C     C_2   0.182258 0.694776 0.892737 0.503010
C116  C     C_2   0.810331 0.304987 0.106055 0.331183
C117  C     C_2   0.161000 0.069114 0.853467 0.419984
C118  C     C_2   0.714311 0.827493 0.106833 0.330672
C119  C     C_2   0.818249 0.301841 0.892774 0.514894
C120  C     C_2   0.187041 0.697362 0.106221 0.335294
C121  C     C_2   0.716187 0.839997 0.890897 0.521262
C122  C     C_2   0.284350 0.169426 0.107007 0.318435
C123  C     C_2   0.158566 0.274200 0.108836 0.543400
C124  C     C_R   0.724507 0.221775 0.713926 0.079135
C125  C     C_2   0.832348 0.724046 0.893091 0.435296
C126  C     C_2   0.290283 0.824801 0.106770 0.540451
C127  C     C_2   0.696977 0.190365 0.894370 0.445234
C128  C     C_2   0.841196 0.724092 0.108637 0.547285
C129  C     C_2   0.118600 0.218849 0.881559 0.472338
C130  C     C_2   0.702735 0.181344 0.106142 0.533908
C131  C     C_2   0.298709 0.811456 0.894591 0.423732
C132  C     C_2   0.676283 0.201529 0.392438 0.517079
C133  C     C_2   0.308109 0.809177 0.606305 0.349530
C134  C     C_2   0.781673 0.662274 0.391152 0.523193
C135  C     C_R   0.275560 0.779003 0.285849 0.084185
C136  C     C_2   0.329113 0.428662 0.643022 0.380326
C137  C     C_2   0.316243 0.806032 0.392834 0.499906
C138  C     C_2   0.691904 0.193405 0.606022 0.332844
C139  C     C_2   0.218319 0.340489 0.390844 0.523111
C140  C     C_2   0.781892 0.667907 0.607126 0.327772
C141  C     C_2   0.658316 0.775287 0.608854 0.545973
C142  C     C_2   0.330747 0.220865 0.393235 0.431081
C143  C     C_2   0.798289 0.318363 0.606318 0.526792
C144  C     C_2   0.201716 0.687885 0.394523 0.433087
C145  C     C_2   0.393421 0.282452 0.621693 0.481234
C146  C     C_R   0.773375 0.719658 0.713971 0.078937
C147  C     C_2   0.669906 0.782486 0.393405 0.432074
C148  C     C_2   0.207785 0.679374 0.606272 0.549278
C149  C     C_2   0.794552 0.316106 0.394328 0.433417
C150  C     C_2   0.365447 0.987439 0.603058 0.414217
C151  C     C_2   0.632663 0.970921 0.394720 0.466815
C152  C     C_2   0.054822 0.375972 0.603256 0.492412
C153  C     C_2   0.015837 0.634519 0.395083 0.457773
C154  C     C_2   0.636663 0.012894 0.605095 0.424822
C155  C     C_2   0.368665 0.031300 0.395277 0.458549
C156  C     C_2   0.963636 0.630732 0.604584 0.428832
C157  C     C_R   0.225385 0.279911 0.285881 0.082483
C158  C     C_2   0.981379 0.366161 0.395604 0.468976
C159  C     C_2   0.864878 0.484735 0.105066 0.421669
C160  C     C_2   0.124978 0.447512 0.896102 0.482424
C161  C     C_2   0.530517 0.867775 0.104690 0.431783
C162  C     C_2   0.511855 0.133932 0.897508 0.506966
C163  C     C_2   0.134481 0.516745 0.104025 0.422950
C164  C     C_2   0.869408 0.538229 0.895691 0.480231
C165  C     C_2   0.469139 0.131086 0.104950 0.442594
C166  C     C_2   0.485831 0.863542 0.894338 0.453376
C167  C     C_2   0.701574 0.956693 0.537471 0.378956
C168  C     C_R   0.280283 0.227020 0.285965 0.039786
C169  C     C_2   0.296559 0.996057 0.464574 0.368698
C170  C     C_2   0.016117 0.704560 0.538771 0.383088
C171  C     C_2   0.039784 0.299475 0.461225 0.342911
C172  C     C_2   0.309982 0.068383 0.539197 0.390903
C173  C     C_2   0.706246 0.017193 0.461520 0.367219
C174  C     C_2   0.997904 0.297277 0.540250 0.374532
C175  C     C_2   0.960703 0.701050 0.461946 0.363136
C176  C     C_2   0.199712 0.455203 0.038269 0.376561
C177  C     C_2   0.794540 0.488827 0.961710 0.366989
C178  C     C_2   0.505141 0.202359 0.035354 0.381185
C179  C     C_R   0.720151 0.774220 0.714023 0.019352
C180  C     C_2   0.537282 0.797047 0.962089 0.360749
C181  C     C_2   0.799167 0.542918 0.038805 0.379830
C182  C     C_2   0.203369 0.501409 0.959821 0.372521
C183  C     C_2   0.479448 0.794273 0.038651 0.382330
C184  C     C_2   0.428567 0.187973 0.961497 0.390737
C185  C     C_R   0.223069 0.723494 0.286087 0.038985
C186  C     C_R   0.778795 0.275550 0.713986 0.023188
C187  C     C_R   0.719868 0.773752 0.285983 0.039744
C188  C     C_R   0.998230 0.633767 0.520303 -0.080068
C189  C     C_R   0.295688 0.243512 0.716991 0.022165
C190  C     C_R   0.776267 0.277175 0.286060 0.037990
C191  C     C_R   0.222154 0.723988 0.713936 0.021226
C192  C     C_R   0.775984 0.277827 0.213942 0.079859
C193  C     C_R   0.224389 0.720993 0.785851 0.085788
C194  C     C_R   0.726184 0.779621 0.213976 0.079319
C195  C     C_R   0.241307 0.190977 0.775699 0.097183
C196  C     C_R   0.223656 0.722494 0.213976 0.078628
C197  C     C_R   0.775498 0.278737 0.785888 0.085397
C198  C     C_R   0.273770 0.219866 0.213975 0.079932
C199  C     C_R   0.016785 0.368292 0.479994 -0.076373
C200  C     C_R   0.725227 0.779968 0.785852 0.082269
C201  C     C_R   0.780564 0.727549 0.785964 0.038937
C202  C     C_R   0.220237 0.274141 0.214022 0.018936
C203  C     C_R   0.722255 0.223942 0.785989 0.036122
C204  C     C_R   0.277634 0.776566 0.213928 0.020390
C205  C     C_R   0.203694 0.255895 0.782578 0.030571
C206  C     C_R   0.779698 0.725325 0.214020 0.019533
C207  C     C_R   0.276956 0.776411 0.786128 0.037021
C208  C     C_R   0.721684 0.224077 0.213957 0.021762
C209  C     C_R   0.303335 0.804330 0.750146 -0.139493
C210  C     C_R   0.372028 0.029419 0.520781 -0.093255
C211  C     C_R   0.696100 0.195906 0.249905 -0.137660
C212  C     C_R   0.205359 0.311423 0.754241 -0.178935
C213  C     C_R   0.803837 0.695986 0.249971 -0.141728
C214  C     C_R   0.696372 0.195945 0.749967 -0.137474
C215  C     C_R   0.303628 0.804392 0.249862 -0.136862
C216  C     C_R   0.803965 0.696507 0.749984 -0.143710
C217  C     C_R   0.195970 0.303867 0.249951 -0.141241
C218  C     C_R   0.303976 0.196396 0.249982 -0.140837
C219  C     C_R   0.695896 0.803904 0.749934 -0.141292
C220  C     C_R   0.196519 0.695866 0.250070 -0.136435
C221  C     C_R   0.635075 0.999186 0.479653 -0.085596
C222  C     C_R   0.803901 0.304059 0.749938 -0.136402
C223  C     C_R   0.696190 0.803806 0.249981 -0.141647
C224  C     C_R   0.294397 0.188214 0.745478 -0.177975
C225  C     C_R   0.803364 0.304215 0.250025 -0.137370
C226  C     C_R   0.196455 0.695640 0.749846 -0.138852
C227  C     C_R   0.435289 0.003109 0.582282 -0.050402
C228  C     C_R   0.566919 0.992826 0.417362 -0.069770
C229  C     C_R   0.019242 0.436971 0.582190 -0.050676
C230  C     C_R   0.001212 0.566737 0.417528 -0.060496
C231  C     C_R   0.568382 0.000510 0.582599 -0.044774
C232  C     C_R   0.009994 0.368184 0.520590 -0.088819
C233  C     C_R   0.434902 0.011329 0.417841 -0.065920
C234  C     C_R   0.989474 0.565978 0.582493 -0.047209
C235  C     C_R   0.998266 0.433919 0.417661 -0.066417
C236  C     C_R   0.933040 0.499187 0.082647 -0.046156
C237  C     C_R   0.063338 0.481713 0.917609 -0.077754
C238  C     C_R   0.507335 0.933179 0.082471 -0.043625
C239  C     C_R   0.496039 0.064071 0.917971 -0.045739
C240  C     C_R   0.066208 0.500511 0.082227 -0.045179
C241  C     C_R   0.933991 0.511860 0.917674 -0.070706
C242  C     C_R   0.488760 0.064811 0.082269 -0.047626
C243  C     C_R   0.986898 0.632961 0.480063 -0.084442
C244  C     C_R   0.498146 0.931304 0.917230 -0.063006
C245  C     C_R   0.501408 0.000229 0.602396 -0.109573
C246  C     C_R   0.500551 0.000693 0.397736 -0.105280
C247  C     C_R   0.001814 0.500724 0.602333 -0.098008
C248  C     C_R   0.999656 0.500204 0.397699 -0.103818
C249  C     C_R   0.999759 0.499920 0.102349 -0.106730
C250  C     C_R   0.999299 0.498855 0.897662 -0.111813
C251  C     C_R   0.499669 0.999410 0.102242 -0.108326
C252  C     C_R   0.499206 0.998217 0.897652 -0.103946
C253  C     C_R   0.569001 0.995894 0.541282 0.040240
C254  C     C_R   0.131600 0.480910 0.019766 -0.078151
C255  C     C_R   0.434432 0.008869 0.459147 0.045022
C256  C     C_R   0.997828 0.567709 0.541391 0.046873
C257  C     C_R   0.006441 0.433642 0.458748 0.035009
C258  C     C_R   0.436311 0.013580 0.541517 0.050422
C259  C     C_R   0.568726 0.999839 0.458517 0.037552
C260  C     C_R   0.009898 0.434680 0.541335 0.035793
C261  C     C_R   0.995384 0.567375 0.458738 0.037606
C262  C     C_R   0.066289 0.492348 0.041137 0.039726
C263  C     C_R   0.932163 0.503889 0.958787 0.035522
C264  C     C_R   0.490721 0.065064 0.040955 0.049558
H1    H     H_    0.150092 0.662324 0.675862 0.217307
H2    H     H_    0.842496 0.656547 0.674567 0.180728
H3    H     H_    0.332119 0.856557 0.323120 0.175634
H4    H     H_    0.665284 0.147601 0.675729 0.164627
H5    H     H_    0.846693 0.660133 0.324436 0.187191
H6    H     H_    0.262643 0.423252 0.709565 0.168343
H7    H     H_    0.665324 0.146087 0.323528 0.177293
H8    H     H_    0.333333 0.854599 0.676280 0.169979
H9    H     H_    0.647324 0.164373 0.176316 0.218286
H10   H     H_    0.347890 0.838471 0.824824 0.192985
H11   H     H_    0.841670 0.654282 0.175390 0.227084
H12   H     H_    0.847203 0.339184 0.324839 0.193597
H13   H     H_    0.149534 0.317493 0.827782 0.201143
H14   H     H_    0.350535 0.837536 0.175884 0.219309
H15   H     H_    0.648924 0.163809 0.824330 0.195409
H16   H     H_    0.158707 0.345025 0.175384 0.225503
H17   H     H_    0.845078 0.660744 0.825603 0.202788
H18   H     H_    0.651372 0.839246 0.824252 0.189099
H19   H     H_    0.344045 0.157763 0.174712 0.172105
H20   H     H_    0.833928 0.354332 0.823529 0.171125
H21   H     H_    0.164658 0.648169 0.175715 0.167984
H22   H     H_    0.236326 0.076181 0.789485 0.169787
H23   H     H_    0.351666 0.182179 0.672361 0.219158
H24   H     H_    0.655626 0.841009 0.174866 0.175058
H25   H     H_    0.167331 0.643729 0.823082 0.162931
H26   H     H_    0.835812 0.351548 0.175702 0.166386
H27   H     H_    0.149824 0.645778 0.890776 0.126329
H28   H     H_    0.866153 0.323858 0.106625 0.084255
H29   H     H_    0.194662 0.021479 0.849667 0.109349
H30   H     H_    0.693147 0.882128 0.108949 0.084570
H31   H     H_    0.852102 0.349925 0.891136 0.126378
H32   H     H_    0.131844 0.676786 0.107236 0.084267
H33   H     H_    0.666381 0.871190 0.890071 0.130852
H34   H     H_    0.657150 0.843297 0.325289 0.196617
H35   H     H_    0.304989 0.114638 0.109334 0.088223
H36   H     H_    0.164027 0.243128 0.082310 0.128876
H37   H     H_    0.805672 0.725728 0.921210 0.124531
H38   H     H_    0.263202 0.814692 0.079412 0.133788
H39   H     H_    0.693649 0.222170 0.920830 0.122407
H40   H     H_    0.835509 0.754816 0.082071 0.131920
H41   H     H_    0.124816 0.181038 0.905366 0.134991
H42   H     H_    0.729339 0.191595 0.078615 0.136760
H43   H     H_    0.302898 0.780036 0.921077 0.123385
H44   H     H_    0.643803 0.152509 0.390933 0.129477
H45   H     H_    0.853500 0.335105 0.676398 0.209799
H46   H     H_    0.362891 0.830855 0.606833 0.083344
H47   H     H_    0.830298 0.629260 0.390228 0.130241
H48   H     H_    0.328102 0.481335 0.657044 0.080521
H49   H     H_    0.346409 0.856455 0.391299 0.136721
H50   H     H_    0.636251 0.174019 0.606532 0.084588
H51   H     H_    0.169649 0.373425 0.389898 0.128355
H52   H     H_    0.801810 0.612881 0.609628 0.087809
H53   H     H_    0.662929 0.743886 0.582399 0.134426
H54   H     H_    0.303745 0.223076 0.421256 0.121188
H55   H     H_    0.772915 0.307117 0.578622 0.134481
H56   H     H_    0.152351 0.661134 0.324876 0.192279
H57   H     H_    0.197241 0.719178 0.421108 0.120785
H58   H     H_    0.417380 0.327727 0.606390 0.121812
H59   H     H_    0.697059 0.780768 0.421319 0.125209
H60   H     H_    0.233765 0.691258 0.578757 0.136268
H61   H     H_    0.796892 0.285826 0.421270 0.121601
H62   H     H_    0.322444 0.958945 0.587921 0.091381
H63   H     H_    0.668761 0.930184 0.406278 0.059809
H64   H     H_    0.100058 0.347992 0.589736 0.061267
H65   H     H_    0.052443 0.674953 0.406784 0.061912
H66   H     H_    0.678812 0.047245 0.593169 0.080409
H67   H     H_    0.659292 0.845790 0.675493 0.227491
H68   H     H_    0.333314 0.073695 0.405850 0.061082
H69   H     H_    0.924162 0.666405 0.591580 0.081947
H70   H     H_    0.944593 0.326573 0.408012 0.062175
H71   H     H_    0.823610 0.449803 0.092822 0.082195
H72   H     H_    0.153566 0.402385 0.909107 0.083899
H73   H     H_    0.570181 0.831435 0.092196 0.076929
H74   H     H_    0.540232 0.176785 0.912858 0.047831
H75   H     H_    0.175097 0.551714 0.091110 0.081629
H76   H     H_    0.834766 0.579125 0.908458 0.055068
H77   H     H_    0.427630 0.167053 0.094226 0.069480
H78   H     H_    0.343340 0.158532 0.325401 0.195745
H79   H     H_    0.449524 0.822246 0.905460 0.065227
H80   H     H_    0.753229 0.983960 0.533413 0.073964
H81   H     H_    0.251665 0.033544 0.467215 0.048300
H82   H     H_    0.982707 0.751782 0.533578 0.075146
H83   H     H_    0.009252 0.249986 0.466015 0.064559
H84   H     H_    0.254376 0.055653 0.531610 0.057093
H85   H     H_    0.752801 0.982240 0.465559 0.057042
H86   H     H_    0.032644 0.251428 0.533928 0.066205
H87   H     H_    0.990630 0.751225 0.465603 0.057289
H88   H     H_    0.250579 0.483447 0.033319 0.073877
H89   H     H_    0.152605 0.340255 0.324454 0.185398
H90   H     H_    0.748281 0.523800 0.966765 0.060706
H91   H     H_    0.468771 0.248028 0.032540 0.069346
H92   H     H_    0.507245 0.746882 0.965514 0.057252
H93   H     H_    0.748135 0.514529 0.034748 0.076248
H94   H     H_    0.249006 0.466069 0.965527 0.063374
H95   H     H_    0.512885 0.746917 0.033697 0.075252
H96   H     H_    0.439446 0.243623 0.969545 0.053996
O1    O     O_3   0.000000 0.500000 0.750000 -0.511795
O2    O     O_R   0.060740 0.500000 0.337440 -0.624834
O3    O     O_2   0.517100 0.852308 0.863569 -0.635136
O4    O     O_2   0.699865 0.900410 0.555898 -0.502139
O5    O     O_2   0.286499 0.938036 0.448477 -0.526955
O6    O     O_2   0.069749 0.710911 0.559199 -0.498306
O7    O     O_2   0.094434 0.297357 0.441234 -0.552895
O8    O     O_2   0.320990 0.117001 0.562555 -0.472235
O9    O     O_2   0.713674 0.072619 0.442729 -0.539831
O10   O     O_2   0.947475 0.289184 0.562885 -0.492075
O11   O     O_2   0.904155 0.701696 0.443654 -0.542682
O12   O     O_2   0.199609 0.400895 0.058337 -0.504146
O13   O     O_R   0.500000 0.939260 0.662560 -0.612708
O14   O     O_2   0.786591 0.435055 0.941565 -0.541527
O15   O     O_2   0.563392 0.211287 0.051475 -0.493839
O16   O     O_2   0.594538 0.796340 0.944271 -0.541978
O17   O     O_2   0.799747 0.598592 0.057849 -0.502998
O18   O     O_2   0.211987 0.552709 0.938004 -0.543384
O19   O     O_2   0.425092 0.788229 0.058680 -0.500058
O20   O     O_2   0.380510 0.175985 0.937927 -0.517615
O21   O     O_R   0.500000 0.060740 0.337440 -0.624612
O22   O     O_R   0.560740 0.000000 0.162560 -0.626399
O23   O     O_R   0.439260 0.000000 0.837440 -0.609834
O24   O     O_R   1.000000 0.560740 0.162560 -0.618605
O25   O     O_R   1.000000 0.439260 0.837440 -0.621164
O26   O     O_R   0.439260 0.000000 0.162560 -0.628707
O27   O     O_R   0.560740 0.000000 0.837440 -0.620938
O28   O     O_R   1.000000 0.439260 0.162560 -0.620555
O29   O     O_3   0.000000 0.500000 0.250000 -0.512026
O30   O     O_R   1.000000 0.560740 0.837440 -0.626831
O31   O     O_R   0.853850 0.585450 0.727070 -0.650246
O32   O     O_R   0.146150 0.414550 0.272930 -0.637597
O33   O     O_R   0.414550 0.853850 0.727070 -0.644324
O34   O     O_R   0.585450 0.146150 0.272930 -0.633699
O35   O     O_R   0.146150 0.414550 0.727070 -0.648138
O36   O     O_R   0.853850 0.585450 0.272930 -0.637426
O37   O     O_R   0.585450 0.146150 0.727070 -0.648303
O38   O     O_R   0.414550 0.853850 0.272930 -0.631505
O39   O     O_R   0.853850 0.414550 0.272930 -0.633336
O40   O     O_3   0.500000 0.000000 0.750000 -0.511297
O41   O     O_R   0.146150 0.585450 0.727070 -0.658450
O42   O     O_R   0.414550 0.146150 0.272930 -0.632834
O43   O     O_R   0.585450 0.853850 0.727070 -0.642081
O44   O     O_R   0.146150 0.585450 0.272930 -0.633224
O45   O     O_R   0.853850 0.414550 0.727070 -0.644567
O46   O     O_R   0.585450 0.853850 0.272930 -0.631379
O47   O     O_R   0.414550 0.146150 0.727070 -0.639177
O48   O     O_R   0.353850 0.085450 0.227070 -0.650841
O49   O     O_R   0.646150 0.914550 0.772930 -0.637356
O50   O     O_R   0.914550 0.353850 0.227070 -0.647397
O51   O     O_3   0.500000 0.000000 0.250000 -0.511264
O52   O     O_R   0.085450 0.646150 0.772930 -0.632094
O53   O     O_R   0.646150 0.914550 0.227070 -0.650632
O54   O     O_R   0.353850 0.085450 0.772930 -0.642622
O55   O     O_R   0.085450 0.646150 0.227070 -0.647488
O56   O     O_R   0.914550 0.353850 0.772930 -0.632895
O57   O     O_R   0.353850 0.914550 0.772930 -0.651133
O58   O     O_R   0.646150 0.085450 0.227070 -0.643111
O59   O     O_R   0.914550 0.646150 0.772930 -0.631702
O60   O     O_R   0.085450 0.353850 0.227070 -0.641488
O61   O     O_R   0.646150 0.085450 0.772930 -0.631102
O62   O     O_R   0.060740 0.500000 0.662560 -0.608994
O63   O     O_R   0.353850 0.914550 0.227070 -0.643555
O64   O     O_R   0.085450 0.353850 0.772930 -0.627573
O65   O     O_R   0.914550 0.646150 0.227070 -0.641288
O66   O     O_2   0.182679 0.727706 0.923522 -0.534443
O67   O     O_2   0.775365 0.311984 0.076194 -0.558229
O68   O     O_2   0.106834 0.064403 0.873805 -0.538616
O69   O     O_2   0.714111 0.797275 0.075232 -0.552755
O70   O     O_2   0.817206 0.267907 0.923188 -0.531000
O71   O     O_2   0.221129 0.692672 0.075837 -0.556245
O72   O     O_2   0.755406 0.846498 0.919236 -0.530603
O73   O     O_R   0.939260 0.500000 0.337440 -0.621176
O74   O     O_2   0.284639 0.198832 0.075235 -0.569108
O75   O     O_2   0.110036 0.319027 0.110350 -0.534847
O76   O     O_2   0.895998 0.706022 0.891563 -0.557812
O77   O     O_2   0.334118 0.874456 0.107947 -0.537857
O78   O     O_2   0.677427 0.127206 0.895230 -0.568017
O79   O     O_2   0.890000 0.679581 0.110092 -0.534439
O80   O     O_2   0.081798 0.272816 0.886928 -0.585114
O81   O     O_2   0.656368 0.134039 0.107002 -0.527734
O82   O     O_2   0.315886 0.875308 0.895441 -0.574745
O83   O     O_2   0.674735 0.236832 0.422449 -0.530694
O84   O     O_R   0.500000 0.060740 0.662560 -0.629426
O85   O     O_2   0.272576 0.814726 0.576547 -0.551790
O86   O     O_2   0.742422 0.657769 0.419683 -0.528893
O87   O     O_2   0.334232 0.426022 0.607649 -0.547635
O88   O     O_2   0.317575 0.772055 0.423224 -0.525223
O89   O     O_2   0.727324 0.186521 0.576203 -0.561453
O90   O     O_2   0.257577 0.345691 0.419243 -0.533539
O91   O     O_2   0.782061 0.696754 0.575207 -0.554187
O92   O     O_2   0.610886 0.821268 0.610283 -0.530687
O93   O     O_2   0.393848 0.200985 0.391902 -0.560934
O94   O     O_2   0.843087 0.367155 0.607493 -0.539377
O95   O     O_R   0.500000 0.939260 0.337440 -0.619631
O96   O     O_2   0.185346 0.623823 0.395259 -0.564370
O97   O     O_2   0.408129 0.221601 0.610290 -0.513695
O98   O     O_2   0.606896 0.802636 0.392244 -0.559658
O99   O     O_2   0.164989 0.628806 0.607249 -0.531130
O100  O     O_2   0.812640 0.379725 0.394592 -0.565986
O101  O     O_2   0.354128 0.007676 0.636352 -0.589240
O102  O     O_2   0.648423 0.999594 0.363833 -0.629627
O103  O     O_2   0.032762 0.354947 0.634821 -0.559343
O104  O     O_2   0.985754 0.646945 0.364202 -0.629235
O105  O     O_2   0.647500 0.983622 0.636360 -0.578631
O106  O     O_R   0.939260 0.500000 0.662560 -0.633721
O107  O     O_2   0.351899 0.999499 0.365437 -0.634361
O108  O     O_2   0.988093 0.646573 0.636481 -0.579184
O109  O     O_2   0.009755 0.352794 0.364273 -0.626546
O110  O     O_2   0.853003 0.513212 0.136517 -0.578065
O111  O     O_2   0.145872 0.470628 0.864734 -0.615438
O112  O     O_2   0.503895 0.852418 0.136197 -0.575648
O113  O     O_2   0.492082 0.145349 0.864206 -0.592384
O114  O     O_2   0.147184 0.489722 0.135675 -0.578008
O115  O     O_2   0.852644 0.512844 0.864130 -0.625877
O116  O     O_2   0.500384 0.147280 0.135034 -0.568466
Zn1   Zn    Zn3+2 0.000000 0.586740 0.782740 1.037753
Zn2   Zn    Zn3+2 0.500000 0.913260 0.717260 1.028412
Zn3   Zn    Zn3+2 0.913260 0.500000 0.282740 1.037695
Zn4   Zn    Zn3+2 0.086740 0.500000 0.717260 1.030170
Zn5   Zn    Zn3+2 0.500000 0.913260 0.282740 1.042497
Zn6   Zn    Zn3+2 0.500000 0.086740 0.717260 1.026657
Zn7   Zn    Zn3+2 0.086740 0.500000 0.282740 1.035452
Zn8   Zn    Zn3+2 0.913260 0.500000 0.717260 1.024362
Zn9   Zn    Zn3+2 0.000000 0.413260 0.217260 1.027662
Zn10  Zn    Zn3+2 0.413260 0.000000 0.782740 1.033057
Zn11  Zn    Zn3+2 0.586740 0.000000 0.217260 1.022913
Zn12  Zn    Zn3+2 0.000000 0.413260 0.782740 1.044299
Zn13  Zn    Zn3+2 0.000000 0.586740 0.217260 1.027604
Zn14  Zn    Zn3+2 0.586740 0.000000 0.782740 1.042512
Zn15  Zn    Zn3+2 0.413260 0.000000 0.217260 1.021219
Zn16  Zn    Zn3+2 0.500000 0.086740 0.282740 1.038411

loop_
_geom_bond_atom_site_label_1
_geom_bond_atom_site_label_2
_ccdc_geom_bond_type
C64   H21   S    
C159  H71   S    
C234  C256  A    
C190  C225  A    
C192  C208  A    
C159  C236  S    
O34   Zn16  S    
C105  C253  A    
C20   O58   A    
C125  O76   D    
C108  C257  A    
C228  C259  A    
O48   Zn15  S    
C39   H45   S    
C6    C238  A    
C204  C215  A    
C131  H43   S    
C242  C251  A    
C202  C217  A    
C154  H66   S    
C63   C98   A    
C137  H49   S    
O39   Zn3   S    
C142  O93   D    
C155  C233  S    
C1    C221  A    
C32   O53   A    
C39   C74   A    
C175  H87   S    
C34   H1    S    
C7    C68   A    
C104  C116  S    
C161  H73   S    
C50   C90   A    
C200  C201  A    
C2    C177  S    
C91   C100  A    
C196  C204  A    
O40   Zn2   S    
C36   C71   A    
C27   O41   A    
C35   C181  S    
C173  H85   S    
C136  H48   S    
C230  C261  A    
C240  C249  A    
C79   C191  A    
C59   H16   S    
O40   Zn6   S    
C198  C218  A    
C164  C241  S    
C157  C168  A    
C138  H50   S    
C101  C212  A    
O42   Zn16  S    
O31   Zn8   S    
C15   O28   A    
C62   H19   S    
C149  H61   S    
C166  O3    D    
O41   Zn4   S    
C112  C255  A    
C161  C238  S    
C15   C249  S    
C94   C97   A    
O23   Zn10  S    
C63   C197  A    
C117  H29   S    
O60   Zn9   S    
C131  O82   D    
C234  C247  A    
C156  O108  D    
C112  C169  S    
C149  O100  D    
C188  C256  A    
O30   Zn1   S    
O29   Zn13  S    
C25   O63   A    
C72   C84   A    
O65   Zn13  S    
C198  C202  A    
C55   H13   S    
C31   O45   A    
C70   C148  S    
C22   O36   A    
C133  H46   S    
C87   C130  S    
C30   C220  S    
C20   O34   A    
C68   C184  S    
C179  C219  A    
C180  H92   S    
C45   C81   A    
C240  C262  A    
C91   C129  S    
C160  H72   S    
C5    C46   A    
C67   H25   S    
C101  C189  A    
C31   O56   A    
C174  H86   S    
C139  O90   D    
C66   H24   S    
C82   C138  S    
O21   Zn16  S    
C41   C76   A    
C124  C186  A    
C156  H69   S    
O29   Zn3   S    
C14   O27   A    
O29   Zn9   S    
C136  O87   D    
C33   C224  S    
C45   H3    S    
C58   H15   S    
C241  C263  A    
C242  C264  A    
C60   H17   S    
C188  C243  A    
C100  C117  S    
C176  H88   S    
C9    O2    A    
C174  C232  S    
C73   C83   A    
C14   O23   A    
O35   Zn4   S    
C4    C109  A    
C105  C258  A    
C154  C231  S    
C41   H67   S    
C137  O88   D    
C6    C111  A    
C78   C139  S    
C37   H23   S    
C61   C96   A    
C67   C103  A    
C69   H26   S    
O63   Zn15  S    
C12   C251  S    
C8    O62   A    
C96   C121  S    
C36   C190  A    
C49   C84   A    
C161  O112  D    
C28   O48   A    
C15   O24   A    
C90   C211  A    
O1    Zn1   S    
C26   O50   A    
C228  C246  A    
C5    C110  A    
C26   C225  S    
C72   C145  S    
C122  H35   S    
O1    Zn8   S    
C122  O74   D    
C143  O94   D    
C143  H55   S    
C144  H57   S    
C64   C99   A    
C8    C247  S    
C156  C234  S    
C24   C57   A    
C195  C205  A    
C29   O43   A    
C169  H81   S    
C107  C108  A    
C1    C167  S    
C30   O44   A    
O58   Zn11  S    
C50   C85   A    
C125  H37   S    
C155  O107  D    
O46   Zn5   S    
C51   H8    S    
C4    C236  A    
C3    C24   A    
C231  C245  A    
O44   Zn7   S    
C129  H41   S    
C63   H20   S    
O27   Zn14  S    
C45   C135  A    
C22   O65   A    
C160  C237  S    
C142  H54   S    
C163  O114  D    
C119  H31   S    
C25   C215  S    
C120  H32   S    
O33   Zn2   S    
C116  H28   S    
C148  O99   D    
C181  H93   S    
O52   Zn1   S    
C60   C95   A    
C201  C216  A    
C147  H59   S    
O64   Zn12  S    
C62   C97   A    
O51   Zn15  S    
C176  O12   D    
C133  O85   D    
C169  O5    D    
C158  O109  D    
O95   Zn5   S    
C110  C263  A    
C171  O7    D    
C139  H51   S    
C53   H10   S    
C38   H34   S    
C154  O105  D    
C232  C260  A    
C167  O4    D    
C237  C250  A    
C121  O72   D    
C235  C248  A    
O43   Zn2   S    
O38   Zn5   S    
C90   C190  A    
C41   C179  A    
C163  H75   S    
C192  C225  A    
C165  O116  D    
C239  C252  A    
O106  Zn8   S    
C118  H30   S    
C76   C80   A    
C118  O69   D    
C170  H82   S    
C3    C114  A    
O36   Zn3   S    
C42   H78   S    
O1    Zn4   S    
C48   C83   A    
C46   C182  S    
C109  C262  A    
C76   C141  S    
C162  C239  S    
C59   C202  A    
C106  C259  A    
C187  C223  A    
C64   C196  A    
O51   Zn11  S    
C36   H12   S    
O49   Zn14  S    
C3    C244  A    
C51   C79   A    
C111  C264  A    
C155  H68   S    
C229  C247  A    
C229  C260  A    
O61   Zn14  S    
C50   H7    S    
C152  H64   S    
C42   C77   A    
C22   C213  S    
C170  C188  S    
C207  C209  A    
O2    Zn7   S    
C243  C261  A    
C88   C131  S    
C182  H94   S    
C92   C99   A    
C194  C223  A    
C13   C68   A    
C2    C35   A    
C145  O97   D    
C193  C207  A    
C185  C220  A    
C166  C244  S    
C120  O71   D    
C117  O68   D    
C166  H79   S    
C74   C143  S    
C173  C221  S    
C170  O6    D    
C189  C224  A    
C181  O17   D    
C77   C78   A    
C43   C78   A    
C81   C137  S    
C16   O25   A    
C5    C237  A    
C73   C147  S    
C7    C114  A    
C58   C93   A    
C132  H44   S    
C153  H65   S    
C49   C101  A    
C195  C224  A    
C238  C251  A    
C14   C252  S    
C113  C187  A    
C173  O9    D    
O26   Zn15  S    
O37   Zn6   S    
C9    O73   A    
C33   O54   A    
C51   C86   A    
C29   O49   A    
C138  O89   D    
C27   O52   A    
C141  O92   D    
C83   C134  S    
C55   C91   A    
C162  H74   S    
C227  C258  A    
C66   C194  A    
C39   C186  A    
C150  H62   S    
C43   H89   S    
C150  O101  D    
C42   C168  A    
C54   C206  A    
C121  H33   S    
O56   Zn12  S    
C59   C94   A    
C17   C216  S    
C17   O59   A    
C34   C70   A    
C40   H56   S    
C134  H47   S    
C178  H91   S    
C94   C123  S    
C134  O86   D    
C151  C228  S    
C186  C222  A    
C4    C35   A    
C23   O61   A    
C175  O11   D    
C6    C57   A    
O54   Zn10  S    
C145  H58   S    
C74   C82   A    
C184  O20   D    
C69   C192  A    
C165  H77   S    
C1    C253  A    
C11   O95   A    
O59   Zn1   S    
C151  O102  D    
C55   C205  A    
C23   O37   A    
O1    Zn12  S    
C183  H95   S    
C44   C80   A    
C44   H2    S    
C205  C212  A    
C43   C157  A    
C80   C140  S    
C65   H22   S    
C112  C210  A    
C103  C115  S    
C199  C232  A    
C227  C245  A    
C31   C222  S    
C86   C133  S    
C2    C263  A    
C126  H38   S    
C16   O30   A    
C157  C217  A    
C182  O18   D    
C108  C261  A    
C10   C245  S    
C12   O26   A    
C167  H80   S    
C206  C213  A    
C58   C203  A    
C191  C226  A    
O50   Zn9   S    
C115  H27   S    
C12   O22   A    
C174  O10   D    
C151  H63   S    
C32   C223  S    
C184  H96   S    
C79   C209  A    
C84   C136  S    
C19   C209  S    
C11   C246  S    
C129  O80   D    
C241  C250  A    
O29   Zn7   S    
C65   C100  A    
C92   C126  S    
C17   O31   A    
C10   O84   A    
C21   C212  S    
C18   O32   A    
C210  C258  A    
C130  H42   S    
C105  C106  A    
O84   Zn6   S    
C40   C75   A    
O40   Zn14  S    
C61   H18   S    
O22   Zn11  S    
C162  O113  D    
C159  O110  D    
C109  C110  A    
C47   C124  A    
C71   C149  S    
C128  O79   D    
C208  C211  A    
C8    O106  A    
C180  O16   D    
C146  C179  A    
C111  C114  A    
C231  C253  A    
C13   C264  A    
C75   C144  S    
C176  C254  S    
C87   C104  A    
C60   C201  A    
C33   O47   A    
C37   C72   A    
C200  C219  A    
C165  C242  S    
C160  O111  D    
C46   C254  A    
C163  C240  S    
C13   C178  S    
C116  O67   D    
C48   C113  A    
C65   C195  A    
C23   C214  S    
C140  H52   S    
C47   H4    S    
C37   C189  A    
C89   C102  A    
C153  O104  D    
C38   C187  A    
C66   C102  A    
C203  C214  A    
C123  H36   S    
C144  O96   D    
C113  C213  A    
C236  C249  A    
C19   O33   A    
O28   Zn9   S    
C98   C119  S    
C124  C214  A    
C175  C243  S    
O25   Zn12  S    
C164  H76   S    
C164  O115  D    
O40   Zn10  S    
C34   C191  A    
C193  C226  A    
C172  C210  S    
C85   C132  S    
C127  H39   S    
C233  C246  A    
C128  H40   S    
C199  C257  A    
C21   O35   A    
C26   O39   A    
C158  H70   S    
C141  H53   S    
C20   C211  S    
C9    C248  S    
C77   C142  S    
C171  C199  S    
C152  O103  D    
C99   C120  S    
C71   C85   A    
C49   H6    S    
C135  C215  A    
C25   O38   A    
C54   H11   S    
C44   C146  A    
C28   O42   A    
C102  C118  S    
C10   O13   A    
O55   Zn13  S    
O13   Zn2   S    
C61   C200  A    
C196  C220  A    
C147  O98   D    
C194  C206  A    
C140  O91   D    
C56   H14   S    
C32   O46   A    
C62   C198  A    
C54   C89   A    
C197  C222  A    
O62   Zn4   S    
C127  O78   D    
C16   C250  S    
C75   C81   A    
C126  O77   D    
C40   C185  A    
C177  H90   S    
C107  C260  A    
C93   C127  S    
C24   C180  S    
C97   C122  S    
C158  C235  S    
C95   C125  S    
C172  H84   S    
C56   C92   A    
C235  C257  A    
C130  O81   D    
O73   Zn3   S    
C254  C262  A    
C21   O64   A    
C89   C128  S    
C11   O21   A    
O32   Zn7   S    
C7    C239  A    
C48   H5    S    
C183  O19   D    
C153  C230  S    
C178  O15   D    
C70   C86   A    
C57   C183  S    
C88   C103  A    
C230  C248  A    
O53   Zn11  S    
C152  C229  S    
C19   O57   A    
C69   C104  A    
O24   Zn13  S    
O51   Zn5   S    
C28   C218  S    
C150  C227  S    
C244  C252  A    
C52   C208  A    
C18   O60   A    
C106  C255  A    
C47   C82   A    
C52   C87   A    
C171  H83   S    
C27   C226  S    
C52   H9    S    
C56   C204  A    
C177  O14   D    
C119  O70   D    
C221  C259  A    
O51   Zn16  S    
C115  O66   D    
C172  O8    D    
C132  O83   D    
C53   C207  A    
C135  C185  A    
C107  C256  A    
C197  C203  A    
C53   C88   A    
C30   O55   A    
C233  C255  A    
O57   Zn10  S    
C29   C219  S    
O47   Zn6   S    
C123  O75   D    
C95   C96   A    
O45   Zn8   S    
C168  C218  A    
C67   C193  A    
C18   C217  S    
C93   C98   A    
C148  H60   S    
C146  C216  A    
C38   C73   A    
