data_mof_unit_22234.cif
_audit_creation_date              2012-12-10T16:58:23-0500
_audit_creation_method            fapswitch 2.2
_symmetry_space_group_name_H-M    P1
_symmetry_Int_Tables_number       1
_space_group_crystal_system       triclinic
_cell_length_a                    7.737643
_cell_length_b                    8.573218
_cell_length_c                    23.466204
_cell_angle_alpha                 91.029455
_cell_angle_beta                  86.020303
_cell_angle_gamma                 93.769545
_cell_volume                      1549.41214644

loop_
_atom_site_label
_atom_site_type_symbol
_atom_type_description
_atom_site_fract_x
_atom_site_fract_y
_atom_site_fract_z
_atom_type_partial_charge
C1    C     C_R   0.545970 0.794879 0.498507 0.963954
C2    C     C_R   0.337139 0.474450 0.298994 0.391085
C3    C     C_R   0.656764 0.523416 0.760260 -0.153751
C4    C     C_R   0.343165 0.477123 0.239730 -0.153694
C5    C     C_R   0.498548 0.498472 0.792071 0.131198
C6    C     C_R   0.501364 0.502129 0.207930 0.131161
C7    C     C_2   0.570216 0.958353 0.497650 -0.342540
C8    C     C_2   0.429784 0.041647 0.502351 -0.342545
C9    C     C_R   0.502972 0.501338 0.610719 0.942373
C10   C     C_R   0.497028 0.498677 0.389281 0.942377
C11   C     C_R   0.470360 0.362853 0.119161 0.564817
C12   C     C_R   0.454030 0.205121 0.501493 0.963966
C13   C     C_R   0.529585 0.637779 0.880837 0.564839
C14   C     C_R   0.533103 0.639993 0.119151 0.603416
C15   C     C_R   0.466843 0.360641 0.880851 0.603382
C16   C     C_R   0.534762 0.642187 0.059678 -0.027800
C17   C     C_R   0.465196 0.358451 0.940323 -0.027775
C18   C     C_R   0.500525 0.500587 0.029900 -0.011337
C19   C     C_R   0.499434 0.500052 0.970100 -0.011336
C20   C     C_R   0.467125 0.359548 0.059778 -0.020861
C21   C     C_R   0.532832 0.641089 0.940221 -0.020871
C22   C     C_R   0.569538 0.781815 0.029492 -0.144651
C23   C     C_R   0.343461 0.475520 0.764867 0.474533
C24   C     C_R   0.430425 0.218823 0.970508 -0.144651
C25   C     C_R   0.568672 0.781261 0.970220 -0.147296
C26   C     C_R   0.431291 0.219377 0.029779 -0.147303
C27   C     C_R   0.656467 0.524953 0.235140 0.474534
C28   C     C_R   0.348365 0.475589 0.705684 -0.266245
C29   C     C_R   0.651607 0.524659 0.294325 -0.266258
C30   C     C_R   0.506903 0.500671 0.673040 -0.219359
C31   C     C_R   0.493096 0.499489 0.326959 -0.219357
C32   C     C_R   0.662836 0.525867 0.700993 0.391009
Cl1   Cl    Cl    0.141554 0.449993 0.804087 -0.547732
Cl2   Cl    Cl    0.858353 0.550562 0.195928 -0.547763
Cl3   Cl    Cl    0.868209 0.567334 0.665190 -0.588798
Cl4   Cl    Cl    0.131814 0.432871 0.334776 -0.588804
H1    H     H_    0.598316 0.891525 0.051516 0.196187
H2    H     H_    0.297241 0.990377 0.506833 0.187541
H3    H     H_    0.013515 0.379600 0.458223 0.232027
H4    H     H_    0.986486 0.620404 0.541775 0.232061
H5    H     H_    0.401647 0.109113 0.948484 0.196192
H6    H     H_    0.596816 0.890568 0.948017 0.193771
H7    H     H_    0.403148 0.110069 0.051982 0.193776
H8    H     H_    0.227335 0.455941 0.685314 0.247452
H9    H     H_    0.772649 0.544200 0.314704 0.247463
H10   H     H_    0.775313 0.542847 0.782056 0.230241
H11   H     H_    0.224609 0.457779 0.217928 0.230241
H12   H     H_    0.702760 0.009623 0.493167 0.187540
N1    N     N_R   0.502911 0.501579 0.147278 -0.339131
N2    N     N_R   0.497019 0.499051 0.852722 -0.339130
N3    N     N_2   0.950330 0.457950 0.484560 -0.150612
N4    N     N_2   0.049670 0.542050 0.515440 -0.150606
O1    O     O_R   0.389250 0.738570 0.503790 -0.615343
O2    O     O_2   0.558021 0.771722 0.851261 -0.500060
O3    O     O_2   0.560571 0.774635 0.148830 -0.487246
O4    O     O_2   0.439375 0.225995 0.851175 -0.487279
O5    O     O_R   0.610750 0.261430 0.496210 -0.615341
O6    O     O_R   0.678390 0.711620 0.493890 -0.627467
O7    O     O_R   0.321610 0.288380 0.506110 -0.627470
O8    O     O_R   0.355400 0.513520 0.588790 -0.607061
O9    O     O_R   0.644600 0.486480 0.411210 -0.607068
O10   O     O_R   0.644550 0.486570 0.578900 -0.578775
O11   O     O_R   0.355450 0.513430 0.421100 -0.578795
O12   O     O_2   0.441923 0.228905 0.148734 -0.500062
Zn1   Zn    Zn3+2 0.306930 0.518000 0.506610 1.017517
Zn2   Zn    Zn3+2 0.693070 0.482000 0.493390 1.017518

loop_
_geom_bond_atom_site_label_1
_geom_bond_atom_site_label_2
_ccdc_geom_bond_type
C25   H6    S    
C26   H7    S    
C2    C4    A    
N4    Zn1   S    
O11   Zn1   S    
C29   H9    S    
C11   N1    A    
C27   C29   A    
O1    Zn1   S    
C3    H10   S    
H3    N3    S    
C6    C27   A    
C5    C23   A    
O5    Zn2   S    
C8    C12   S    
C9    O8    A    
C7    H12   S    
C28   C30   A    
C14   O3    S    
N3    Zn2   S    
C13   C21   A    
C7    C8    D    
C29   C31   A    
C1    C7    S    
C1    O6    A    
C15   O4    S    
C30   C32   A    
C24   H5    S    
C22   H1    S    
C4    H11   S    
C20   C26   A    
C9    C30   S    
C12   O5    A    
C10   C31   S    
C4    C6    A    
C13   N2    A    
C19   C21   A    
C24   C26   A    
O8    Zn1   S    
C11   O12   S    
C18   C20   A    
C8    H2    S    
C27   Cl2   S    
C3    C32   A    
C5    N2    S    
C14   C16   A    
C11   C20   A    
C17   C24   A    
C23   C28   A    
O10   Zn2   S    
C9    O10   A    
C10   O9    A    
C32   Cl3   S    
C3    C5    A    
N3    N4    D    
C14   N1    A    
C28   H8    S    
C16   C18   A    
C13   O2    S    
C15   N2    A    
C2    Cl4   S    
C15   C17   A    
C1    O1    A    
C18   C19   A    
C21   C25   A    
C17   C19   A    
H4    N4    S    
C12   O7    A    
O9    Zn2   S    
O6    Zn2   S    
O7    Zn1   S    
C6    N1    S    
C10   O11   A    
C16   C22   A    
C2    C31   A    
C23   Cl1   S    
C22   C25   A    
