data_mof_unit_26624.cif
_audit_creation_date              2012-12-11T16:45:10-0500
_audit_creation_method            fapswitch 2.2
_symmetry_space_group_name_H-M    P1
_symmetry_Int_Tables_number       1
_space_group_crystal_system       triclinic
_cell_length_a                    8.23598
_cell_length_b                    17.340255
_cell_length_c                    18.759476
_cell_angle_alpha                 98.795522
_cell_angle_beta                  91.756033
_cell_angle_gamma                 96.20291
_cell_volume                      2629.07475671

loop_
_atom_site_label
_atom_site_type_symbol
_atom_type_description
_atom_site_fract_x
_atom_site_fract_y
_atom_site_fract_z
_atom_type_partial_charge
Ba1   Ba    Ba6+2 0.849550 0.533890 0.465080 1.663076
Ba2   Ba    Ba6+2 0.340280 0.466170 0.534930 1.638568
C1    C     C_3   0.510624 0.774607 0.227455 0.237412
C2    C     C_3   0.600460 0.737863 0.285633 0.713256
C3    C     C_3   0.477364 0.340883 0.315572 0.314524
C4    C     C_3   0.459759 0.315039 0.234278 -0.394578
C5    C     C_3   0.027390 0.273552 0.734737 0.409367
C6    C     C_3   0.926795 0.198105 0.748497 -0.383953
C7    C     C_3   0.546122 0.263921 0.686187 0.387143
C8    C     C_3   0.504923 0.181024 0.702910 -0.386473
C9    C     C_R   0.997229 0.461815 0.047886 0.005578
C10   C     C_R   0.898765 0.424819 0.095781 0.031272
C11   C     C_R   0.739033 0.391688 0.072924 -0.079882
C12   C     C_3   0.111268 0.676696 0.266622 0.467332
C13   C     C_R   0.677803 0.394689 0.003179 -0.087900
C14   C     C_R   0.775753 0.430060 0.954518 0.031902
C15   C     C_R   0.935857 0.464151 0.976877 0.015540
C16   C     C_R   0.716676 0.430306 0.883633 -0.110347
C17   C     C_R   0.816365 0.462736 0.833296 -0.042961
C18   C     C_R   0.975463 0.499959 0.856311 -0.008263
C19   C     C_R   0.034511 0.500222 0.928320 -0.007514
C20   C     C_R   0.764046 0.456878 0.760021 -0.010256
C21   C     C_R   0.870489 0.485866 0.710958 -0.287615
C22   C     C_R   0.022925 0.527722 0.733231 0.054683
C23   C     C_3   0.086075 0.685302 0.187535 -0.347284
C24   C     C_R   0.076816 0.535509 0.807265 -0.049873
C25   C     C_R   0.156995 0.495850 0.070735 -0.008239
C26   C     C_R   0.216000 0.496426 0.142816 0.000108
C27   C     C_R   0.114014 0.461906 0.192192 -0.050052
C28   C     C_R   0.959664 0.422460 0.166101 -0.045098
C29   C     C_R   0.230512 0.575408 0.833633 -0.046242
C30   C     C_R   0.292152 0.571973 0.903567 0.032292
C31   C     C_R   0.194130 0.534392 0.951229 0.005404
C32   C     C_R   0.255839 0.531634 0.022074 0.014936
C33   C     C_R   0.452432 0.604351 0.926145 -0.079311
C34   C     C_3   0.221742 0.706941 0.620881 0.315343
C35   C     C_R   0.514638 0.600094 0.995402 -0.089834
C36   C     C_R   0.416497 0.565042 0.044172 0.036568
C37   C     C_R   0.375534 0.533239 0.165607 -0.041189
C38   C     C_R   0.475898 0.564448 0.114908 -0.120326
C39   C     C_R   0.427896 0.539743 0.238948 -0.025881
C40   C     C_R   0.322768 0.509797 0.287969 -0.295557
C41   C     C_R   0.168557 0.469753 0.266152 0.034701
C42   C     C_R   0.405748 0.717405 0.467839 -0.278717
C43   C     C_R   0.551724 0.745183 0.507931 0.090205
C44   C     C_R   0.607706 0.825517 0.517890 -0.064541
C45   C     C_3   0.246063 0.796058 0.639243 -0.396015
C46   C     C_R   0.516637 0.878139 0.488665 0.031355
C47   C     C_R   0.365799 0.850110 0.451170 -0.045388
C48   C     C_R   0.309664 0.769546 0.441364 -0.006353
C49   C     C_R   0.589471 0.163304 0.486011 -0.111489
C50   C     C_R   0.642601 0.243601 0.493128 0.024321
C51   C     C_R   0.887113 0.224899 0.560856 -0.002835
C52   C     C_R   0.835759 0.143781 0.552778 -0.136972
C53   C     C_R   0.684461 0.113106 0.516566 0.004428
C54   C     C_1   0.627834 0.030019 0.507591 0.015814
C55   C     C_1   0.576943 0.960879 0.499043 0.044000
C56   C     C_3   0.971956 0.293556 0.380771 0.299104
C57   C     C_R   0.787152 0.274348 0.532943 -0.276738
C58   C     C_3   0.942461 0.204487 0.362342 -0.374942
C59   C     C_3   0.714866 0.643609 0.682886 0.314641
C60   C     C_3   0.731614 0.670607 0.764091 -0.403278
H1    H     H_    0.343620 0.814701 0.682548 0.122985
H2    H     H_    0.281747 0.822372 0.591115 0.040876
H3    H     H_    0.130404 0.818066 0.657922 0.126559
H4    H     H_    0.858365 0.316633 0.399450 0.006158
H5    H     H_    0.069018 0.309331 0.424374 0.077330
H6    H     H_    0.837916 0.187036 0.322228 0.135795
H7    H     H_    0.914782 0.178205 0.411349 0.073931
H8    H     H_    0.053481 0.181211 0.339464 0.134497
H9    H     H_    0.833582 0.627281 0.663533 0.007210
H10   H     H_    0.620428 0.592023 0.671454 0.069232
H11   H     H_    0.832526 0.719176 0.777218 0.125846
H12   H     H_    0.758528 0.621580 0.792449 0.058293
H13   H     H_    0.615769 0.691685 0.783563 0.117808
H14   H     H_    0.507977 0.714244 0.320965 -0.073815
H15   H     H_    0.357621 0.356633 0.335001 0.016194
H16   H     H_    0.570187 0.393198 0.326864 0.062397
H17   H     H_    0.362582 0.264764 0.220965 0.132227
H18   H     H_    0.426494 0.364157 0.207271 0.057773
H19   H     H_    0.577204 0.296941 0.213790 0.118878
H20   H     H_    0.438451 0.726419 0.190060 0.004619
H21   H     H_    0.167349 0.649887 0.153850 0.059704
H22   H     H_    0.943654 0.312329 0.714286 -0.055639
H23   H     H_    0.841721 0.211612 0.792295 0.084180
H24   H     H_    0.854353 0.169706 0.699103 0.082770
H25   H     H_    0.007840 0.155549 0.763861 0.119637
H26   H     H_    0.679470 0.274333 0.679988 -0.082979
H27   H     H_    0.481154 0.267608 0.634390 0.098965
H28   H     H_    0.556190 0.176492 0.757304 0.108145
H29   H     H_    0.556746 0.138355 0.662090 0.070319
H30   H     H_    0.038151 0.621455 0.274748 0.060784
H31   H     H_    0.370674 0.165231 0.701270 0.148210
H32   H     H_    0.660754 0.363841 0.109180 0.063882
H33   H     H_    0.553994 0.368672 0.987092 0.066731
H34   H     H_    0.830246 0.479469 0.654720 0.067269
H35   H     H_    0.593804 0.403136 0.867950 0.104099
H36   H     H_    0.882785 0.391169 0.200316 0.100956
H37   H     H_    0.306893 0.607385 0.799747 0.098790
H38   H     H_    0.530575 0.632362 0.889974 0.063141
H39   H     H_    0.639304 0.624975 0.010979 0.065999
H40   H     H_    0.599718 0.590267 0.130229 0.093236
H41   H     H_    0.242402 0.671653 0.277591 -0.109415
H42   H     H_    0.363824 0.515581 0.344058 0.072678
H43   H     H_    0.477076 0.139746 0.455020 0.089202
H44   H     H_    0.291371 0.890645 0.431002 0.117677
H45   H     H_    0.913692 0.104993 0.573478 0.072696
H46   H     H_    0.720469 0.847090 0.549336 0.068573
H47   H     H_    0.361528 0.655565 0.461384 0.062215
H48   H     H_    0.827910 0.336437 0.537534 0.064364
H49   H     H_    0.958209 0.663733 0.168236 0.114368
H50   H     H_    0.115621 0.747226 0.179632 0.172511
H51   H     H_    0.339122 0.685599 0.605381 0.001205
H52   H     H_    0.129752 0.690044 0.575149 0.061511
O1    O     O_2   0.878040 0.448040 0.325130 -0.466660
O2    O     O_3   0.670054 0.705717 0.650032 -0.641710
O3    O     O_3   0.061915 0.741822 0.311977 -0.497134
O4    O     O_2   0.311660 0.551990 0.674910 -0.468038
O5    O     O_3   0.062910 0.546080 0.585630 -0.493443
O6    O     O_3   0.538690 0.410940 0.631180 -0.480027
O7    O     O_3   0.168858 0.676560 0.682079 -0.640314
O8    O     O_3   0.620260 0.406250 0.463620 -0.478380
O9    O     O_3   0.120960 0.369680 0.595180 -0.464224
O10   O     O_2   0.222718 0.231187 0.550984 -0.492542
O11   O     O_3   0.149736 0.254428 0.686082 -0.584173
O12   O     O_3   0.126800 0.453980 0.414370 -0.490610
O13   O     O_3   0.569440 0.593820 0.536390 -0.490875
O14   O     O_2   0.359400 0.311980 0.465480 -0.458813
O15   O     O_3   0.526263 0.278921 0.348158 -0.636234
O16   O     O_2   0.425787 0.463267 0.757075 -0.490650
O17   O     O_3   0.497152 0.318669 0.742313 -0.598737
O18   O     O_3   0.651020 0.589120 0.368830 -0.455926
O19   O     O_2   0.762601 0.535288 0.243212 -0.497526
O20   O     O_3   0.018903 0.323482 0.318554 -0.638916
O21   O     O_3   0.696124 0.680072 0.253456 -0.629937
O22   O     O_2   0.830300 0.688050 0.534560 -0.464459
O23   O     O_3   0.068750 0.630380 0.404830 -0.506414
O24   O     O_2   0.970575 0.769059 0.446165 -0.423036
P1    P     P_3+3 0.048060 0.426210 0.336320 0.972476
P2    P     P_3+3 0.655920 0.678120 0.556130 0.989889
P3    P     P_3+3 0.103845 0.730407 0.401801 1.058833
P4    P     P_3+3 0.141640 0.573850 0.663690 0.976554
P5    P     P_3+3 0.092545 0.268471 0.598332 0.955912
P6    P     P_3+3 0.632508 0.586438 0.275453 0.942270
P7    P     P_3+3 0.539385 0.307789 0.441914 0.949157
P8    P     P_3+3 0.557029 0.413377 0.723984 0.945164
Cl1   Cl    Cl    0.730707 0.812632 0.342425 -0.617620
C61   C     C_3   0.618387 0.825388 0.182331 -0.141836
C62   C     C_3   0.752684 0.784200 0.144363 -0.444409
H53   H     H_    0.852552 0.782898 0.184625 0.207220
H54   H     H_    0.705625 0.723964 0.118097 0.126211
H55   H     H_    0.802571 0.817919 0.102591 0.125558
H56   H     H_    0.674800 0.880306 0.216689 0.187926
H57   H     H_    0.538091 0.843046 0.140342 0.125317
Cl2   Cl    Cl    0.371402 0.837297 0.270133 -0.718419
C63   C     C_3   0.106953 0.320717 0.805895 -0.138839
C64   C     C_3   0.212886 0.275076 0.848972 -0.366549
H58   H     H_    0.134690 0.232739 0.875586 0.103410
H59   H     H_    0.296324 0.242540 0.813844 0.178353
H60   H     H_    0.286968 0.316707 0.891703 0.111726
H61   H     H_    0.182424 0.373505 0.793511 0.147375
H62   H     H_    0.009299 0.341071 0.841068 0.055543

loop_
_geom_bond_atom_site_label_1
_geom_bond_atom_site_label_2
_ccdc_geom_bond_type
O18   P6    S    
C35   H39   S    
C53   C54   S    
O6    P8    S    
C50   P7    S    
O16   P8    D    
C39   C40   A    
C17   C18   A    
O22   P2    D    
Ba1   O18   S    
C34   H52   S    
Ba2   O4    S    
C46   C55   S    
C37   C39   A    
C43   C44   A    
C56   O20   S    
C10   C11   A    
C26   C27   A    
C64   H58   S    
C52   H45   S    
O17   P8    S    
C63   C64   S    
C33   C35   A    
C22   C24   A    
C6    H23   S    
C62   H54   S    
C7    H26   S    
C13   H33   S    
C3    C4    S    
O14   P7    D    
C19   C31   A    
C56   C58   S    
C13   C14   A    
C57   H48   S    
C21   H34   S    
C34   C45   S    
Ba1   Ba2   S    
Ba1   O5    S    
O8    P7    S    
Ba1   O8    S    
C23   H50   S    
C56   H4    S    
C5    C63   S    
C20   P8    S    
Ba2   O5    S    
C22   P4    S    
C14   C15   A    
C44   H46   S    
C21   C22   A    
C60   H11   S    
C41   P1    S    
C16   H35   S    
C58   H8    S    
Ba1   O22   S    
C7    C8    S    
O15   P7    S    
Ba1   P1    S    
C48   P3    S    
C42   H47   S    
C59   H9    S    
Ba2   O8    S    
C5    H22   S    
C63   H62   S    
C24   C29   A    
C64   H59   S    
C4    H19   S    
C27   C41   A    
C61   H57   S    
C59   O2    S    
C34   H51   S    
C4    H17   S    
C7    O17   S    
C25   C32   A    
C51   C57   A    
C44   C46   A    
O12   P1    S    
C49   C50   A    
C30   C33   A    
C5    C6    S    
C17   C20   A    
C61   C62   S    
C39   P6    S    
C62   H55   S    
C7    H27   S    
O20   P1    S    
Ba2   O6    S    
C16   C17   A    
C26   C37   A    
Ba2   O9    S    
C2    Cl1   S    
C38   H40   S    
C43   P2    S    
C15   C19   A    
C45   H1    S    
C51   P5    S    
O3    P3    S    
C35   C36   A    
C50   C57   A    
C4    H18   S    
C29   C30   A    
C9    C25   A    
C49   H43   S    
C12   O3    S    
C1    H20   S    
C1    Cl2   S    
C31   C32   A    
O10   P5    D    
Ba1   O12   S    
C12   H30   S    
Ba1   P2    S    
C2    O21   S    
Ba2   O12   S    
C59   H10   S    
O21   P6    S    
C5    O11   S    
O1    P1    D    
C8    H29   S    
C64   H60   S    
C29   H37   S    
C11   C13   A    
Ba2   P4    S    
C60   H13   S    
O13   P2    S    
C3    H15   S    
C33   H38   S    
C45   H2    S    
Ba1   O23   S    
C42   C43   A    
C42   C48   A    
C54   C55   T    
O23   P3    S    
C52   C53   A    
C9    C15   A    
O19   P6    D    
C10   C28   A    
C32   C36   A    
O7    P4    S    
Ba1   O13   S    
O4    P4    D    
O24   P3    D    
C40   H42   S    
C63   H61   S    
C9    C10   A    
C51   C52   A    
C47   H44   S    
C28   H36   S    
C8    H31   S    
C11   H32   S    
C6    H25   S    
C30   C31   A    
C34   O7    S    
C3    H16   S    
C62   H53   S    
Ba2   O13   S    
C36   C38   A    
C6    H24   S    
C12   H41   S    
C18   C24   A    
C58   H7    S    
O11   P5    S    
C46   C47   A    
C3    O15   S    
C49   C53   A    
C12   C23   S    
C59   C60   S    
C2    H14   S    
C23   H49   S    
C27   C28   A    
C37   C38   A    
C56   H5    S    
C1    C61   S    
C8    H28   S    
C18   C19   A    
C58   H6    S    
C14   C16   A    
C47   C48   A    
C40   C41   A    
O9    P5    S    
C25   C26   A    
C23   H21   S    
O5    P4    S    
C20   C21   A    
C60   H12   S    
Ba1   O1    S    
C61   H56   S    
C45   H3    S    
C1    C2    S    
O2    P2    S    
Ba2   O14   S    
