data_mof_unit_35028.cif
_audit_creation_date              2012-12-10T20:49:47-0500
_audit_creation_method            fapswitch 2.2
_symmetry_space_group_name_H-M    P1
_symmetry_Int_Tables_number       1
_space_group_crystal_system       triclinic
_cell_length_a                    8.098245
_cell_length_b                    8.937032
_cell_length_c                    16.70271
_cell_angle_alpha                 89.995532
_cell_angle_beta                  84.99519
_cell_angle_gamma                 89.978973
_cell_volume                      1204.23756449

loop_
_atom_site_label
_atom_site_type_symbol
_atom_type_description
_atom_site_fract_x
_atom_site_fract_y
_atom_site_fract_z
_atom_type_partial_charge
C1    C     C_R   0.499990 0.782065 0.499940 0.936609
C2    C     C_R   0.421781 0.335335 0.236640 0.091726
C3    C     C_R   0.587560 0.462329 0.866433 -0.232792
C4    C     C_R   0.444506 0.281030 0.158337 -0.241811
C5    C     C_R   0.447875 0.385562 0.901036 0.156644
C6    C     C_R   0.580368 0.327010 0.106801 0.162640
C7    C     C_R   0.309310 0.364309 0.857322 0.127403
C8    C     C_R   0.703925 0.418385 0.135331 0.138923
C9    C     C_R   0.317724 0.410645 0.777207 -0.278022
C10   C     C_R   0.682036 0.472521 0.214065 -0.281571
C11   C     C_2   0.440867 0.342111 0.985657 -0.223697
C12   C     C_R   0.500016 0.217938 0.499989 0.926699
C13   C     C_2   0.577541 0.303136 0.020450 -0.240194
C14   C     C_1   0.499975 0.934841 0.499900 -0.198781
C15   C     C_1   0.500021 0.065184 0.499912 -0.200525
C16   C     C_R   0.476992 0.500179 0.654115 0.875768
C17   C     C_R   0.522936 0.489966 0.346459 0.870310
C18   C     C_R   0.461980 0.478276 0.741021 -0.084449
C19   C     C_R   0.538944 0.436637 0.263624 -0.072587
C20   C     C_R   0.596036 0.509319 0.786740 0.097450
H1    H     H_    0.352911 0.206687 0.136297 0.144433
H2    H     H_    0.932902 0.516530 0.115469 0.185842
H3    H     H_    0.830815 0.594312 0.792829 0.176110
H4    H     H_    0.703408 0.698242 0.741524 0.178271
H5    H     H_    0.199851 0.223900 0.257235 0.177866
H6    H     H_    0.327168 0.212742 0.330958 0.186007
H7    H     H_    0.689461 0.488584 0.901888 0.137595
H8    H     H_    0.774568 0.545806 0.236129 0.160063
H9    H     H_    0.213970 0.388087 0.742206 0.169746
H10   H     H_    0.694269 0.285677 0.984439 0.176182
H11   H     H_    0.324587 0.361475 0.021802 0.181460
H12   H     H_    0.191483 0.180841 0.903478 0.185786
H13   H     H_    0.068182 0.294174 0.855093 0.181505
H14   H     H_    0.805752 0.541107 0.042487 0.178374
N1    N     N_1   0.926360 0.500000 0.499990 -0.028094
N2    N     N_1   0.073640 0.500000 0.500010 -0.028056
N3    N     N_3   0.162488 0.293125 0.894064 -0.470994
N4    N     N_3   0.845834 0.462468 0.082905 -0.469458
N5    N     N_3   0.739815 0.588298 0.752203 -0.427136
N6    N     N_3   0.282108 0.285746 0.289049 -0.418836
O1    O     O_R   0.363150 0.714660 0.500000 -0.613632
O2    O     O_R   0.636850 0.285340 0.500000 -0.611778
O3    O     O_R   0.636850 0.714660 0.500000 -0.614306
O4    O     O_R   0.363150 0.285340 0.500000 -0.619398
O5    O     O_R   0.346950 0.500000 0.615800 -0.625896
O6    O     O_R   0.653050 0.500000 0.384200 -0.621792
O7    O     O_R   0.620700 0.500000 0.615800 -0.589856
O8    O     O_R   0.379300 0.500000 0.384200 -0.593619
Zn1   Zn    Zn3+2 0.317220 0.500000 0.500010 0.989081
Zn2   Zn    Zn3+2 0.682780 0.500000 0.499990 0.994786

loop_
_geom_bond_atom_site_label_1
_geom_bond_atom_site_label_2
_ccdc_geom_bond_type
C16   O5    A    
O4    Zn1   S    
C2    C4    A    
C17   O8    A    
O3    Zn2   S    
C9    H9    S    
C9    C18   A    
N1    N2    T    
C12   C15   S    
O5    Zn1   S    
C10   C19   A    
C7    C9    A    
N1    Zn2   S    
C3    H7    S    
C7    N3    S    
C11   H11   S    
C3    C20   A    
C12   O4    A    
H12   N3    S    
C6    C13   S    
C4    H1    S    
C11   C13   D    
H6    N6    S    
C8    N4    S    
O2    Zn2   S    
H3    N5    S    
C6    C8    A    
C16   O7    A    
O1    Zn1   S    
O8    Zn1   S    
C17   C19   S    
C5    C11   S    
O7    Zn2   S    
C18   C20   A    
H5    N6    S    
C4    C6    A    
H2    N4    S    
C2    N6    S    
C13   H10   S    
H4    N5    S    
C17   O6    A    
C16   C18   S    
C10   H8    S    
C5    C7    A    
C20   N5    S    
O6    Zn2   S    
C14   C15   T    
C12   O2    A    
C1    C14   S    
C2    C19   A    
H14   N4    S    
C1    O3    A    
C8    C10   A    
H13   N3    S    
N2    Zn1   S    
C1    O1    A    
C3    C5    A    
