data_mof_unit_39731.cif
_audit_creation_date              2013-03-05T16:11:21-0500
_audit_creation_method            fapswitch 2.2
_symmetry_space_group_name_H-M    P1
_symmetry_Int_Tables_number       1
_space_group_crystal_system       triclinic
_cell_length_a                    8.191852
_cell_length_b                    16.195092
_cell_length_c                    17.394818
_cell_angle_alpha                 112.537196
_cell_angle_beta                  82.886457
_cell_angle_gamma                 95.559566
_cell_volume                      2112.00942094

loop_
_atom_site_label
_atom_site_type_symbol
_atom_site_description
_atom_site_fract_x
_atom_site_fract_y
_atom_site_fract_z
_atom_type_partial_charge
P1    P     P_3+3 0.533580 0.585010 0.696460 0.503007
O1    O     O_2   0.351410 0.559500 0.703710 -0.315879
O2    O     O_3   0.622300 0.553110 0.604480 -0.425327
O3    O     O_3   0.077860 0.395310 0.623380 -0.373459
O4    O     O_2   0.139580 0.488058 0.780601 -0.315315
O5    O     O_3   0.544066 0.702351 0.743301 -0.542209
O6    O     O_3   0.109310 0.311956 0.735081 -0.481881
H1    H     H_    0.955360 0.229391 0.645884 0.067514
C1    C     C_3   0.049828 0.155496 0.708486 -0.843710
H2    H     H_    0.152674 0.132041 0.658976 0.282803
H3    H     H_    0.091296 0.166123 0.770128 0.266618
P2    P     P_3+3 0.097450 0.292710 0.397510 0.535662
P3    P     P_3+3 0.486644 0.232185 0.548153 0.506527
O7    O     O_2   0.261760 0.281010 0.418880 -0.321910
O8    O     O_3   0.488390 0.347430 0.574410 -0.395636
O9    O     O_2   0.342427 0.190356 0.493808 -0.287085
O10   O     O_3   0.117586 0.253934 0.288325 -0.584437
O11   O     O_3   0.424772 0.209610 0.638184 -0.508425
C2    C     C_3   0.524891 0.262743 0.700612 0.422409
H4    H     H_    0.496615 0.334242 0.721389 0.115402
H5    H     H_    0.657023 0.253784 0.677595 -0.030536
C3    C     C_3   0.490320 0.234650 0.775312 -0.849938
H6    H     H_    0.360894 0.246874 0.802429 0.282287
H7    H     H_    0.511612 0.162421 0.755716 0.264954
C4    C     C_3   0.665981 0.262303 0.317835 0.400355
H8    H     H_    0.775793 0.292862 0.351677 -0.010061
H9    H     H_    0.554710 0.274300 0.363020 0.109636
C5    C     C_3   0.683800 0.161696 0.273867 0.067570
H10   H     H_    0.804216 0.149189 0.235058 0.124418
H11   H     H_    0.679866 0.131252 0.321164 0.077059
Ba1   Ba    Ba6+2 0.325860 0.460280 0.530510 1.632212
C6    C     C_3   0.536961 0.739753 0.683394 0.189095
H12   H     H_    0.409837 0.730125 0.665957 0.055224
H13   H     H_    0.621576 0.708538 0.626507 0.103878
C7    C     C_3   0.587727 0.840465 0.719180 0.480369
H14   H     H_    0.589095 0.865709 0.668143 0.010795
C8    C     C_3   0.198955 0.315639 0.256662 0.100448
H15   H     H_    0.320250 0.338383 0.281812 0.110846
H16   H     H_    0.122391 0.373897 0.272679 0.108756
C9    C     C_3   0.222310 0.265394 0.161193 0.519271
H17   H     H_    0.104098 0.227885 0.139750 0.064565
P4    P     P_3+3 0.656110 0.414920 0.303520 0.490063
O12   O     O_2   0.838300 0.440470 0.296230 -0.358822
O13   O     O_3   0.567380 0.446810 0.395500 -0.416146
O14   O     O_3   0.111820 0.604620 0.376600 -0.346475
O15   O     O_3   0.651973 0.297977 0.257604 -0.533654
P5    P     P_3+3 0.709750 0.768352 0.450907 0.519545
O16   O     O_3   0.149150 0.609060 0.561440 -0.399742
O17   O     O_3   0.701290 0.652490 0.425560 -0.367444
O18   O     O_2   0.853562 0.810904 0.505771 -0.342883
O19   O     O_3   0.773470 0.785570 0.358524 -0.433450
Ba2   Ba    Ba6+2 0.863950 0.539650 0.469460 1.623071
P6    P     P_3+3 0.035329 0.406006 0.726999 0.512712
C10   C     C_3   0.987922 0.241684 0.709842 0.392592
H18   H     H_    0.876592 0.257577 0.755281 0.042961
H19   H     H_    0.948611 0.102556 0.694797 0.211478
O20   O     O_3   0.040530 0.390860 0.438530 -0.392907
C11   C     C_3   0.996286 0.684363 0.742455 0.287414
H20   H     H_    0.864904 0.676707 0.730422 0.005590
H21   H     H_    0.055124 0.619722 0.707387 0.119495
C12   C     C_3   0.008671 0.709559 0.835932 0.695531
H22   H     H_    0.972370 0.780166 0.870389 0.053715
P7    P     P_3+3 0.100923 0.720957 0.611135 0.495304
O21   O     O_2   0.927940 0.718960 0.581060 -0.339875
O22   O     O_3   0.073941 0.754015 0.719997 -0.551664
H23   H     H_    0.573167 0.274112 0.824072 0.216995
C13   C     C_3   0.644951 0.754177 0.306460 0.328334
H24   H     H_    0.596093 0.685997 0.301705 0.063127
H25   H     H_    0.544340 0.801596 0.330537 0.093670
C14   C     C_3   0.710594 0.748413 0.219204 -0.677495
H26   H     H_    0.808476 0.699412 0.194435 0.257890
H27   H     H_    0.611134 0.725416 0.176623 0.192990
H28   H     H_    0.761835 0.815263 0.221250 0.286815
P8    P     P_3+3 0.142413 0.598876 0.273518 0.514698
C15   C     C_3   0.226241 0.740142 0.234004 0.806578
H29   H     H_    0.345584 0.716155 0.237824 -0.272407
O23   O     O_2   0.001951 0.535239 0.228140 -0.316571
O24   O     O_3   0.096621 0.703854 0.275153 -0.523069
H30   H     H_    0.323040 0.706661 0.103480 0.096847
C16   C     C_3   0.200550 0.712835 0.140223 -0.235825
H31   H     H_    0.134349 0.645917 0.117388 0.128587
C17   C     C_2   0.753370 0.485687 0.720873 -0.310308
C18   C     C_3   0.810448 0.421211 0.754295 0.037782
C19   C     C_2   0.757672 0.444003 0.845741 -0.141619
C20   C     C_2   0.630902 0.497628 0.883483 0.145680
C21   C     C_2   0.555141 0.539598 0.833521 -0.254928
C22   C     C_1   0.621106 0.531222 0.757063 0.266783
C23   C     C_R   0.408527 0.539507 0.147455 -0.274414
C24   C     C_R   0.343312 0.548795 0.228132 0.235102
C25   C     C_R   0.568188 0.467521 0.240003 0.141785
C26   C     C_R   0.635267 0.458641 0.157465 0.471911
C27   C     C_R   0.557905 0.498344 0.112229 0.068284
C28   C     C_2   0.556907 0.510652 0.970438 -0.189002
C29   C     C_2   0.632774 0.492042 0.026752 -0.039820
C30   C     C_R   0.425601 0.514687 0.274457 -0.524693
H32   H     H_    0.757967 0.470966 0.009903 0.180298
H33   H     H_    0.449655 0.580300 0.861799 0.178273
H34   H     H_    0.340439 0.563348 0.112385 0.124391
H35   H     H_    0.434033 0.534925 0.986246 0.145051
H36   H     H_    0.810686 0.407435 0.876367 0.122107
H37   H     H_    0.813166 0.486946 0.662046 0.140169
H38   H     H_    0.373789 0.521042 0.336610 0.186152
C31   C     C_2   0.396534 0.761748 0.525400 -0.520219
C32   C     C_R   0.814641 0.245474 0.483753 -0.568296
C33   C     C_2   0.219181 0.885154 0.609447 -0.231816
C34   C     C_2   0.242729 0.796964 0.577069 0.299768
C35   C     C_2   0.511478 0.815993 0.504360 0.146744
C36   C     C_3   0.462277 0.908099 0.516076 -0.030072
C37   C     C_3   0.351392 0.951070 0.596809 0.084519
C38   C     C_2   0.597034 0.973133 0.505994 -0.353363
C39   C     C_2   0.577656 0.026777 0.464749 0.612268
C40   C     C_R   0.852991 0.061732 0.409248 0.068512
C41   C     C_R   0.709502 0.093225 0.460171 -0.210569
C42   C     C_R   0.976199 0.120055 0.392590 0.152859
C43   C     C_R   0.958273 0.213748 0.431516 0.185089
C44   C     C_R   0.685802 0.185814 0.494229 0.164872
H39   H     H_    0.110751 0.910631 0.651838 0.182964
H40   H     H_    0.420796 0.692347 0.510596 0.166126
H41   H     H_    0.796881 0.316666 0.510177 0.188618
H42   H     H_    0.707223 0.981488 0.537829 0.156133
O25   O     O_3   0.555084 0.122978 0.223226 -0.599299
H43   H     H_    0.572488 0.057837 0.197441 0.373481
N1    N     N_R   0.472829 0.892904 0.788583 0.236452
O26   O     O_R   0.493777 0.979720 0.819466 -0.343183
O27   O     O_R   0.349493 0.854828 0.819633 -0.330753
O28   O     O_3   0.748101 0.854133 0.744024 -0.707564
H44   H     H_    0.742799 0.841677 0.795921 0.339748
O29   O     O_3   0.347217 0.204735 0.140828 -0.634944
H45   H     H_    0.297064 0.151144 0.151125 0.374976
N2    N     N_R   0.262019 0.326335 0.117004 0.209220
O30   O     O_R   0.149600 0.377511 0.116559 -0.402213
O31   O     O_R   0.389360 0.313623 0.061848 -0.333783
O32   O     O_3   0.905909 0.651166 0.864970 -0.751729
H46   H     H_    0.797940 0.678829 0.884953 0.295288
O33   O     O_3   0.171804 0.703435 0.848865 -0.642689
H47   H     H_    0.176960 0.727345 0.910329 0.360556
N3    N     N_R   0.238548 0.837533 0.276677 0.247175
O34   O     O_R   0.367247 0.883314 0.259309 -0.353596
O35   O     O_R   0.125987 0.878679 0.335069 -0.323756
N4    N     N_R   0.109309 0.776186 0.122969 0.279750
O36   O     O_R   0.181156 0.852412 0.125833 -0.261376
O37   O     O_R   0.979089 0.747136 0.082384 -0.385885
O38   O     O_3   0.771120 0.409495 0.117655 -0.694699
H48   H     H_    0.788304 0.368229 0.145088 0.371108
N5    N     N_R   0.101927 0.081740 0.326129 0.274421
O39   O     O_R   0.256473 0.105874 0.334961 -0.249829
O40   O     O_R   0.063027 0.014350 0.259441 -0.304444
O41   O     O_3   0.440533 0.021080 0.423281 -0.644373
H49   H     H_    0.354526 0.978738 0.434194 0.355381

loop_
_geom_bond_atom_site_label_1
_geom_bond_atom_site_label_2
_geom_bond_distance
_ccdc_geom_bond_type
P1    C22   1.842920 S    
O5    C6    1.400678 S    
P7    O22   1.750281 S    
C28   C29   1.360168 D    
O3    P6    1.736943 S    
C2    H4    1.111542 S    
Ba1   Ba2   4.481287 S    
O29   H45   0.992972 S    
C40   C42   1.395521 A    
C42   C43   1.418948 A    
C12   O32   1.401683 S    
O33   H47   0.992711 S    
P5    O17   1.751645 S    
C20   C21   1.506872 S    
C4    C5    1.524527 S    
N3    O35   1.301616 A    
O28   H44   0.992833 S    
P3    O11   1.746303 S    
P8    C24   1.853522 S    
O4    P6    1.546627 D    
C5    H10   1.112998 S    
C2    H5    1.109738 S    
N4    O37   1.300900 A    
O11   C2    1.399952 S    
C8    C9    1.540178 S    
O12   Ba2   2.843470 S    
N1    O27   1.300848 A    
C11   H21   1.111652 S    
O38   H48   0.986652 S    
C9    O29   1.405617 S    
P1    Ba1   3.374823 S    
C36   C37   1.529368 S    
P1    O1    1.512430 D    
P4    O15   1.749473 S    
C21   H33   1.086145 S    
O7    Ba1   2.847972 S    
C38   C39   1.351822 D    
C3    H23   1.109692 S    
C9    N2    1.458796 S    
C32   C44   1.403711 A    
C20   C28   1.500956 S    
C7    H14   1.109186 S    
P8    O23   1.542973 D    
P2    O10   1.748407 S    
C35   C36   1.514000 S    
C14   H26   1.110836 S    
C1    H2    1.107849 S    
C28   H35   1.081009 S    
C30   H38   1.081269 S    
O3    Ba1   2.814268 S    
O2    Ba1   2.897672 S    
C41   C44   1.408566 A    
O13   Ba2   2.898550 S    
C11   C12   1.531315 S    
N3    O34   1.301480 A    
C33   H39   1.085591 S    
P4    O13   1.583114 S    
C40   C41   1.392262 A    
N5    O40   1.300759 A    
N5    O39   1.298245 A    
P5    O18   1.546148 D    
C26   O38   1.381957 S    
Ba1   O13   2.831515 S    
C13   H24   1.113020 S    
C19   H36   1.082637 S    
C6    C7    1.541141 S    
C23   C27   1.405876 A    
N1    O26   1.300752 A    
C2    C3    1.520757 S    
N4    O36   1.300853 A    
Ba2   O21   2.848136 S    
H1    C10   1.114425 S    
C26   C27   1.422859 A    
C21   C22   1.333092 D    
O16   P7    1.743739 S    
P5    O19   1.743604 S    
O14   Ba2   2.813502 S    
C4    H8    1.105553 S    
C16   N4    1.463389 S    
P7    O21   1.563498 D    
O14   P8    1.747002 S    
P1    O2    1.583083 S    
C6    H13   1.108945 S    
C24   C30   1.398841 A    
C7    O28   1.404511 S    
N2    O31   1.301306 A    
C15   H29   1.104797 S    
C8    H15   1.107962 S    
C32   C43   1.403039 A    
C11   O22   1.402478 S    
C18   C19   1.504646 S    
O17   Ba2   2.737120 S    
C14   H28   1.111618 S    
C27   C29   1.505739 S    
C39   C41   1.466332 S    
C1    H19   1.110822 S    
O19   C13   1.402349 S    
C19   C20   1.353701 D    
P7    C34   1.824105 S    
C29   H32   1.082077 S    
C1    H3    1.110023 S    
O25   H43   0.992477 S    
P2    O20   1.563646 S    
P2    C43   1.848087 S    
C9    H17   1.116992 S    
P2    O7    1.487664 D    
P5    C35   1.848447 S    
Ba1   O16   2.771256 S    
P3    O8    1.742192 S    
P2    Ba1   3.390212 S    
C15   N3    1.462585 S    
O32   H46   0.992510 S    
C3    H7    1.110898 S    
C31   H40   1.085281 S    
P4    O12   1.512768 D    
O6    P6    1.752477 S    
C38   H42   1.087406 S    
C12   O33   1.401268 S    
C15   C16   1.554015 S    
C13   H25   1.111329 S    
C33   C37   1.502606 S    
C10   H18   1.110737 S    
C5    O25   1.399816 S    
C42   N5    1.435741 S    
C16   H31   1.111700 S    
C25   C30   1.398417 A    
C14   H27   1.109228 S    
O2    Ba2   2.832310 S    
O8    Ba1   2.736630 S    
O10   C8    1.395776 S    
C4    H9    1.107327 S    
C33   C34   1.343193 D    
P6    C18   1.860480 S    
C13   C14   1.516757 S    
C6    H12   1.100590 S    
C32   H41   1.082340 S    
C5    H11   1.105581 S    
N2    O30   1.299867 A    
C11   H20   1.107957 S    
C8    H16   1.109537 S    
C39   O41   1.385700 S    
Ba1   O20   2.885378 S    
C25   C26   1.430245 A    
C7    N1    1.467007 S    
C17   H37   1.085076 S    
C36   C38   1.492317 S    
C31   C34   1.478638 S    
O41   H49   0.987781 S    
C12   H22   1.118741 S    
C15   O24   1.413687 S    
P3    C44   1.850387 S    
Ba2   O20   2.770772 S    
H30   C16   1.112185 S    
O16   Ba2   2.884467 S    
C23   C24   1.394812 A    
C17   C18   1.508052 S    
P8    O24   1.765173 S    
P3    O9    1.542366 D    
P1    O5    1.755383 S    
C3    H6    1.109511 S    
O1    Ba1   2.843000 S    
C31   C35   1.339078 D    
C1    C10   1.521517 S    
O6    C10   1.408046 S    
P4    C25   1.871544 S    
C4    O15   1.396884 S    
C23   H34   1.067186 S    
C17   C22   1.320638 D    
P4    Ba2   3.375243 S    
