data_mof_unit_51209.cif
_audit_creation_date              2012-12-10T17:05:14-0500
_audit_creation_method            fapswitch 2.2
_symmetry_space_group_name_H-M    P1
_symmetry_Int_Tables_number       1
_space_group_crystal_system       triclinic
_cell_length_a                    10.753417
_cell_length_b                    11.040464
_cell_length_c                    9.851513
_cell_angle_alpha                 111.646742
_cell_angle_beta                  98.780593
_cell_angle_gamma                 90.946381
_cell_volume                      1070.9907378

loop_
_atom_site_label
_atom_site_type_symbol
_atom_type_description
_atom_site_fract_x
_atom_site_fract_y
_atom_site_fract_z
_atom_type_partial_charge
C1    C     C_R   0.490082 0.253267 0.439436 0.808800
C2    C     C_3   0.878202 0.502416 0.500261 -0.026160
C3    C     C_3   0.919120 0.602673 0.435643 -0.377335
C4    C     C_3   0.915037 0.362507 0.407643 -0.237997
C5    C     C_2   0.484213 0.111776 0.402109 -0.169058
C6    C     C_2   0.491920 0.067693 0.513118 -0.225787
C7    C     C_2   0.512494 0.886108 0.594673 -0.321966
C8    C     C_2   0.476350 0.929187 0.486359 -0.081301
C9    C     C_2   0.506278 0.512599 0.079903 -0.067248
C10   C     C_2   0.483155 0.495675 0.917565 -0.020556
C11   C     C_R   0.260169 0.503265 0.501221 0.774064
C12   C     C_R   0.507829 0.746185 0.560164 0.871644
C13   C     C_R   0.740153 0.500941 0.499945 0.791430
C14   C     C_3   0.095201 0.533101 0.659880 -0.419216
C15   C     C_3   0.953074 0.542487 0.662544 0.118296
C16   C     C_3   0.064590 0.614163 0.449562 -0.174157
C17   C     C_3   0.057383 0.368013 0.398751 -0.377975
C18   C     C_3   0.122329 0.504839 0.500856 -0.004401
Cu1   Cu    Cu3+1 0.522160 0.521810 0.644910 0.990025
Cu2   Cu    Cu3+1 0.477840 0.478190 0.355090 1.033022
H1    H     H_    0.149191 0.625147 0.739463 0.222609
H2    H     H_    0.871655 0.573778 0.318717 0.222713
H3    H     H_    0.436088 0.860766 0.376067 0.219702
H4    H     H_    0.507168 0.135739 0.627942 0.212483
H5    H     H_    0.548810 0.953495 0.707047 0.179069
H6    H     H_    0.402221 0.433863 0.843694 0.176609
H7    H     H_    0.575411 0.590381 0.154630 0.169090
H8    H     H_    0.632650 0.612440 0.933734 0.226520
H9    H     H_    0.127930 0.453465 0.697227 0.164646
H10   H     H_    0.922438 0.473831 0.712413 0.150894
H11   H     H_    0.100370 0.709995 0.539617 0.154012
H12   H     H_    0.886749 0.700374 0.495279 0.188727
H13   H     H_    0.073081 0.344551 0.283239 0.260336
H14   H     H_    0.101838 0.291532 0.433982 0.155736
H15   H     H_    0.899764 0.299124 0.470239 0.135453
N1    N     N_2   0.444530 0.445420 0.137360 -0.248811
N2    N     N_2   0.555520 0.554510 0.862630 -0.284150
O1    O     O_R   0.511820 0.332340 0.577400 -0.579635
O2    O     O_R   0.474400 0.295500 0.332650 -0.540291
O3    O     O_R   0.336400 0.518400 0.622370 -0.598883
O4    O     O_R   0.298980 0.481560 0.377620 -0.546473
O5    O     O_R   0.525600 0.704500 0.667350 -0.558443
O6    O     O_R   0.488180 0.667660 0.422600 -0.582842
O7    O     O_R   0.701020 0.518440 0.622380 -0.547860
O8    O     O_R   0.663600 0.481600 0.377630 -0.586360
C19   C     C_2   0.835528 0.295872 0.255030 0.914049
O9    O     O_2   0.840235 0.338355 0.157367 -0.543495
O10   O     O_R   0.756256 0.184525 0.226600 -0.749494
H16   H     H_    0.706654 0.148969 0.121951 0.352870
C20   C     C_2   0.101554 0.618210 0.308540 0.893487
O11   O     O_2   0.166071 0.712760 0.314109 -0.598983
O12   O     O_R   0.061646 0.515394 0.172522 -0.702047
H17   H     H_    0.092940 0.530198 0.087430 0.343326
C21   C     C_2   0.473061 0.022535 0.243580 0.893297
O13   O     O_2   0.400343 0.043518 0.147902 -0.554746
O14   O     O_R   0.548461 0.917119 0.203539 -0.752656
H18   H     H_    0.532654 0.864465 0.092860 0.333700
C22   C     C_2   0.367572 0.329715 0.043246 1.031081
O15   O     O_2   0.270423 0.302456 0.079455 -0.549414
O16   O     O_R   0.407003 0.242584 0.916115 -0.802604
H19   H     H_    0.345188 0.162906 0.861274 0.334506
Br1   Br    Br    0.922775 0.717862 0.796006 -0.491852

loop_
_geom_bond_atom_site_label_1
_geom_bond_atom_site_label_2
_ccdc_geom_bond_type
C9    N1    D    
C2    C4    S    
C11   C18   S    
Cu1   O1    S    
C2    C3    S    
C9    C10   S    
C14   C18   S    
N1    C22   S    
Cu1   Cu2   S    
C7    H5    S    
Cu1   O5    S    
Cu1   O7    S    
C6    H4    S    
C10   H6    S    
C14   C15   S    
C17   C18   S    
C4    H15   S    
C7    C8    D    
C4    C19   S    
O12   H17   S    
C16   H11   S    
C13   O8    A    
C2    C15   S    
C5    C6    D    
C17   H13   S    
C1    O1    A    
C8    H3    S    
C10   N2    D    
Cu2   O4    S    
C4    C17   S    
H8    N2    S    
C14   H1    S    
O10   H16   S    
C15   Br1   S    
C16   C20   S    
C11   O4    A    
C12   O6    A    
C19   O10   S    
C11   O3    A    
C21   O14   S    
C7    C12   S    
C17   H14   S    
C1    O2    A    
C14   H9    S    
C12   O5    A    
Cu2   N1    S    
C5    C21   S    
C1    C5    S    
Cu2   O6    S    
O14   H18   S    
C9    H7    S    
C15   H10   S    
C16   C18   S    
Cu1   O3    S    
C20   O12   S    
C2    C13   S    
Cu2   O2    S    
C21   O13   D    
C3    H2    S    
C6    C8    S    
Cu1   N2    S    
C3    H12   S    
C20   O11   D    
C22   O15   D    
C19   O9    D    
C22   O16   S    
C13   O7    A    
C3    C16   S    
Cu2   O8    S    
O16   H19   S    
