data_mof_unit_58509.cif
_audit_creation_date              2012-12-11T15:15:15-0500
_audit_creation_method            fapswitch 2.2
_symmetry_space_group_name_H-M    P1
_symmetry_Int_Tables_number       1
_space_group_crystal_system       triclinic
_cell_length_a                    18.902343
_cell_length_b                    19.312454
_cell_length_c                    20.418093
_cell_angle_alpha                 106.904212
_cell_angle_beta                  106.174356
_cell_angle_gamma                 112.071449
_cell_volume                      5943.24428772

loop_
_atom_site_label
_atom_site_type_symbol
_atom_type_description
_atom_site_fract_x
_atom_site_fract_y
_atom_site_fract_z
_atom_type_partial_charge
C1    C     C_R   0.079162 0.087809 0.351187 -0.145352
C2    C     C_R   0.743384 0.995007 0.462555 0.032491
C3    C     C_R   0.769797 0.728886 0.289088 0.061936
C4    C     C_R   0.031182 0.273508 0.522996 -0.037315
C5    C     C_R   0.234839 0.221829 0.650897 -0.161142
C6    C     C_R   0.921743 0.758915 0.497467 0.196800
C7    C     C_R   0.166867 0.934225 0.429105 -0.181258
C8    C     C_R   0.032668 0.052403 0.718047 -0.095936
C9    C     C_R   0.969505 0.914375 0.654196 -0.110767
C10   C     C_R   0.240463 0.071227 0.494746 0.169210
C11   C     C_R   0.158916 0.211695 0.715708 -0.104307
C12   C     C_R   0.754513 0.926897 0.454919 -0.133437
C13   C     C_R   0.001052 0.766023 0.434207 0.171837
C14   C     C_R   0.239665 0.255049 0.722392 0.015797
C15   C     C_R   0.953441 0.716852 0.459511 0.002493
C16   C     C_R   0.241179 0.002254 0.448486 0.015092
C17   C     C_R   0.024262 0.981051 0.725488 0.023062
C18   C     C_R   0.041336 0.669274 0.523229 -0.102031
C19   C     C_R   0.963964 0.650422 0.467992 0.102865
C20   C     C_R   0.906321 0.570604 0.409893 -0.334922
C21   C     C_R   0.919374 0.504787 0.410786 0.119430
C22   C     C_R   0.998896 0.524076 0.464080 -0.001825
C23   C     C_R   0.846294 0.778671 0.290543 -0.131460
C24   C     C_R   0.064015 0.607218 0.512074 -0.066868
C25   C     C_R   0.855229 0.420667 0.361899 0.127655
C26   C     C_R   0.867229 0.358147 0.375032 -0.287334
C27   C     C_R   0.942641 0.378426 0.432687 0.135501
C28   C     C_R   0.011437 0.460872 0.473706 0.009864
C29   C     C_R   0.090092 0.480737 0.529093 0.061615
C30   C     C_R   0.161229 0.562254 0.563975 0.095343
C31   C     C_R   0.148535 0.624700 0.548854 0.053226
C32   C     C_R   0.949323 0.317746 0.451865 -0.241650
C33   C     C_R   0.023794 0.338913 0.510262 0.098361
C34   C     C_R   0.992503 0.231075 0.557965 -0.028956
C35   C     C_R   0.094647 0.417640 0.546782 -0.265680
C36   C     C_R   0.302321 0.919842 0.396829 -0.267675
C37   C     C_R   0.301746 0.995566 0.417927 0.125318
C38   C     C_R   0.359014 0.061225 0.410341 -0.280914
C39   C     C_R   0.428145 0.058296 0.400023 0.144200
C40   C     C_R   0.431963 0.984178 0.385850 0.031881
C41   C     C_R   0.365094 0.912827 0.378345 0.147249
C42   C     C_R   0.496881 0.129836 0.410315 -0.207652
C43   C     C_R   0.572500 0.130345 0.415369 -0.205676
C44   C     C_R   0.578642 0.058362 0.407243 0.145687
C45   C     C_R   0.769052 0.773108 0.355144 -0.168398
C46   C     C_R   0.505958 0.983478 0.386891 0.024418
C47   C     C_R   0.509886 0.909820 0.375834 0.133317
C48   C     C_R   0.438506 0.836080 0.357996 -0.194733
C49   C     C_R   0.366628 0.837926 0.360521 -0.209406
C50   C     C_R   0.657228 0.061328 0.426217 -0.264270
C51   C     C_R   0.662156 0.989831 0.423762 0.121415
C52   C     C_R   0.587335 0.913028 0.391600 -0.242333
C53   C     C_R   0.319147 0.303858 0.792854 0.085912
C54   C     C_R   0.328868 0.360836 0.861144 0.126574
C55   C     C_R   0.397883 0.387638 0.929312 -0.218215
C56   C     C_R   0.064869 0.232157 0.487931 -0.124509
C57   C     C_R   0.459425 0.363662 0.929096 0.187072
C58   C     C_R   0.453849 0.314654 0.860750 -0.183122
C59   C     C_R   0.383588 0.283699 0.793377 -0.193372
C60   C     C_R   0.679221 0.505699 0.150845 -0.148016
C61   C     C_R   0.737508 0.588832 0.201482 -0.209828
C62   C     C_R   0.628201 0.603649 0.233289 -0.167289
C63   C     C_R   0.568811 0.519892 0.182885 -0.049682
C64   C     C_R   0.593367 0.472407 0.136785 0.111821
C65   C     C_2   0.535055 0.398658 0.999583 -0.197584
C66   C     C_2   0.528276 0.400018 0.063470 -0.233989
C67   C     C_R   0.820803 0.065944 0.516416 -0.065312
C68   C     C_R   0.711113 0.639406 0.239882 0.087512
C69   C     C_R   0.084953 0.027007 0.225439 0.108202
C70   C     C_R   0.033975 0.966655 0.149727 -0.225392
C71   C     C_R   0.062307 0.969484 0.093261 0.153035
C72   C     C_R   0.146319 0.032665 0.115932 0.148483
C73   C     C_R   0.196686 0.092746 0.191802 -0.185416
C74   C     C_R   0.166312 0.090147 0.246153 -0.178674
C75   C     C_R   0.190518 0.050039 0.919743 -0.157842
C76   C     C_R   0.149092 0.049911 0.851629 -0.182341
C77   C     C_R   0.045749 0.904061 0.801734 -0.143284
C78   C     C_R   0.009840 0.948640 0.287309 -0.132874
C79   C     C_R   0.087585 0.904157 0.869806 -0.198925
C80   C     C_R   0.156818 0.978446 0.930774 0.218292
C81   C     C_2   0.177951 0.045710 0.059973 -0.235568
C82   C     C_2   0.177714 0.984293 0.007867 -0.230684
C83   C     C_R   0.073706 0.978108 0.793575 0.154652
C84   C     C_R   0.053465 0.021889 0.282875 0.063745
H1    H     H_    0.123246 0.152777 0.370544 0.086016
H2    H     H_    0.140202 0.874338 0.382787 0.127147
H3    H     H_    0.069090 0.114523 0.763461 0.092161
H4    H     H_    0.955027 0.851228 0.640243 0.121947
H5    H     H_    0.137511 0.226916 0.758791 0.103329
H6    H     H_    0.850088 0.560941 0.366995 0.142511
H7    H     H_    0.708991 0.862317 0.417205 0.103594
H8    H     H_    0.816351 0.293787 0.342092 0.137177
H9    H     H_    0.896880 0.253977 0.421715 0.125087
H10   H     H_    0.151776 0.427801 0.588859 0.141430
H11   H     H_    0.257784 0.867412 0.400129 0.133933
H12   H     H_    0.353385 0.116127 0.416710 0.135029
H13   H     H_    0.494549 0.187043 0.420427 0.130725
H14   H     H_    0.627224 0.187936 0.429399 0.128139
H15   H     H_    0.714453 0.120067 0.447696 0.115726
H16   H     H_    0.873426 0.759388 0.253529 0.085628
H17   H     H_    0.588974 0.856588 0.387018 0.121024
H18   H     H_    0.440770 0.778887 0.348494 0.141282
H19   H     H_    0.314430 0.782247 0.352914 0.138307
H20   H     H_    0.802356 0.613835 0.208684 0.114400
H21   H     H_    0.608757 0.642019 0.265493 0.159390
H22   H     H_    0.466388 0.360854 0.058463 0.126523
H23   H     H_    0.502516 0.298162 0.859862 0.126656
H24   H     H_    0.699750 0.469048 0.118139 0.122701
H25   H     H_    0.378183 0.240902 0.741812 0.129355
H26   H     H_    0.595372 0.436843 0.001111 0.139313
H27   H     H_    0.405338 0.429557 0.982572 0.131374
H28   H     H_    0.971364 0.918951 0.135491 0.115665
H29   H     H_    0.174650 0.106975 0.845776 0.118639
H30   H     H_    0.988743 0.847353 0.757585 0.109563
H31   H     H_    0.167836 0.928217 0.014868 0.138738
H32   H     H_    0.259541 0.142557 0.208796 0.131969
H33   H     H_    0.245251 0.107568 0.965629 0.118261
H34   H     H_    0.207016 0.137017 0.304469 0.110271
H35   H     H_    0.726652 0.747855 0.378658 0.106721
H36   H     H_    0.185656 0.101585 0.053438 0.144073
H37   H     H_    0.060849 0.848194 0.877219 0.115405
H38   H     H_    0.103773 0.251395 0.459615 0.107625
H39   H     H_    0.833410 0.129158 0.534519 0.112953
H40   H     H_    0.992236 0.886531 0.249008 0.092068
H41   H     H_    0.281249 0.253707 0.634495 0.126291
N1    N     N_R   0.052580 0.056040 0.395500 -0.043580
N2    N     N_R   0.954640 0.834860 0.500130 -0.061558
N3    N     N_R   0.122510 0.958490 0.460420 -0.044399
N4    N     N_R   0.990180 0.030970 0.644220 -0.033128
N5    N     N_R   0.947420 0.943960 0.604500 -0.053275
N6    N     N_R   0.165270 0.045500 0.500140 -0.055102
N7    N     N_R   0.109790 0.150600 0.644220 -0.030206
N8    N     N_R   0.002890 0.838860 0.460420 -0.059649
N9    N     N_R   0.834730 0.954500 0.499860 -0.051383
N10   N     N_R   0.890210 0.849400 0.355780 -0.043227
N11   N     N_R   0.997110 0.161140 0.539580 -0.041212
N12   N     N_R   0.841950 0.845400 0.395490 -0.041272
N13   N     N_R   0.045360 0.165140 0.499870 -0.054201
N14   N     N_R   0.877490 0.041510 0.539580 -0.028856
N15   N     N_R   0.009820 0.969030 0.355780 -0.039875
N16   N     N_R   0.158050 0.154600 0.604510 -0.040739
Ni1   Ni    Ni4+2 0.104370 0.104380 0.500010 0.203280
Ni2   Ni    Ni4+2 0.895630 0.895620 0.499990 0.208323
Ni3   Ni    Ni4+2 0.006300 0.904810 0.408930 0.200448
Ni4   Ni    Ni4+2 0.993700 0.095190 0.591070 0.286558
C85   C     C_3   0.847009 0.721427 0.514262 -0.480469
C86   C     C_3   0.772333 0.639762 0.446794 -0.262373
C87   C     C_3   0.688821 0.620144 0.452491 -0.902237
H42   H     H_    0.693501 0.615515 0.506345 0.262029
H43   H     H_    0.672778 0.669478 0.450585 0.255255
H44   H     H_    0.637032 0.559687 0.403810 0.257101
H45   H     H_    0.765626 0.642428 0.391977 0.202964
H46   H     H_    0.784497 0.588073 0.446880 0.203973
H47   H     H_    0.867606 0.708929 0.564019 0.184670
H48   H     H_    0.825404 0.767502 0.529062 0.199258
C88   C     C_3   0.313091 0.159086 0.534861 -0.450505
C89   C     C_3   0.292210 0.214109 0.501050 -0.255382
C90   C     C_3   0.367462 0.302541 0.539674 -0.935388
H49   H     H_    0.386230 0.331730 0.601716 0.260600
H50   H     H_    0.422461 0.301572 0.530660 0.262320
H51   H     H_    0.349729 0.340957 0.514762 0.249861
H52   H     H_    0.276030 0.187033 0.439485 0.185424
H53   H     H_    0.236258 0.216363 0.506625 0.194684
H54   H     H_    0.331729 0.182175 0.596329 0.175454
H55   H     H_    0.371553 0.161129 0.532783 0.191203
C91   C     C_3   0.011153 0.730503 0.363560 -0.464640
C92   C     C_3   0.088949 0.718622 0.381674 -0.228487
C93   C     C_3   0.105272 0.693125 0.311749 -0.956392
H56   H     H_    0.049711 0.633208 0.265388 0.270509
H57   H     H_    0.117336 0.741785 0.291197 0.260377
H58   H     H_    0.161738 0.684870 0.326653 0.251447
H59   H     H_    0.146156 0.776794 0.428583 0.195473
H60   H     H_    0.078059 0.668658 0.400397 0.212707
H61   H     H_    0.953542 0.668881 0.323167 0.182877
H62   H     H_    0.013666 0.770503 0.333893 0.179547
C94   C     C_2   0.093574 0.747746 0.596692 0.453620
H63   H     H_    0.140384 0.750646 0.644128 0.028472
O1    O     O_2   0.085750 0.809273 0.606018 -0.596377
C95   C     C_3   0.771146 0.395481 0.300181 -0.422053
C96   C     C_3   0.706645 0.394111 0.332502 -0.233452
C97   C     C_3   0.633841 0.397436 0.280214 -0.932227
H64   H     H_    0.658278 0.458086 0.277558 0.268027
H65   H     H_    0.602652 0.345712 0.222026 0.267183
H66   H     H_    0.586078 0.391686 0.303003 0.248677
H67   H     H_    0.680707 0.336199 0.339685 0.193047
H68   H     H_    0.737696 0.447818 0.389344 0.195463
H69   H     H_    0.780380 0.437116 0.271850 0.190627
H70   H     H_    0.744810 0.332175 0.254255 0.180865
C98   C     C_3   0.247850 0.583320 0.619609 -0.436161
C99   C     C_3   0.252765 0.602189 0.699658 -0.242150
C100  C     C_3   0.335911 0.615520 0.754097 -0.926755
H71   H     H_    0.340053 0.557736 0.734698 0.260226
H72   H     H_    0.390903 0.667556 0.757285 0.263350
H73   H     H_    0.338742 0.631425 0.811893 0.255656
H74   H     H_    0.248381 0.659523 0.721876 0.195408
H75   H     H_    0.199126 0.550281 0.698107 0.197332
H76   H     H_    0.261198 0.531903 0.598853 0.185007
H77   H     H_    0.300696 0.637944 0.624049 0.196372
C101  C     C_3   0.222447 0.703442 0.560229 -0.438968
C102  C     C_3   0.258551 0.682309 0.503139 -0.245155
C103  C     C_3   0.329366 0.760978 0.511193 -0.916884
H78   H     H_    0.304759 0.802155 0.499337 0.259448
H79   H     H_    0.381952 0.795481 0.569588 0.266744
H80   H     H_    0.354595 0.743584 0.469840 0.250913
H81   H     H_    0.283822 0.640484 0.511097 0.196700
H82   H     H_    0.207044 0.649125 0.444228 0.201763
H83   H     H_    0.201925 0.747303 0.549362 0.192664
H84   H     H_    0.272246 0.737859 0.619906 0.188175
C104  C     C_3   0.269745 0.396259 0.863209 -0.458823
C105  C     C_3   0.316940 0.491126 0.891002 -0.232866
C106  C     C_3   0.255954 0.525488 0.887238 -0.904440
H85   H     H_    0.208741 0.498644 0.827393 0.260872
H86   H     H_    0.222242 0.510347 0.922149 0.268282
H87   H     H_    0.292094 0.594330 0.909769 0.245850
H88   H     H_    0.366002 0.522621 0.950796 0.201721
H89   H     H_    0.348962 0.506222 0.854869 0.201125
H90   H     H_    0.217458 0.369081 0.806044 0.204456
H91   H     H_    0.241084 0.381070 0.901381 0.194713
C107  C     C_2   0.974611 0.267560 0.621138 0.423822
H92   H     H_    0.972792 0.325139 0.631805 0.022691
O2    O     O_2   0.964051 0.234828 0.663119 -0.590413
C108  C     C_2   0.481058 0.485174 0.176641 0.483918
H93   H     H_    0.437338 0.418652 0.147551 -0.002688
O3    O     O_2   0.456680 0.530838 0.205508 -0.587919
C109  C     C_3   0.003609 0.908794 0.009409 -0.427703
C110  C     C_3   0.909095 0.857516 0.989161 -0.268693
C111  C     C_3   0.856208 0.806407 0.903109 -0.912897
H94   H     H_    0.861456 0.848180 0.874900 0.262606
H95   H     H_    0.878111 0.763078 0.879964 0.258708
H96   H     H_    0.788491 0.769226 0.890054 0.250900
H97   H     H_    0.900381 0.813655 0.015270 0.196431
H98   H     H_    0.885444 0.899864 0.010625 0.205443
H99   H     H_    0.008063 0.945225 0.975939 0.211681
H100  H     H_    0.026134 0.864506 0.990890 0.182564

loop_
_geom_bond_atom_site_label_1
_geom_bond_atom_site_label_2
_ccdc_geom_bond_type
C98   H77   S    
C40   C41   A    
C102  H81   S    
C61   C68   A    
C71   C109  S    
C103  H78   S    
C12   H7    S    
C3    C23   A    
C19   C20   A    
C75   H33   S    
C87   H44   S    
C43   C44   A    
C2    C12   A    
C11   N7    A    
C31   C101  S    
C81   C82   D    
C53   C59   A    
C106  H87   S    
C62   H21   S    
C53   C54   A    
C1    C84   A    
C40   C46   A    
C79   H37   S    
C81   H36   S    
N1    N15   A    
C50   H15   S    
C89   C90   S    
C73   H32   S    
C18   C24   A    
C109  H100  S    
C27   C28   A    
C28   C29   A    
C3    C68   S    
C87   H43   S    
C82   H31   S    
C18   C19   A    
C9    H4    S    
N10   Ni3   S    
C38   C39   A    
C6    C85   S    
C11   C14   A    
C6    N2    A    
C35   H10   S    
C7    H2    S    
C95   H69   S    
C77   C83   A    
C26   H8    S    
C110  H97   S    
C97   H64   S    
C58   H23   S    
C73   C74   A    
C30   C98   S    
C111  H94   S    
C10   N6    A    
C44   C50   A    
C90   H51   S    
C59   H25   S    
N9    Ni2   S    
C54   C55   A    
C93   H58   S    
N14   Ni4   S    
C85   H48   S    
C86   C87   S    
C102  C103  S    
C43   H14   S    
C94   H63   S    
C70   C71   A    
C7    N3    A    
C78   H40   S    
C75   C80   A    
C89   H53   S    
N4    Ni4   S    
N11   Ni4   S    
C60   H24   S    
C99   H75   S    
C16   C37   S    
C92   H60   S    
C45   H35   S    
C93   H57   S    
C32   H9    S    
C6    C15   A    
C101  C102  S    
C92   C93   S    
C12   N9    A    
C21   C22   A    
C4    C56   A    
C90   H50   S    
C103  H79   S    
C63   C108  S    
C36   C41   A    
C69   C70   A    
C66   H22   S    
C76   C83   A    
C41   C49   A    
C44   C46   A    
C60   C64   A    
C50   C51   A    
C39   C42   A    
C57   C58   A    
C54   C104  S    
C1    H1    S    
C74   H34   S    
C104  C105  S    
C4    C34   A    
C52   H17   S    
C91   H61   S    
C85   C86   S    
C100  H71   S    
N2    N8    A    
C61   H20   S    
C1    N1    A    
C80   C82   S    
C2    C67   A    
N13   Ni1   S    
C97   H65   S    
C10   C88   S    
N9    N14   A    
C34   C107  S    
C95   H70   S    
C45   N12   A    
C58   C59   A    
C9    N5    A    
C20   H6    S    
C3    C45   A    
C98   C99   S    
C79   C80   A    
C67   H39   S    
C60   C61   A    
C17   C83   S    
C64   C66   S    
C37   C38   A    
C15   C19   S    
C75   C76   A    
C100  H72   S    
C106  H85   S    
C91   H62   S    
C29   C30   A    
C2    C51   S    
C107  O2    D    
C56   N13   A    
C11   H5    S    
C5    N16   A    
C47   C48   A    
C85   H47   S    
C34   N11   A    
C48   C49   A    
C106  H86   S    
C48   H18   S    
C14   C53   S    
C62   C63   A    
C101  H83   S    
C76   H29   S    
C26   C27   A    
C77   C79   A    
C69   C74   A    
N2    Ni2   S    
C87   H42   S    
C108  O3    D    
N5    Ni2   S    
N3    Ni3   S    
C5    C14   A    
C47   C52   A    
N6    Ni1   S    
C70   H28   S    
C99   H74   S    
C9    C17   A    
C93   H56   S    
C111  H95   S    
C105  C106  S    
C55   C57   A    
C90   H49   S    
C103  H80   S    
C22   C24   A    
C42   H13   S    
C99   C100  S    
C42   C43   A    
N7    Ni4   S    
C38   H12   S    
C77   H30   S    
N3    N6    A    
C107  H92   S    
C67   N14   A    
C96   C97   S    
N11   N13   A    
N4    N5    A    
C97   H66   S    
C98   H76   S    
N7    N16   A    
N10   N12   A    
C4    C33   S    
C21   C25   A    
C46   C47   A    
C88   C89   S    
N8    Ni3   S    
C102  H82   S    
C55   H27   S    
C27   C32   A    
C13   N8    A    
C7    C16   A    
C72   C81   S    
C57   C65   S    
C72   C73   A    
C78   N15   A    
C49   H19   S    
C25   C95   S    
C92   H59   S    
C23   N10   A    
C95   C96   S    
C29   C35   A    
C8    C17   A    
C62   C68   A    
C96   H68   S    
C8    H3    S    
C109  H99   S    
C32   C33   A    
C13   C15   A    
C86   H45   S    
C25   C26   A    
C24   C31   A    
C104  H90   S    
C51   C52   A    
C69   C84   S    
C10   C16   A    
N16   Ni1   S    
C36   H11   S    
C13   C91   S    
C30   C31   A    
C91   C92   S    
C88   H55   S    
C110  H98   S    
C105  H89   S    
C94   O1    D    
C101  H84   S    
C33   C35   A    
N1    Ni1   S    
C23   H16   S    
C65   C66   D    
N12   Ni2   S    
C108  H93   S    
C86   H46   S    
C65   H26   S    
C100  H73   S    
C96   H67   S    
C63   C64   A    
C39   C40   A    
C78   C84   A    
C104  H91   S    
C71   C72   A    
C111  H96   S    
C20   C21   A    
C88   H54   S    
C36   C37   A    
C110  C111  S    
C5    H41   S    
C8    N4    A    
C22   C28   A    
N15   Ni3   S    
C89   H52   S    
C105  H88   S    
C56   H38   S    
C109  C110  S    
C18   C94   S    
