data_mof_unit_36799.cif
_audit_creation_date              2012-12-10T19:15:23-0500
_audit_creation_method            fapswitch 2.2
_symmetry_space_group_name_H-M    P1
_symmetry_Int_Tables_number       1
_space_group_crystal_system       triclinic
_cell_length_a                    10.687906
_cell_length_b                    9.799313
_cell_length_c                    23.421682
_cell_angle_alpha                 89.64534
_cell_angle_beta                  92.363277
_cell_angle_gamma                 89.645172
_cell_volume                      2450.86523014

loop_
_atom_site_label
_atom_site_type_symbol
_atom_type_description
_atom_site_fract_x
_atom_site_fract_y
_atom_site_fract_z
_atom_type_partial_charge
C1    C     C_R   0.258073 0.500204 0.500056 0.876855
C2    C     C_R   0.610564 0.537916 0.121739 0.512012
C3    C     C_R   0.590964 0.406879 0.241207 -0.108705
C4    C     C_R   0.502511 0.500306 0.389604 0.957355
C5    C     C_R   0.593790 0.412574 0.300513 0.106774
C6    C     C_R   0.508549 0.500414 0.327526 -0.151464
C7    C     C_R   0.425791 0.586624 0.295004 0.404803
C8    C     C_R   0.425886 0.577195 0.234938 -0.252773
C9    C     C_R   0.507943 0.488512 0.208814 0.232864
C10   C     C_R   0.500407 0.618718 0.762435 -0.099567
C11   C     C_R   0.498324 0.620906 0.703129 -0.229685
C12   C     C_R   0.305352 0.379587 0.966661 -0.156948
C13   C     C_R   0.503876 0.497994 0.672840 -0.035846
C14   C     C_R   0.512778 0.373219 0.702550 -0.231513
C15   C     C_R   0.515303 0.371456 0.761796 -0.099146
C16   C     C_R   0.742351 0.499391 0.505878 0.812457
C17   C     C_R   0.508618 0.494026 0.791708 0.319425
C18   C     C_3   0.081788 0.598840 0.550410 -0.386624
C19   C     C_3   0.076168 0.352731 0.515182 -0.394483
C20   C     C_3   0.937519 0.613119 0.548903 0.057513
C21   C     C_3   0.936555 0.354955 0.527637 0.043446
C22   C     C_3   0.062346 0.547558 0.445070 -0.424445
C23   C     C_R   0.305706 0.377616 0.026104 -0.161953
C24   C     C_3   0.122305 0.500042 0.502738 0.099740
C25   C     C_3   0.880291 0.498539 0.509110 0.158731
C26   C     C_3   0.919927 0.530279 0.446857 -0.518926
C27   C     C_3   0.372352 0.081778 0.486352 -0.320857
C28   C     C_3   0.372105 0.919958 0.487332 -0.322075
C29   C     C_3   0.580308 0.080671 0.454325 -0.241781
C30   C     C_3   0.579287 0.919532 0.453942 -0.234582
C31   C     C_3   0.542648 0.079925 0.555638 0.164091
C32   C     C_3   0.544156 0.917493 0.555476 0.167740
C33   C     C_R   0.500999 0.499542 0.610572 0.847844
C34   C     C_R   0.407756 0.430520 0.058273 -0.022049
C35   C     C_R   0.610663 0.542334 0.882711 0.502219
C36   C     C_R   0.408569 0.438237 0.878843 0.501697
C37   C     C_R   0.407197 0.434153 0.938421 -0.014105
C38   C     C_R   0.510404 0.486730 0.970322 -0.020387
C39   C     C_R   0.613198 0.541434 0.942375 -0.014564
C40   C     C_3   0.888874 0.622384 0.610168 -0.925807
C41   C     C_3   0.920970 0.314754 0.590885 -0.911933
C42   C     C_3   0.667930 0.139951 0.577976 -0.874396
C43   C     C_3   0.671210 0.856287 0.577072 -0.864945
C44   C     C_3   0.692045 0.326751 0.332330 -0.912212
C45   C     C_R   0.510605 0.485086 0.030315 -0.022100
C46   C     C_3   0.282619 0.771764 0.290065 0.120120
C47   C     C_3   0.219898 0.874947 0.327972 -0.843955
C48   C     C_R   0.613394 0.538638 0.062199 -0.019515
C49   C     C_R   0.715568 0.592457 0.033972 -0.159757
C50   C     C_R   0.715542 0.593682 0.974544 -0.158687
C51   C     C_R   0.409702 0.431060 0.117937 0.516186
H1    H     H_    0.225110 0.338484 0.942977 0.193740
H2    H     H_    0.890798 0.274286 0.500944 0.151610
H3    H     H_    0.085127 0.656549 0.437072 0.186059
H4    H     H_    0.098937 0.486793 0.409287 0.187631
H5    H     H_    0.873472 0.624917 0.429717 0.189204
H6    H     H_    0.890908 0.445344 0.418080 0.182857
H7    H     H_    0.335308 0.119414 0.443993 0.171249
H8    H     H_    0.332494 0.880567 0.446192 0.189742
H9    H     H_    0.225706 0.335136 0.046701 0.192144
H10   H     H_    0.306411 0.120151 0.518163 0.151369
H11   H     H_    0.308082 0.883861 0.520430 0.145360
H12   H     H_    0.491779 0.718372 0.681136 0.155290
H13   H     H_    0.547117 0.118833 0.411498 0.162640
H14   H     H_    0.544206 0.884390 0.411162 0.169786
H15   H     H_    0.474096 0.112111 0.587627 0.108449
H16   H     H_    0.477234 0.883916 0.587934 0.107574
H17   H     H_    0.677687 0.118198 0.460012 0.151935
H18   H     H_    0.676339 0.879164 0.458805 0.151632
H19   H     H_    0.795622 0.633990 0.057651 0.192402
H20   H     H_    0.795597 0.636058 0.953954 0.193276
H21   H     H_    0.654926 0.340004 0.219772 0.160701
H22   H     H_    0.363138 0.637166 0.207311 0.135962
H23   H     H_    0.517857 0.277100 0.680163 0.156992
H24   H     H_    0.495037 0.713554 0.785727 0.141603
H25   H     H_    0.890720 0.730324 0.624261 0.245348
H26   H     H_    0.792249 0.583606 0.612676 0.231002
H27   H     H_    0.947595 0.565561 0.642367 0.263382
H28   H     H_    0.831807 0.352105 0.607142 0.247629
H29   H     H_    0.926338 0.202118 0.595691 0.235651
H30   H     H_    0.997284 0.355538 0.619236 0.257487
H31   H     H_    0.746448 0.110402 0.551256 0.232961
H32   H     H_    0.665250 0.249604 0.579415 0.294546
H33   H     H_    0.688652 0.109327 0.623046 0.211576
H34   H     H_    0.522205 0.275041 0.784580 0.141325
H35   H     H_    0.749286 0.883766 0.549683 0.224212
H36   H     H_    0.693768 0.887432 0.621711 0.212000
H37   H     H_    0.668738 0.746668 0.579940 0.294788
H38   H     H_    0.703596 0.352205 0.378145 0.245072
H39   H     H_    0.667785 0.217151 0.328204 0.239565
H40   H     H_    0.784659 0.343438 0.313645 0.244014
H41   H     H_    0.208532 0.723438 0.262371 0.160779
H42   H     H_    0.349626 0.828863 0.263777 0.144027
H43   H     H_    0.292209 0.936587 0.351087 0.235492
H44   H     H_    0.159463 0.944968 0.301314 0.220343
H45   H     H_    0.122263 0.702166 0.544598 0.154024
H46   H     H_    0.161284 0.821950 0.359154 0.251353
H47   H     H_    0.090747 0.287035 0.477309 0.153702
H48   H     H_    0.120080 0.559385 0.592250 0.173077
H49   H     H_    0.133014 0.305179 0.551073 0.181489
H50   H     H_    0.913127 0.712788 0.527977 0.153370
N1    N     N_R   0.509280 0.491618 0.852498 -0.358877
N2    N     N_R   0.509729 0.484872 0.148091 -0.340961
N3    N     N_3   0.499750 0.138610 0.498760 -0.044070
N4    N     N_3   0.499750 0.861390 0.498760 -0.047508
O1    O     O_R   0.314910 0.616040 0.499990 -0.623818
O2    O     O_2   0.309902 0.390372 0.847343 -0.558431
O3    O     O_2   0.312860 0.378223 0.145754 -0.561051
O4    O     O_2   0.706915 0.591028 0.153185 -0.562326
O5    O     O_3   0.344741 0.671322 0.324532 -0.613245
O6    O     O_R   0.314910 0.383960 0.499990 -0.635333
O7    O     O_R   0.500080 0.616070 0.416130 -0.577519
O8    O     O_R   0.500080 0.383930 0.416130 -0.623596
O9    O     O_R   0.685320 0.616040 0.499970 -0.636919
O10   O     O_R   0.685320 0.383960 0.499970 -0.642318
O11   O     O_R   0.500150 0.616010 0.583820 -0.642498
O12   O     O_R   0.500150 0.383990 0.583820 -0.640414
O13   O     O_2   0.708755 0.592543 0.854965 -0.556845
Zn1   Zn    Zn3+2 0.500150 0.654960 0.499970 0.921213
Zn2   Zn    Zn3+2 0.500150 0.345040 0.499970 0.901009

loop_
_geom_bond_atom_site_label_1
_geom_bond_atom_site_label_2
_ccdc_geom_bond_type
C31   H15   S    
C2    O4    S    
C33   O12   A    
C31   C42   S    
O1    Zn1   S    
C18   H45   S    
C42   H31   S    
C17   N1    S    
C35   N1    A    
C41   H29   S    
C7    C8    A    
C22   H3    S    
C12   C23   A    
C34   C51   A    
C29   C30   S    
C18   C24   S    
C43   H37   S    
C14   H23   S    
C36   C37   A    
C19   C21   S    
C11   H12   S    
C38   C39   A    
C20   C40   S    
C45   C48   A    
C46   H41   S    
C20   C25   S    
C10   C17   A    
C51   N2    A    
C29   H17   S    
C27   N3    S    
C36   N1    A    
C12   C37   A    
C38   C45   A    
C27   H10   S    
C32   C43   S    
C51   O3    S    
C18   C20   S    
O9    Zn1   S    
C1    O1    A    
C15   H34   S    
C4    O7    A    
C29   H13   S    
C13   C14   A    
C36   O2    S    
C12   H1    S    
C19   H47   S    
C23   H9    S    
C4    O8    A    
C42   H33   S    
C4    C6    S    
O12   Zn2   S    
C8    C9    A    
C20   H50   S    
C2    C48   A    
C25   C26   S    
C40   H25   S    
C29   N3    S    
C26   H5    S    
O6    Zn2   S    
C35   C39   A    
C50   H20   S    
C13   C33   S    
C37   C38   A    
C3    C9    A    
O8    Zn2   S    
C10   H24   S    
C31   C32   S    
C28   N4    S    
C9    N2    S    
C23   C34   A    
C41   H30   S    
C34   C45   A    
C22   H4    S    
C44   H40   S    
C32   H16   S    
C21   C41   S    
C48   C49   A    
C5    C44   S    
O10   Zn2   S    
C32   N4    S    
C46   O5    S    
C30   N4    S    
C22   C24   S    
C18   H48   S    
C16   O10   A    
C30   H18   S    
C44   H39   S    
C28   H8    S    
C16   C25   S    
C15   C17   A    
C21   C25   S    
C46   C47   S    
C33   O11   A    
C14   C15   A    
C43   H35   S    
C42   H32   S    
C3    C5    A    
C27   H7    S    
C16   O9    A    
C41   H28   S    
O7    Zn1   S    
C19   H49   S    
O11   Zn1   S    
C6    C7    A    
C47   H46   S    
C7    O5    S    
C49   H19   S    
C43   H36   S    
C31   N3    S    
C3    H21   S    
C1    O6    A    
C21   H2    S    
C11   C13   A    
C5    C6    A    
C46   H42   S    
C2    N2    A    
C8    H22   S    
C47   H43   S    
C19   C24   S    
C40   H27   S    
C26   H6    S    
C30   H14   S    
C10   C11   A    
C39   C50   A    
C1    C24   S    
C49   C50   A    
C22   C26   S    
C27   C28   S    
C47   H44   S    
C40   H26   S    
N4    Zn1   S    
C35   O13   S    
C44   H38   S    
N3    Zn2   S    
C28   H11   S    
