data_mof_unit_26254.cif
_audit_creation_date              2012-12-10T17:19:25-0500
_audit_creation_method            fapswitch 2.2
_symmetry_space_group_name_H-M    P1
_symmetry_Int_Tables_number       1
_space_group_crystal_system       triclinic
_cell_length_a                    15.057377
_cell_length_b                    10.77026
_cell_length_c                    9.644527
_cell_angle_alpha                 90.635216
_cell_angle_beta                  89.569696
_cell_angle_gamma                 93.242921
_cell_volume                      1561.43325593

loop_
_atom_site_label
_atom_site_type_symbol
_atom_type_description
_atom_site_fract_x
_atom_site_fract_y
_atom_site_fract_z
_atom_type_partial_charge
C1    C     C_R   0.496518 0.262751 0.499555 0.794687
C2    C     C_R   0.907026 0.517359 0.625606 0.107043
C3    C     C_R   0.952927 0.443619 0.254106 -0.193042
C4    C     C_R   0.045581 0.445801 0.253889 -0.200198
C5    C     C_R   0.092591 0.470954 0.376888 0.097329
C6    C     C_R   0.046357 0.494057 0.501438 0.067356
C7    C     C_R   0.093168 0.518922 0.625860 0.111218
C8    C     C_R   0.046634 0.542290 0.748967 -0.211728
C9    C     C_R   0.954018 0.541743 0.748790 -0.201813
C10   C     C_R   0.185130 0.473482 0.377477 -0.209422
C11   C     C_R   0.231869 0.497779 0.501026 -0.074757
C12   C     C_R   0.328844 0.499256 0.500412 0.799523
C13   C     C_R   0.185761 0.520227 0.624869 -0.259698
C14   C     C_R   0.352013 0.119338 0.639528 -0.164869
C15   C     C_R   0.284960 0.049651 0.708770 -0.110441
C16   C     C_R   0.285643 0.920546 0.710264 -0.122375
C17   C     C_R   0.353439 0.860295 0.642666 -0.170730
C18   C     C_R   0.422941 0.929074 0.573599 0.094643
C19   C     C_R   0.422191 0.060386 0.571981 0.100484
C20   C     C_R   0.490339 0.128539 0.498918 -0.071452
C21   C     C_R   0.555629 0.068217 0.425642 -0.184427
C22   C     C_R   0.556614 0.940391 0.428002 -0.203016
C23   C     C_R   0.497650 0.737037 0.500728 0.793569
C24   C     C_R   0.491916 0.870615 0.502216 -0.096425
C25   C     C_R   0.589166 0.703955 0.137954 0.303729
C26   C     C_R   0.598815 0.813836 0.062394 -0.184620
C27   C     C_R   0.610519 0.804725 0.920390 -0.218375
C28   C     C_R   0.594985 0.690246 0.855402 -0.113672
C29   C     C_R   0.547923 0.592842 0.925053 0.157213
C30   C     C_R   0.547336 0.595311 0.074084 0.099677
C31   C     C_R   0.451793 0.412825 0.071620 0.332614
C32   C     C_R   0.452664 0.412948 0.924614 -0.082021
C33   C     C_R   0.671038 0.497595 0.499872 0.837296
C34   C     C_R   0.814584 0.518139 0.624166 -0.241691
C35   C     C_R   0.767879 0.493955 0.500476 -0.055462
C36   C     C_R   0.813882 0.466605 0.377952 -0.188557
C37   C     C_R   0.906423 0.467216 0.377165 0.104536
C38   C     C_R   0.953234 0.492728 0.501440 0.062163
Cu1   Cu    Cu3+1 0.499990 0.499990 0.640660 0.936175
Cu2   Cu    Cu3+1 0.500010 0.500010 0.359340 1.007970
H1    H     H_    0.779193 0.538904 0.719227 0.159404
H2    H     H_    0.347232 0.219096 0.637583 0.140265
H3    H     H_    0.231652 0.095981 0.760067 0.146089
H4    H     H_    0.232856 0.866692 0.762691 0.140537
H5    H     H_    0.349777 0.759845 0.643546 0.148820
H6    H     H_    0.609521 0.895929 0.374157 0.183002
H7    H     H_    0.621714 0.900131 0.112766 0.172739
H8    H     H_    0.637874 0.883771 0.862592 0.168359
H9    H     H_    0.619293 0.681808 0.751567 0.196213
H10   H     H_    0.777781 0.445693 0.282900 0.175695
H11   H     H_    0.413089 0.342473 0.868308 0.163623
H12   H     H_    0.917686 0.424216 0.158014 0.148400
H13   H     H_    0.080460 0.427906 0.157646 0.150577
H14   H     H_    0.220596 0.455708 0.281717 0.186981
H15   H     H_    0.221826 0.539686 0.720286 0.158809
H16   H     H_    0.081859 0.561368 0.845139 0.146019
H17   H     H_    0.919163 0.560538 0.844819 0.153720
H18   H     H_    0.607587 0.120689 0.369434 0.150802
N1    N     N_R   0.500860 0.501210 0.147910 -0.214861
N2    N     N_R   0.500890 0.501290 0.852040 -0.213303
O1    O     O_R   0.499990 0.319640 0.618810 -0.592116
O2    O     O_R   0.500000 0.319660 0.381240 -0.532054
O3    O     O_R   0.370250 0.499960 0.618800 -0.601721
O4    O     O_R   0.370260 0.499980 0.381230 -0.549878
O5    O     O_R   0.500000 0.680340 0.618760 -0.603850
O6    O     O_R   0.500010 0.680360 0.381190 -0.563570
O7    O     O_R   0.629740 0.500020 0.618770 -0.608877
O8    O     O_R   0.629750 0.500040 0.381200 -0.542616
Br1   Br    Br    0.373120 0.289661 0.156401 -0.534831
Br2   Br    Br    0.698242 0.700387 0.237625 -0.580814

loop_
_geom_bond_atom_site_label_1
_geom_bond_atom_site_label_2
_ccdc_geom_bond_type
C27   H8    S    
C2    C9    A    
C23   C24   S    
C6    C38   A    
C32   H11   S    
C25   C30   A    
C29   C30   A    
C36   H10   S    
C4    H13   S    
C33   O8    A    
Cu1   O3    S    
C28   H9    S    
C16   H4    S    
C19   C20   A    
Cu2   O4    S    
C29   N2    A    
C31   Br1   S    
C3    H12   S    
C30   N1    A    
C23   O5    A    
C17   C18   A    
C15   H3    S    
C21   H18   S    
Cu2   N1    S    
Cu2   O6    S    
C21   C22   A    
C1    O2    A    
C8    H16   S    
C11   C13   A    
C3    C37   A    
C26   C27   A    
C37   C38   A    
C34   H1    S    
C26   H7    S    
C18   C24   A    
Cu1   N2    S    
C23   O6    A    
C5    C10   A    
C28   C29   A    
C33   C35   S    
C17   H5    S    
Cu1   O5    S    
C18   C19   A    
C6    C7    A    
C9    H17   S    
C12   O4    A    
C5    C6    A    
C10   H14   S    
C22   C24   A    
C7    C8    A    
C10   C11   A    
C32   N2    A    
C15   C16   A    
Cu1   Cu2   S    
C16   C17   A    
C7    C13   A    
Cu1   O1    S    
Cu2   O2    S    
C20   C21   A    
C33   O7    A    
C36   C37   A    
C34   C35   A    
Cu2   O8    S    
C2    C34   A    
C31   N1    A    
C27   C28   A    
C12   O3    A    
C2    C38   A    
C14   C15   A    
C4    C5    A    
C1    C20   S    
C25   Br2   S    
C22   H6    S    
C25   C26   A    
C14   H2    S    
Cu1   O7    S    
C14   C19   A    
C31   C32   A    
C3    C4    A    
C11   C12   S    
C8    C9    A    
C13   H15   S    
C35   C36   A    
C1    O1    A    
