data_mof_unit_17918.cif
_audit_creation_date              2012-12-11T14:58:27-0500
_audit_creation_method            fapswitch 2.2
_symmetry_space_group_name_H-M    P1
_symmetry_Int_Tables_number       1
_space_group_crystal_system       triclinic
_cell_length_a                    10.892663
_cell_length_b                    10.888648
_cell_length_c                    18.70458
_cell_angle_alpha                 89.939608
_cell_angle_beta                  90.259367
_cell_angle_gamma                 60.207639
_cell_volume                      1925.23568731

loop_
_atom_site_label
_atom_site_type_symbol
_atom_type_description
_atom_site_fract_x
_atom_site_fract_y
_atom_site_fract_z
_atom_type_partial_charge
C1    C     C_R   0.357817 0.775523 0.397776 0.597252
C2    C     C_R   0.617207 0.128255 0.163849 0.040876
C3    C     C_R   0.360002 0.333249 0.161842 0.007222
C4    C     C_R   0.482471 0.242204 0.273276 -0.108835
C5    C     C_R   0.485123 0.238329 0.199327 -0.014429
C6    C     C_R   0.062863 0.704084 0.285270 -0.078713
C7    C     C_R   0.945362 0.814507 0.318725 -0.119070
C8    C     C_R   0.686798 0.987513 0.188992 -0.114905
C9    C     C_R   0.802306 0.881707 0.152159 -0.119693
C10   C     C_R   0.245246 0.441231 0.198800 -0.124048
C11   C     C_R   0.243885 0.446990 0.273164 -0.002530
C12   C     C_R   0.386022 0.354734 0.387394 0.554975
C13   C     C_R   0.880608 0.785948 0.375481 -0.070034
C14   C     C_R   0.932399 0.646695 0.398438 -0.053591
C15   C     C_R   0.047507 0.535360 0.363930 -0.055786
C16   C     C_R   0.116227 0.563283 0.308022 0.054115
C17   C     C_R   0.363630 0.342997 0.311149 0.040082
C18   C     C_R   0.904222 0.321754 0.308125 -0.178558
C19   C     C_R   0.950511 0.301580 0.238248 -0.159991
C20   C     C_R   0.852765 0.341547 0.182221 -0.018289
C21   C     C_R   0.707548 0.411614 0.195482 -0.092720
C22   C     C_R   0.660440 0.436370 0.265798 0.369572
C23   C     C_R   0.711927 0.416701 0.394731 0.634220
C24   C     C_R   0.759348 0.389401 0.321876 0.076438
C25   C     C_R   0.453337 0.832965 0.289332 0.386528
C26   C     C_R   0.432581 0.875241 0.217861 -0.087595
C27   C     C_R   0.296550 0.938128 0.188240 -0.030625
C28   C     C_R   0.180520 0.968278 0.231697 -0.174970
C29   C     C_R   0.200217 0.929606 0.302972 -0.203373
C30   C     C_R   0.336963 0.853573 0.331110 0.059442
C31   C     C_R   0.340229 0.198482 0.684807 -0.142197
C32   C     C_R   0.317165 0.176806 0.755510 -0.138606
C33   C     C_R   0.279725 0.284943 0.805641 0.083444
C34   C     C_R   0.345395 0.768671 0.604785 0.544369
C35   C     C_R   0.262023 0.416052 0.785026 -0.059953
C36   C     C_R   0.281615 0.438925 0.714321 -0.133034
C37   C     C_R   0.322791 0.329700 0.664396 0.026432
C38   C     C_R   0.907306 0.393730 0.706127 -0.091792
C39   C     C_R   0.938136 0.381855 0.778058 0.346145
C40   C     C_R   0.913274 0.290791 0.821072 0.038596
C41   C     C_R   0.853996 0.214291 0.791206 -0.145546
C42   C     C_R   0.816208 0.231988 0.719304 -0.157972
C43   C     C_R   0.840094 0.324448 0.677108 -0.030499
C44   C     C_R   0.194896 0.855173 0.709792 -0.154106
C45   C     C_R   0.368798 0.349317 0.595259 0.538143
C46   C     C_R   0.182241 0.858135 0.783568 0.190527
C47   C     C_R   0.299352 0.837245 0.826016 0.034630
C48   C     C_R   0.431449 0.792045 0.794584 0.304681
C49   C     C_R   0.444408 0.779711 0.721160 -0.131080
C50   C     C_R   0.325664 0.813125 0.678501 -0.081844
C51   C     C_R   0.906492 0.317618 0.110622 0.539257
C52   C     C_R   0.329914 0.295540 0.091640 0.527135
C53   C     C_R   0.270746 0.964950 0.111823 0.568815
C54   C     C_R   0.946417 0.282142 0.896794 0.578120
C55   C     C_R   0.269811 0.255495 0.879992 0.539698
C56   C     C_R   0.768628 0.373508 0.608930 0.551489
C57   C     C_R   0.275621 0.892029 0.898302 0.592387
C58   C     C_R   0.850676 0.914964 0.090225 -0.100409
C59   C     C_R   0.783734 0.054178 0.065143 -0.071516
C60   C     C_R   0.669702 0.160990 0.102407 -0.055718
Cr1   Cr    Cr6+3 0.601770 0.606860 0.505860 1.034283
Cr2   Cr    Cr6+3 0.291380 0.601660 0.495070 1.023438
Cr3   Cr    Cr6+3 0.606880 0.291510 0.499120 1.011265
Cr4   Cr    Cr6+3 0.062440 0.063090 0.008210 0.990031
Cr5   Cr    Cr6+3 0.062880 0.375170 0.998920 1.049611
Cr6   Cr    Cr6+3 0.374700 0.061720 0.992470 1.060606
H1    H     H_    0.578669 0.168768 0.301306 0.134278
H2    H     H_    0.790811 0.871786 0.401919 0.119941
H3    H     H_    0.884373 0.625510 0.443686 0.137235
H4    H     H_    0.086364 0.428045 0.382441 0.085671
H5    H     H_    0.980657 0.286689 0.351443 0.120071
H6    H     H_    0.062591 0.254943 0.227668 0.122703
H7    H     H_    0.631773 0.448577 0.151858 0.125138
H8    H     H_    0.523232 0.849808 0.184726 0.149917
H9    H     H_    0.074477 0.016395 0.209582 0.153780
H10   H     H_    0.853111 0.773428 0.171140 0.136835
H11   H     H_    0.109240 0.950414 0.334828 0.137869
H12   H     H_    0.374828 0.112766 0.646756 0.118859
H13   H     H_    0.331770 0.075175 0.771708 0.116756
H14   H     H_    0.237400 0.498573 0.823945 0.133471
H15   H     H_    0.273874 0.538725 0.699449 0.122970
H16   H     H_    0.925266 0.466524 0.674388 0.140224
H17   H     H_    0.828719 0.148651 0.824342 0.176069
H18   H     H_    0.759037 0.182291 0.698137 0.141285
H19   H     H_    0.103282 0.879595 0.676998 0.151026
H20   H     H_    0.905134 0.922541 0.300988 0.105713
H21   H     H_    0.548181 0.740179 0.698006 0.165540
H22   H     H_    0.939249 0.832717 0.061348 0.118675
H23   H     H_    0.819366 0.079102 0.016301 0.153316
H24   H     H_    0.618262 0.267927 0.081497 0.102433
H25   H     H_    0.113146 0.728609 0.242084 0.134357
H26   H     H_    0.649802 0.958504 0.236180 0.136564
H27   H     H_    0.150467 0.515608 0.169933 0.130482
O1    O     O_R   0.748800 0.497470 0.428000 -0.510862
O2    O     O_R   0.300070 0.471040 0.567100 -0.508289
O3    O     O_R   0.491670 0.258900 0.574910 -0.517978
O4    O     O_R   0.718780 0.304180 0.577850 -0.498949
O5    O     O_3   0.500010 0.500010 0.500020 -0.264284
O6    O     O_R   0.186690 0.923650 0.086970 -0.512341
O7    O     O_R   0.957250 0.194250 0.084630 -0.531831
O8    O     O_R   0.934970 0.407490 0.085330 -0.502388
O9    O     O_R   0.203780 0.365190 0.067090 -0.510915
O10   O     O_R   0.417600 0.174890 0.067840 -0.511106
O11   O     O_R   0.375320 0.946260 0.070860 -0.489061
O12   O     O_R   0.476420 0.724060 0.429470 -0.450079
O13   O     O_R   0.160600 0.919630 0.926660 -0.484108
O14   O     O_R   0.933060 0.190520 0.936020 -0.530743
O15   O     O_R   0.908880 0.403460 0.925020 -0.426501
O16   O     O_R   0.179600 0.361450 0.918490 -0.472468
O17   O     O_R   0.391510 0.170860 0.907530 -0.507130
O18   O     O_R   0.351130 0.942530 0.922260 -0.459715
O19   O     O_3   0.166667 0.166667 0.999870 -0.328154
O20   O     O_R   0.264580 0.744340 0.416750 -0.514621
O21   O     O_R   0.309380 0.472470 0.418200 -0.482631
O22   O     O_R   0.501710 0.260430 0.414300 -0.537710
O23   O     O_R   0.728090 0.305600 0.428960 -0.525727
O24   O     O_R   0.738760 0.495930 0.588610 -0.535988
O25   O     O_R   0.467110 0.722640 0.578360 -0.514043
O26   O     O_R   0.254530 0.742800 0.577360 -0.528042
F1    F     F_    0.519558 0.508207 0.279201 -0.652512
F2    F     F_    0.587717 0.761407 0.315211 -0.636333
F3    F     F_    0.981668 0.468268 0.806428 -0.663219
O27   O     O_3   0.051153 0.899246 0.813734 -0.560214
C61   C     C_3   0.002185 0.804061 0.796260 0.020512
H28   H     H_    0.992281 0.755802 0.846719 0.184141
H29   H     H_    0.073944 0.715449 0.760865 0.126286
C62   C     C_3   0.856695 0.884958 0.760441 -0.278377
H30   H     H_    0.780495 0.966633 0.797500 0.175178
H31   H     H_    0.864889 0.937627 0.711373 0.151493
C63   C     C_3   0.800200 0.787071 0.739498 -0.410904
H32   H     H_    0.872627 0.706483 0.700907 0.153799
H33   H     H_    0.694805 0.850230 0.713784 0.146543
H34   H     H_    0.788997 0.733762 0.787576 0.263220
F4    F     F_    0.546867 0.763259 0.834792 -0.626928

loop_
_geom_bond_atom_site_label_1
_geom_bond_atom_site_label_2
_ccdc_geom_bond_type
C34   O25   A    
C52   O10   A    
C33   C55   S    
C41   C42   A    
C49   H21   S    
C35   C36   A    
Cr5   O8    S    
O27   C61   S    
C53   O6    A    
C22   F1    S    
C52   O9    A    
C26   C27   A    
C39   F3    S    
C54   O14   A    
Cr4   O14   S    
C18   C24   A    
C56   O4    A    
C48   F4    S    
C28   C29   A    
Cr2   O21   S    
C20   C51   S    
C59   H23   S    
C38   C39   A    
C2    C60   A    
Cr4   O19   S    
C7    H20   S    
C53   O11   A    
C6    H25   S    
C41   H17   S    
C21   H7    S    
C35   H14   S    
C34   O26   A    
C9    C58   A    
C56   O24   A    
C26   H8    S    
C23   O23   A    
Cr2   O5    S    
Cr4   O6    S    
C11   C17   A    
Cr1   O5    S    
Cr2   O2    S    
C8    C9    A    
C12   C17   S    
C23   C24   S    
C8    H26   S    
C9    H10   S    
Cr6   O18   S    
Cr1   O12   S    
Cr5   O15   S    
C12   O22   A    
Cr3   O22   S    
C57   O13   A    
C59   C60   A    
C21   C22   A    
C55   O16   A    
C19   H6    S    
C1    O20   A    
Cr5   O9    S    
C44   C46   A    
C12   O21   A    
C34   C50   S    
C15   C16   A    
Cr1   O24   S    
Cr6   O11   S    
C42   H18   S    
Cr2   O20   S    
C39   C40   A    
Cr1   O1    S    
C18   C19   A    
C10   H27   S    
C58   C59   A    
Cr3   O3    S    
C31   C37   A    
C63   H33   S    
C62   H31   S    
Cr5   O19   S    
C29   C30   A    
C18   H5    S    
C47   C57   S    
C11   C16   S    
C47   C48   A    
C7    C13   A    
C36   H15   S    
Cr6   O17   S    
Cr5   O16   S    
Cr2   O26   S    
C61   C62   S    
C4    C17   A    
C40   C41   A    
C40   C54   S    
C55   O17   A    
C14   H3    S    
C22   C24   A    
C46   O27   S    
C63   H34   S    
C51   O8    A    
C42   C43   A    
Cr3   O23   S    
C37   C45   S    
C44   H19   S    
C45   O2    A    
C31   H12   S    
C61   H29   S    
C44   C50   A    
C25   C30   A    
C15   H4    S    
C46   C47   A    
C36   C37   A    
Cr1   O25   S    
Cr6   O10   S    
C31   C32   A    
C2    C8    A    
C4    C5    A    
C3    C5    A    
C58   H22   S    
C4    H1    S    
C3    C52   S    
C27   C53   S    
Cr4   O13   S    
C6    C7    A    
C60   H24   S    
Cr3   O5    S    
C23   O1    A    
C54   O15   A    
C51   O7    A    
C32   C33   A    
C19   C20   A    
C63   H32   S    
C25   C26   A    
C62   C63   S    
C38   C43   A    
Cr3   O4    S    
C3    C10   A    
C32   H13   S    
C28   H9    S    
C57   O18   A    
C48   C49   A    
C1    C30   S    
C33   C35   A    
C10   C11   A    
C6    C16   A    
C2    C5    S    
C43   C56   S    
Cr4   O7    S    
C29   H11   S    
C20   C21   A    
C49   C50   A    
C27   C28   A    
C14   C15   A    
Cr6   O19   S    
C13   C14   A    
C45   O3    A    
C25   F2    S    
C38   H16   S    
C62   H30   S    
C1    O12   A    
C61   H28   S    
C13   H2    S    
