data_mof_unit_54876.cif
_audit_creation_date              2012-10-26T19:40:03-0400
_audit_creation_method            fapswitch 2.2
_symmetry_space_group_name_H-M    P1
_symmetry_Int_Tables_number       1
_space_group_crystal_system       triclinic
_cell_length_a                    15.000173
_cell_length_b                    8.660431
_cell_length_c                    7.515777
_cell_angle_alpha                 102.715084
_cell_angle_beta                  95.131628
_cell_angle_gamma                 93.303961
_cell_volume                      945.589528177

loop_
_atom_site_label
_atom_site_type_symbol
_atom_type_description
_atom_site_fract_x
_atom_site_fract_y
_atom_site_fract_z
_atom_type_partial_charge
C1    C     C_R   0.497084 0.200000 0.453458 0.519696
C2    C     C_R   0.180608 0.353563 0.465367 0.053352
C3    C     C_R   0.766803 0.500941 0.496950 0.014052
C4    C     C_R   0.233197 0.499059 0.503050 0.014053
C5    C     C_R   0.805882 0.355058 0.459312 0.064418
C6    C     C_R   0.194118 0.644942 0.540688 0.064418
C7    C     C_R   0.899313 0.354437 0.460239 0.053475
C8    C     C_R   0.100687 0.645563 0.539761 0.053475
C9    C     C_R   0.952960 0.500183 0.499003 0.001537
C10   C     C_R   0.047040 0.499817 0.500998 0.001537
C11   C     C_R   0.912841 0.646296 0.535947 0.051784
C12   C     C_R   0.502916 0.800000 0.546542 0.519696
C13   C     C_R   0.087159 0.353704 0.464054 0.051784
C14   C     C_R   0.940271 0.210727 0.423640 -0.124597
C15   C     C_R   0.059729 0.789273 0.576361 -0.124597
C16   C     C_3   0.353252 0.287054 0.968466 -0.034831
C17   C     C_3   0.646748 0.712946 0.031535 -0.034831
C18   C     C_R   0.032885 0.210364 0.425565 -0.127903
C19   C     C_R   0.967115 0.789636 0.574436 -0.127903
C20   C     C_2   0.495671 0.031919 0.427497 -0.160832
C21   C     C_2   0.504329 0.968081 0.572503 -0.160832
C22   C     C_R   0.329428 0.498788 0.500845 0.525010
C23   C     C_R   0.670571 0.501212 0.499155 0.525010
C24   C     C_R   0.819392 0.646437 0.534633 0.053352
Cu1   Cu    Cu3+1 0.510010 0.517380 0.684380 1.032797
Cu2   Cu    Cu3+1 0.489990 0.482620 0.315620 1.032797
H1    H     H_    0.900998 0.097404 0.392978 0.159674
H2    H     H_    0.268369 0.203129 0.539372 0.239042
H3    H     H_    0.715277 0.204248 0.534266 0.242796
H4    H     H_    0.705389 0.202375 0.306984 0.243911
H5    H     H_    0.284723 0.795752 0.465733 0.242796
H6    H     H_    0.294611 0.797625 0.693016 0.243911
H7    H     H_    0.313804 0.393482 0.984741 0.127424
H8    H     H_    0.355254 0.236718 0.091565 0.142026
H9    H     H_    0.317629 0.194964 0.853956 0.097866
H10   H     H_    0.644746 0.763281 0.908434 0.142026
H11   H     H_    0.686196 0.606518 0.015260 0.127424
H12   H     H_    0.099002 0.902596 0.607022 0.159674
H13   H     H_    0.682371 0.805036 0.146044 0.097866
H14   H     H_    0.061578 0.096753 0.396080 0.155902
H15   H     H_    0.938422 0.903247 0.603921 0.155902
H16   H     H_    0.487503 0.960438 0.287799 0.165501
H17   H     H_    0.512497 0.039562 0.712201 0.165500
H18   H     H_    0.744375 0.801119 0.688012 0.225607
H19   H     H_    0.731631 0.796871 0.460627 0.239042
H20   H     H_    0.255625 0.198881 0.311987 0.225607
N1    N     N_2   0.474890 0.456420 0.038520 0.104996
N2    N     N_2   0.525110 0.543580 0.961480 0.104996
N3    N     N_3   0.778365 0.794597 0.571586 -0.648246
N4    N     N_3   0.221635 0.205403 0.428413 -0.648246
N5    N     N_3   0.751152 0.207346 0.421884 -0.648755
N6    N     N_3   0.248848 0.792654 0.578116 -0.648755
O1    O     O_R   0.506510 0.286130 0.619770 -0.458476
O2    O     O_3   0.559720 0.680320 0.075455 -0.474128
O3    O     O_R   0.493490 0.713870 0.380230 -0.458476
O4    O     O_R   0.489600 0.256770 0.308360 -0.512577
O5    O     O_R   0.510400 0.743230 0.691640 -0.512577
O6    O     O_R   0.378710 0.514640 0.655720 -0.489352
O7    O     O_R   0.621290 0.485360 0.344280 -0.489352
O8    O     O_R   0.361800 0.485290 0.344300 -0.541166
O9    O     O_R   0.638200 0.514710 0.655700 -0.541166
O10   O     O_3   0.440280 0.319680 0.924544 -0.474128

loop_
_geom_bond_atom_site_label_1
_geom_bond_atom_site_label_2
_ccdc_geom_bond_type
H18   N3    S    
C22   O6    A    
C2    C4    A    
H4    N5    S    
C15   H12   S    
C17   H10   S    
C16   H7    S    
C17   O2    S    
C4    C22   S    
Cu2   O7    S    
H20   N4    S    
C3    C23   S    
N1    N2    D    
H19   N3    S    
H5    N6    S    
C16   H8    S    
Cu2   O3    S    
N1    O10   S    
Cu1   O9    S    
H6    N6    S    
C23   O7    A    
C20   H16   S    
C9    C11   A    
Cu1   N2    S    
C11   C19   A    
C3    C24   A    
Cu2   O8    S    
C16   O10   S    
C13   C18   A    
C6    C8    A    
C12   O5    A    
Cu2   N1    S    
C8    C10   A    
C17   H13   S    
C1    O4    A    
Cu1   O1    S    
C14   C18   A    
C8    C15   A    
C16   H9    S    
C22   O8    A    
C14   H1    S    
C18   H14   S    
C12   O3    A    
Cu1   O6    S    
H3    N5    S    
Cu1   O5    S    
C7    C9    A    
C11   C24   A    
C23   O9    A    
N2    O2    S    
C20   C21   D    
C4    C6    A    
C9    C10   A    
C24   N3    S    
C5    C7    A    
C2    C13   A    
C1    O1    A    
C5    N5    S    
C1    C20   S    
C17   H11   S    
C2    N4    S    
C6    N6    S    
Cu1   Cu2   S    
C15   C19   A    
H2    N4    S    
C12   C21   S    
C7    C14   A    
C21   H17   S    
C19   H15   S    
C3    C5    A    
C10   C13   A    
Cu2   O4    S    
