data_mof_unit_57827.cif
_audit_creation_date              2012-12-10T17:57:22-0500
_audit_creation_method            fapswitch 2.2
_symmetry_space_group_name_H-M    P1
_symmetry_Int_Tables_number       1
_space_group_crystal_system       triclinic
_cell_length_a                    9.562091
_cell_length_b                    10.792193
_cell_length_c                    13.416311
_cell_angle_alpha                 90.854311
_cell_angle_beta                  71.898326
_cell_angle_gamma                 89.177937
_cell_volume                      1315.57604512

loop_
_atom_site_label
_atom_site_type_symbol
_atom_type_description
_atom_site_fract_x
_atom_site_fract_y
_atom_site_fract_z
_atom_type_partial_charge
C1    C     C_R   0.499594 0.737616 0.499943 0.812972
C2    C     C_R   0.373285 0.484948 0.815843 -0.113103
C3    C     C_R   0.625776 0.930115 0.434086 -0.198872
C4    C     C_R   0.421110 0.492764 0.700267 0.799119
C5    C     C_R   0.628400 0.059002 0.428871 0.010750
C6    C     C_R   0.505047 0.128130 0.492497 -0.096129
C7    C     C_R   0.381498 0.067881 0.556277 -0.183049
C8    C     C_R   0.379846 0.939934 0.558656 -0.132758
C9    C     C_R   0.501175 0.871212 0.497412 -0.054323
C10   C     C_R   0.898775 0.589146 0.553117 -0.029458
C11   C     C_R   0.046333 0.590852 0.553478 0.109852
C12   C     C_R   0.436450 0.477293 0.979280 0.091298
C13   C     C_R   0.099417 0.410630 0.446014 -0.036512
C14   C     C_R   0.951002 0.410879 0.445879 -0.010970
C15   C     C_R   0.502258 0.262323 0.496623 0.821838
C16   C     C_R   0.579358 0.497977 0.299626 0.823254
C17   C     C_R   0.793485 0.393054 0.025420 -0.167445
C18   C     C_R   0.625725 0.481015 0.185280 -0.044863
C19   C     C_R   0.230476 0.525783 0.872624 -0.122820
C20   C     C_R   0.188314 0.537941 0.980963 -0.154548
C21   C     C_R   0.290089 0.516781 0.033924 -0.176591
C22   C     C_2   0.757074 0.116280 0.352424 0.819464
C23   C     C_R   0.472380 0.448896 0.870863 0.057159
C24   C     C_2   0.080896 0.696749 0.612080 0.826832
C25   C     C_2   0.855355 0.308206 0.804597 0.827562
C26   C     C_R   0.547127 0.463225 0.029105 0.068800
C27   C     C_R   0.687096 0.409046 0.973178 0.078595
C28   C     C_R   0.713996 0.367169 0.868502 -0.039722
C29   C     C_R   0.604998 0.383848 0.820575 -0.246397
C30   C     C_R   0.522401 0.503010 0.133376 -0.234527
C31   C     C_R   0.762830 0.428567 0.130368 -0.156158
Cu1   Cu    Cu3+1 0.359340 0.499980 0.500000 0.989564
Cu2   Cu    Cu3+1 0.640660 0.500020 0.500000 0.977827
H1    H     H_    0.844132 0.410160 0.169580 0.172781
H2    H     H_    0.077080 0.567971 0.024027 0.153852
H3    H     H_    0.625400 0.343789 0.742923 0.193274
H4    H     H_    0.718438 0.874992 0.385678 0.178115
H5    H     H_    0.975405 0.107730 0.276862 0.327425
H6    H     H_    0.820212 0.659287 0.596279 0.165689
H7    H     H_    0.037205 0.877520 0.654066 0.336548
H8    H     H_    0.076859 0.316184 0.750551 0.334947
H9    H     H_    0.287286 0.120100 0.606049 0.157393
H10   H     H_    0.286345 0.894648 0.610736 0.171133
H11   H     H_    0.175090 0.339078 0.402396 0.144450
H12   H     H_    0.915793 0.339505 0.402158 0.155967
H13   H     H_    0.898965 0.348566 0.987632 0.179114
H14   H     H_    0.422182 0.551048 0.177094 0.148180
H15   H     H_    0.151482 0.550808 0.833333 0.227615
H16   H     H_    0.249119 0.528948 0.117909 0.131347
N1    N     N_R   0.147940 0.499970 0.499970 -0.198457
N2    N     N_R   0.852060 0.500060 0.499990 -0.181608
O1    O     O_R   0.381250 0.680340 0.500010 -0.565265
O2    O     O_R   0.896727 0.060884 0.330753 -0.753886
O3    O     O_2   0.144829 0.681448 0.676660 -0.594991
O4    O     O_R   0.024436 0.814363 0.601077 -0.771766
O5    O     O_2   0.854550 0.213774 0.753234 -0.585080
O6    O     O_R   0.988772 0.363839 0.798446 -0.787696
O7    O     O_R   0.618820 0.680370 0.500010 -0.584229
O8    O     O_R   0.323240 0.499950 0.650980 -0.531812
O9    O     O_R   0.560810 0.499980 0.650980 -0.590512
O10   O     O_R   0.381180 0.319630 0.499990 -0.592056
O11   O     O_R   0.618750 0.319660 0.499990 -0.568963
O12   O     O_R   0.439190 0.500020 0.349020 -0.591476
O13   O     O_R   0.676760 0.500050 0.349020 -0.568493
O14   O     O_2   0.740862 0.209060 0.305696 -0.628179

loop_
_geom_bond_atom_site_label_1
_geom_bond_atom_site_label_2
_ccdc_geom_bond_type
C8    C9    A    
C2    C4    S    
C8    H10   S    
C22   O14   D    
C6    C7    A    
C3    C9    A    
C16   O12   A    
C13   C14   A    
Cu2   N2    S    
C30   H14   S    
C19   C20   A    
C29   H3    S    
C25   O5    D    
H7    O4    S    
Cu1   Cu2   S    
C4    O9    A    
C21   H16   S    
C15   O10   A    
C31   H1    S    
H8    O6    S    
C7    C8    A    
C11   N1    A    
C1    O7    A    
C17   H13   S    
C24   O4    S    
C12   C23   A    
Cu1   N1    S    
C26   C27   A    
Cu2   O7    S    
H5    O2    S    
C25   O6    S    
Cu2   O13   S    
C18   C30   A    
C10   N2    A    
C23   C29   A    
C4    O8    A    
C28   C29   A    
C15   O11   A    
Cu1   O10   S    
C26   C30   A    
Cu2   O9    S    
Cu1   O12   S    
C5    C6    A    
C17   C31   A    
C1    O1    A    
C10   C11   A    
C24   O3    D    
C13   N1    A    
C17   C27   A    
C3    C5    A    
C11   C24   S    
C27   C28   A    
C1    C9    S    
C20   C21   A    
C22   O2    S    
C16   C18   S    
C7    H9    S    
C2    C23   A    
C19   H15   S    
Cu1   O1    S    
C18   C31   A    
C16   O13   A    
Cu1   O8    S    
C14   H12   S    
C6    C15   S    
C2    C19   A    
C20   H2    S    
C12   C21   A    
C10   H6    S    
C13   H11   S    
C5    C22   S    
C14   N2    A    
C3    H4    S    
C12   C26   A    
Cu2   O11   S    
C25   C28   S    
