data_mof_unit_58772.cif
_audit_creation_date              2013-03-05T16:34:20-0500
_audit_creation_method            fapswitch 2.2
_symmetry_space_group_name_H-M    P1
_symmetry_Int_Tables_number       1
_space_group_crystal_system       triclinic
_cell_length_a                    18.860835
_cell_length_b                    18.725721
_cell_length_c                    18.862427
_cell_angle_alpha                 109.504549
_cell_angle_beta                  109.699208
_cell_angle_gamma                 109.426952
_cell_volume                      5114.51425794

loop_
_atom_site_label
_atom_site_type_symbol
_atom_site_description
_atom_site_fract_x
_atom_site_fract_y
_atom_site_fract_z
_atom_type_partial_charge
O1    O     O_R   0.409800 0.552180 0.462000 -0.585177
O2    O     O_R   0.409830 0.447810 0.357640 -0.535577
C1    C     C_R   0.380953 0.499791 0.381017 0.844814
O3    O     O_R   0.590160 0.642370 0.552180 -0.583228
O4    O     O_R   0.590190 0.537990 0.447820 -0.595591
C2    C     C_R   0.621195 0.619564 0.502913 0.768092
Cu1   Cu    Cu3+1 0.499980 0.561800 0.561790 1.017667
Cu2   Cu    Cu3+1 0.500020 0.438200 0.438210 1.032415
O5    O     O_R   0.590170 0.552190 0.642360 -0.532841
O6    O     O_R   0.590200 0.447820 0.538000 -0.600232
O7    O     O_R   0.409810 0.462010 0.552180 -0.599159
O8    O     O_R   0.409840 0.357630 0.447820 -0.547678
C3    C     C_R   0.620583 0.501758 0.618702 0.769832
C4    C     C_R   0.379518 0.381088 0.498217 0.822456
C5    C     C_R   0.733437 0.855071 0.777129 -0.228589
H1    H     H_    0.687323 0.870372 0.790765 0.190007
C6    C     C_R   0.714273 0.814977 0.690981 -0.170776
H2    H     H_    0.656542 0.805092 0.640848 0.170133
C7    C     C_R   0.770561 0.791043 0.670154 0.053735
C8    C     C_R   0.849044 0.812639 0.738017 -0.283067
H3    H     H_    0.895240 0.799474 0.722395 0.215535
C9    C     C_R   0.872586 0.859396 0.825755 0.245179
C10   C     C_R   0.812085 0.877469 0.845393 0.326603
C11   C     C_R   0.822956 0.823637 0.576372 -0.224029
C12   C     C_R   0.813888 0.811067 0.496077 -0.072340
C13   C     C_R   0.739196 0.738155 0.417992 0.024296
C14   C     C_R   0.678727 0.675851 0.423383 -0.252283
C15   C     C_R   0.687869 0.688099 0.503976 -0.080365
C16   C     C_R   0.759290 0.765081 0.581871 0.032755
C17   C     C_R   0.640649 0.707790 0.270554 -0.228030
H4    H     H_    0.593505 0.708958 0.290817 0.166947
C18   C     C_R   0.620647 0.689917 0.185443 0.381121
C19   C     C_R   0.682562 0.688149 0.160366 -0.169456
H5    H     H_    0.669004 0.674060 0.095228 0.203397
C20   C     C_R   0.762606 0.704136 0.219177 -0.193409
H6    H     H_    0.809268 0.701497 0.198872 0.160706
C21   C     C_R   0.782178 0.722592 0.303700 -0.103001
C22   C     C_R   0.721373 0.724206 0.330085 0.062832
H7    H     H_    0.584208 0.898109 0.578359 0.122382
C23   C     C_R   0.447700 0.806375 0.516875 -0.134655
H8    H     H_    0.436804 0.850600 0.560257 0.124818
C24   C     C_R   0.378505 0.722713 0.450302 -0.139439
H9    H     H_    0.314229 0.702874 0.442553 0.116186
C25   C     C_R   0.392336 0.665006 0.393946 0.148214
C26   C     C_R   0.475998 0.692362 0.404520 -0.104338
C27   C     C_R   0.544845 0.776338 0.470758 -0.134138
H10   H     H_    0.609077 0.797538 0.478355 0.140015
C28   C     C_R   0.530774 0.833201 0.527027 -0.121748
C29   C     C_R   0.253855 0.575683 0.255163 -0.212392
H11   H     H_    0.257590 0.636603 0.260806 0.159258
C30   C     C_R   0.184801 0.496136 0.182256 -0.115935
C31   C     C_R   0.178967 0.416215 0.173125 -0.121179
C32   C     C_R   0.243947 0.417359 0.238606 0.286393
C33   C     C_R   0.313172 0.498516 0.313228 -0.187690
C34   C     C_R   0.318225 0.578010 0.320946 -0.042758
C35   C     C_R   0.042042 0.274778 0.104219 -0.083307
C36   C     C_R   0.974417 0.193250 0.032115 -0.075604
H12   H     H_    0.925636 0.150026 0.038892 0.179201
C37   C     C_R   0.970157 0.167221 0.951487 -0.062354
C38   C     C_R   0.033433 0.222795 0.942816 -0.124371
H13   H     H_    0.030541 0.201960 0.880581 0.139784
C39   C     C_R   0.100675 0.304857 0.014524 -0.101007
H14   H     H_    0.149577 0.347253 0.007164 0.113851
C40   C     C_R   0.105487 0.331170 0.095784 0.165820
C41   C     C_R   0.246645 0.535511 0.545831 -0.080504
H15   H     H_    0.278546 0.599620 0.602291 0.147875
C42   C     C_R   0.259687 0.469197 0.555363 -0.089431
H16   H     H_    0.301872 0.482600 0.619446 0.145306
C43   C     C_R   0.219665 0.386411 0.482083 0.077706
C44   C     C_R   0.163468 0.369663 0.399930 -0.094182
H17   H     H_    0.130203 0.305429 0.343153 0.174194
C45   C     C_R   0.150870 0.436206 0.390554 -0.140836
H18   H     H_    0.108735 0.423472 0.326836 0.132138
C46   C     C_R   0.192820 0.519232 0.463394 -0.093018
C47   C     C_R   0.172991 0.250354 0.489304 -0.234210
H19   H     H_    0.115013 0.252586 0.484992 0.164106
C48   C     C_R   0.184938 0.182208 0.495468 -0.081474
C49   C     C_R   0.259979 0.178735 0.500344 0.003503
C50   C     C_R   0.322680 0.245157 0.501211 -0.228119
H20   H     H_    0.380321 0.242793 0.504360 0.149234
C51   C     C_R   0.311661 0.314085 0.497125 -0.046947
C52   C     C_R   0.236154 0.317091 0.491013 0.008605
C53   C     C_R   0.347110 0.118912 0.565552 -0.141989
H21   H     H_    0.392931 0.183697 0.622119 0.117454
C54   C     C_R   0.363404 0.050160 0.559625 -0.124208
H22   H     H_    0.421022 0.061769 0.611596 0.121943
C55   C     C_R   0.306073 0.966772 0.486026 -0.126357
H23   H     H_    0.319292 0.913829 0.481080 0.120942
C56   C     C_R   0.231665 0.951671 0.418786 -0.130484
H24   H     H_    0.187610 0.887144 0.361635 0.143385
C57   C     C_R   0.214608 0.020001 0.424853 -0.100613
H25   H     H_    0.157596 0.007812 0.371571 0.120314
C58   C     C_R   0.272577 0.104286 0.498133 0.125431
H26   H     H_    0.621051 0.486743 0.753619 0.177818
C59   C     C_R   0.781320 0.527120 0.616900 -0.241408
H27   H     H_    0.739479 0.539931 0.573631 0.164802
C60   C     C_R   0.852034 0.527345 0.608701 -0.150251
H28   H     H_    0.861120 0.538500 0.558881 0.184835
C61   C     C_R   0.909445 0.512061 0.662990 0.407968
C62   C     C_R   0.896637 0.500025 0.728184 -0.269076
H29   H     H_    0.940264 0.486101 0.767909 0.187268
C63   C     C_R   0.826869 0.502568 0.739560 0.027502
C64   C     C_R   0.765650 0.511190 0.679735 0.086548
C65   C     C_R   0.690628 0.504174 0.684742 -0.069137
C66   C     C_R   0.678791 0.492753 0.750128 -0.165892
H30   H     H_    0.731011 0.482084 0.862807 0.169247
C67   C     C_R   0.740608 0.488446 0.811248 -0.228452
C68   C     C_R   0.815067 0.494491 0.807601 -0.094540
O9    O     O_R   0.052200 0.909800 0.461980 -0.573683
O10   O     O_R   0.947810 0.909820 0.357620 -0.579240
C69   C     C_R   0.998997 0.879705 0.381167 0.780457
O11   O     O_R   0.962020 0.909790 0.552160 -0.576084
O12   O     O_R   0.857630 0.909810 0.447800 -0.573946
C70   C     C_R   0.881081 0.878819 0.497373 0.778122
Cu3   Cu    Cu3+1 0.061810 0.999960 0.561770 0.998289
Cu4   Cu    Cu3+1 0.938190 0.999990 0.438190 1.002800
O13   O     O_R   0.052190 0.090140 0.642340 -0.575340
O14   O     O_R   0.947800 0.090160 0.537980 -0.578855
O15   O     O_R   0.142370 0.090150 0.552150 -0.573910
O16   O     O_R   0.037980 0.090170 0.447800 -0.578825
C71   C     C_R   0.001089 0.119827 0.618789 0.783333
C72   C     C_R   0.118736 0.116995 0.498050 0.780461
O17   O     O_R   0.052180 0.461950 0.909820 -0.567050
O18   O     O_R   0.947800 0.357590 0.909850 -0.576267
C73   C     C_R   0.998149 0.380776 0.879593 0.772252
O19   O     O_R   0.142360 0.552150 0.090150 -0.568928
O20   O     O_R   0.037980 0.447790 0.090180 -0.589033
C74   C     C_R   0.118560 0.498407 0.117281 0.803493
Cu5   Cu    Cu3+1 0.061790 0.561750 0.999970 1.012898
Cu6   Cu    Cu3+1 0.938180 0.438170 0.000010 0.970047
O21   O     O_R   0.052170 0.642340 0.090130 -0.595429
O22   O     O_R   0.947790 0.537980 0.090160 -0.582209
O23   O     O_R   0.962000 0.552140 0.909800 -0.582868
O24   O     O_R   0.857610 0.447780 0.909830 -0.582893
C75   C     C_R   0.998773 0.618932 0.117112 0.795590
C76   C     C_R   0.881282 0.497327 0.878380 0.780225
C77   C     C_R   0.135930 0.793036 0.558293 -0.219834
H31   H     H_    0.201425 0.833409 0.613795 0.172747
C78   C     C_R   0.120988 0.794206 0.481025 -0.174704
H32   H     H_    0.174812 0.834948 0.478174 0.145811
C79   C     C_R   0.036679 0.744654 0.408647 0.133251
C80   C     C_R   0.968291 0.689696 0.412670 -0.243381
H33   H     H_    0.903603 0.647658 0.355975 0.149606
C81   C     C_R   0.982841 0.688972 0.490112 -0.180233
H34   H     H_    0.928541 0.647306 0.492061 0.170861
C82   C     C_R   0.066702 0.741567 0.564172 0.411522
C83   C     C_R   0.020228 0.688067 0.262742 -0.248252
H35   H     H_    0.036298 0.640494 0.272998 0.145544
C84   C     C_R   0.999147 0.686190 0.183473 -0.065370
C85   C     C_R   0.975194 0.745418 0.167743 0.023613
C86   C     C_R   0.976308 0.808383 0.234055 -0.241808
H36   H     H_    0.958450 0.854451 0.222368 0.188555
C87   C     C_R   0.998911 0.811767 0.314398 -0.111161
C88   C     C_R   0.019833 0.749884 0.328530 0.014346
C89   C     C_R   0.993118 0.753560 0.044215 -0.090639
H37   H     H_    0.061664 0.775532 0.080610 0.164940
C90   C     C_R   0.957738 0.740695 0.960078 -0.102326
C91   C     C_R   0.870331 0.716014 0.913253 -0.145089
H38   H     H_    0.844335 0.706583 0.848153 0.170649
C92   C     C_R   0.817163 0.703853 0.950374 0.408771
C93   C     C_R   0.852418 0.713401 0.033795 -0.224602
H39   H     H_    0.811941 0.702568 0.062703 0.164665
C94   C     C_R   0.940068 0.737249 0.080578 0.009832
H40   H     H_    0.395833 0.331120 0.798455 0.129426
C95   C     C_R   0.309755 0.302409 0.848994 -0.098938
H41   H     H_    0.356591 0.305548 0.904155 0.143950
C96   C     C_R   0.227393 0.284569 0.837745 -0.124548
H42   H     H_    0.211145 0.274149 0.884673 0.135720
C97   C     C_R   0.166189 0.279894 0.765997 0.111356
C98   C     C_R   0.188785 0.294426 0.706343 -0.109472
H43   H     H_    0.142738 0.292212 0.651309 0.121699
C99   C     C_R   0.271684 0.313359 0.718519 -0.116473
H44   H     H_    0.289647 0.325926 0.673410 0.139790
C100  C     C_R   0.331881 0.316798 0.789418 -0.089428
C101  C     C_R   0.076501 0.326135 0.817669 -0.207253
H45   H     H_    0.136591 0.384841 0.871810 0.168452
C102  C     C_R   0.996703 0.313456 0.811384 -0.074606
C103  C     C_R   0.918364 0.236479 0.741843 -0.001373
C104  C     C_R   0.921898 0.174487 0.679071 -0.227208
H46   H     H_    0.862052 0.115448 0.624985 0.150895
C105  C     C_R   0.001701 0.187415 0.685518 -0.066606
C106  C     C_R   0.080039 0.263350 0.755813 -0.003523
C107  C     C_R   0.779776 0.146699 0.732324 -0.143094
H47   H     H_    0.803125 0.103459 0.742794 0.117922
C108  C     C_R   0.697267 0.129510 0.720236 -0.135189
H48   H     H_    0.657326 0.073331 0.721300 0.126228
C109  C     C_R   0.666201 0.184630 0.706476 -0.106822
H49   H     H_    0.602238 0.171132 0.696898 0.118853
C110  C     C_R   0.717527 0.256908 0.704600 -0.111290
C111  C     C_R   0.800122 0.274381 0.716817 -0.109367
H50   H     H_    0.838906 0.329843 0.714213 0.106877
C112  C     C_R   0.831969 0.219640 0.731216 0.126412
N1    N     N_R   0.828986 0.917821 0.933313 0.156675
O25   O     O_R   0.794728 0.965233 0.955265 -0.368568
O26   O     O_R   0.868384 0.897898 0.988366 -0.294716
H51   H     H_    0.844396 0.735142 0.348482 0.107878
H52   H     H_    0.487519 0.649137 0.360855 0.108965
N2    N     N_R   0.239992 0.336141 0.228265 0.130418
O27   O     O_R   0.234901 0.282713 0.159076 -0.314811
O28   O     O_R   0.241453 0.315231 0.287703 -0.381937
H53   H     H_    0.045234 0.293920 0.166608 0.118384
H54   H     H_    0.918113 0.103831 0.895872 0.132940
H55   H     H_    0.183234 0.570768 0.456035 0.129307
N3    N     N_R   0.980513 0.508745 0.652049 0.146581
O29   O     O_R   0.990506 0.516743 0.589593 -0.331376
O30   O     O_R   0.035361 0.496700 0.703763 -0.341539
N4    N     N_R   0.081395 0.742993 0.644737 0.143665
O31   O     O_R   0.160021 0.784898 0.710758 -0.322838
O32   O     O_R   0.016115 0.705043 0.653876 -0.345292
N5    N     N_R   0.960349 0.895139 0.892876 0.137576
O33   O     O_R   0.999199 0.971031 0.962504 -0.280148
O34   O     O_R   0.007362 0.861658 0.876925 -0.348286
H56   H     H_    0.998328 0.749927 0.931188 0.206090
N6    N     N_R   0.728215 0.682472 0.903943 0.129925
O35   O     O_R   0.699325 0.686488 0.833063 -0.352106
O36   O     O_R   0.676026 0.661438 0.933508 -0.356655
H57   H     H_    0.878395 0.882527 0.635513 0.160175
H58   H     H_    0.693106 0.299102 0.693222 0.139135
H59   H     H_    0.622645 0.618026 0.363866 0.159695
N7    N     N_R   0.537809 0.672933 0.124768 0.128598
O37   O     O_R   0.480096 0.673802 0.147620 -0.350892
O38   O     O_R   0.519137 0.656097 0.045942 -0.315649

loop_
_geom_bond_atom_site_label_1
_geom_bond_atom_site_label_2
_geom_bond_distance
_ccdc_geom_bond_type
C55   H23   1.082624 S    
H26   C66   1.083858 S    
C14   H59   1.085104 S    
C111  H50   1.081214 S    
C61   N3    1.440965 S    
C89   C90   1.394921 A    
C59   H27   1.081165 S    
C97   C98   1.404423 A    
C7    C8    1.404275 A    
C25   C34   1.481042 S    
C107  H47   1.083453 S    
C107  C112  1.404861 A    
C29   C30   1.392978 A    
O11   C70   1.296932 A    
C103  C104  1.393121 A    
C108  H48   1.082452 S    
C84   C85   1.408867 A    
Cu1   Cu2   2.681456 S    
C101  C102  1.399573 A    
C48   C49   1.411857 A    
C25   C26   1.404993 A    
Cu1   O7    1.966967 S    
C85   C94   1.481840 S    
C77   C78   1.397357 A    
C13   C14   1.394445 A    
C95   H41   1.082292 S    
H30   C67   1.083729 S    
C30   C74   1.450055 S    
C14   C15   1.399098 A    
C15   C16   1.418100 A    
C83   C84   1.396355 A    
C21   C22   1.400588 A    
Cu5   Cu6   2.684029 S    
O21   C75   1.290855 A    
C43   C44   1.403612 A    
C107  C108  1.398546 A    
C54   H22   1.082395 S    
C17   H4    1.083348 S    
C1    C33   1.458473 S    
N6    O36   1.301483 A    
C79   C88   1.479899 S    
C36   C37   1.397699 A    
C46   H55   1.082527 S    
C49   C58   1.479855 S    
C26   H52   1.083162 S    
C5    H1    1.082633 S    
C53   C58   1.405163 A    
C60   H28   1.082546 S    
C35   C36   1.398570 A    
C17   C22   1.406790 A    
C38   C39   1.399460 A    
C27   H10   1.082068 S    
C47   C48   1.401909 A    
C83   C88   1.390205 A    
O5    C3    1.292888 A    
O10   C69   1.299104 A    
C65   C66   1.395245 A    
C39   C40   1.404458 A    
C43   C52   1.479615 S    
C93   C94   1.404751 A    
C11   C16   1.392494 A    
N5    O33   1.301380 A    
C90   C91   1.396565 A    
C2    C15   1.456385 S    
C87   C88   1.417449 A    
C83   H35   1.085366 S    
C99   C100  1.397104 A    
C41   C42   1.399039 A    
O23   C76   1.291724 A    
C111  C112  1.403848 A    
C67   C68   1.397991 A    
C35   C40   1.404393 A    
H40   C100  1.082382 S    
N2    O27   1.301195 A    
C48   C72   1.455700 S    
C56   C57   1.398100 A    
C95   C100  1.397516 A    
Cu2   O8    1.971175 S    
C82   N4    1.439069 S    
O12   Cu4   1.968871 S    
C11   H57   1.085811 S    
C66   C67   1.383272 A    
C23   C24   1.398516 A    
C37   C38   1.397534 A    
C95   C96   1.398209 A    
O17   Cu5   1.965127 S    
C86   C87   1.401696 A    
C91   C92   1.405575 A    
Cu6   O24   1.969451 S    
C24   C25   1.404686 A    
O3    Cu1   1.971174 S    
N7    O38   1.301623 A    
N7    O37   1.301664 A    
C60   C61   1.399063 A    
O16   C72   1.292476 A    
C93   H39   1.082944 S    
N4    O31   1.301567 A    
C54   C55   1.397146 A    
C27   C28   1.397837 A    
C89   H37   1.082212 S    
C59   C64   1.412321 A    
C30   C31   1.409641 A    
C21   H51   1.077758 S    
C77   C82   1.406386 A    
C11   C12   1.392507 A    
C96   C97   1.404352 A    
Cu4   O14   1.967478 S    
C31   C40   1.484083 S    
C96   H42   1.083498 S    
C50   C51   1.396117 A    
C49   C50   1.393107 A    
C81   H34   1.082582 S    
O24   C76   1.297153 A    
C35   H53   1.083132 S    
O19   Cu5   1.969332 S    
Cu3   O13   1.967280 S    
C12   C13   1.413125 A    
C26   C27   1.398548 A    
C51   C52   1.411233 A    
C41   C46   1.398143 A    
Cu4   O16   1.969327 S    
Cu3   O15   1.969108 S    
C38   H13   1.081702 S    
C42   C43   1.403890 A    
C20   H6    1.080364 S    
C105  C106  1.409172 A    
Cu6   O22   1.965245 S    
C47   H19   1.084820 S    
C39   H14   1.083089 S    
C57   C58   1.404801 A    
C81   C82   1.406645 A    
C103  C112  1.480083 S    
C53   H21   1.083335 S    
C86   H36   1.084631 S    
C92   N6    1.438858 S    
C10   N1    1.438548 S    
N1    O26   1.300991 A    
C6    H2    1.081188 S    
O18   Cu6   1.969393 S    
O7    C4    1.288716 A    
C18   N7    1.439792 S    
C31   C32   1.404420 A    
C8    H3    1.083609 S    
C3    C65   1.453346 S    
C63   C68   1.421043 A    
C69   C87   1.460111 S    
C68   C76   1.459242 S    
C44   H17   1.082681 S    
C102  C103  1.412630 A    
C101  C106  1.391649 A    
Cu5   O23   1.969715 S    
C45   C46   1.397616 A    
C42   H16   1.083215 S    
C53   C54   1.398087 A    
C62   C63   1.416004 A    
N3    O30   1.301682 A    
C29   H11   1.085372 S    
N5    O34   1.301363 A    
C55   C56   1.398074 A    
C73   C102  1.454538 S    
C91   H38   1.082186 S    
C80   C81   1.398107 A    
O3    C2    1.287089 A    
C108  C109  1.398105 A    
C24   H9    1.083391 S    
C32   N2    1.439892 S    
C6    C7    1.400843 A    
O20   C74   1.289940 A    
C7    C16   1.485456 S    
O10   Cu4   1.967162 S    
C57   H25   1.083243 S    
C99   H44   1.081260 S    
C71   C105  1.450142 S    
O12   C70   1.288806 A    
O15   C72   1.295254 A    
C110  C111  1.398412 A    
C5    C6    1.394149 A    
C33   C34   1.413401 A    
C23   H8    1.082461 S    
O19   C74   1.294009 A    
C20   C21   1.395688 A    
O1    Cu1   1.969722 S    
C9    C10   1.418455 A    
C13   C22   1.485686 S    
C110  H58   1.082190 S    
C8    C9    1.407480 A    
C45   H18   1.082389 S    
O6    C3    1.290709 A    
O4    Cu2   1.966969 S    
N2    O28   1.300191 A    
C78   H32   1.079125 S    
C59   C60   1.392305 A    
C47   C52   1.392433 A    
C32   C33   1.417111 A    
O13   C71   1.291509 A    
C104  H46   1.085133 S    
C77   H31   1.082542 S    
C90   H56   1.081231 S    
C85   C86   1.391455 A    
C61   C62   1.403743 A    
C89   C94   1.401476 A    
C92   C93   1.406339 A    
O9    C69   1.291160 A    
O2    C1    1.290937 A    
O8    C4    1.295545 A    
O20   Cu6   1.969739 S    
C109  H49   1.082424 S    
C101  H45   1.084960 S    
C75   C84   1.445156 S    
C79   C80   1.401326 A    
C18   C19   1.405770 A    
C17   C18   1.407320 A    
C78   C79   1.400852 A    
C37   H54   1.082694 S    
C36   H12   1.082120 S    
O4    C2    1.300507 A    
C98   C99   1.399257 A    
O22   C75   1.291197 A    
N6    O35   1.301285 A    
C5    C10   1.404314 A    
C62   H29   1.078902 S    
C19   C20   1.395694 A    
C9    N5    1.440556 S    
C19   H5    1.082332 S    
C41   H15   1.082207 S    
C29   C34   1.388760 A    
C63   C64   1.414202 A    
C97   C106  1.479208 S    
C109  C110  1.397752 A    
O17   C73   1.293543 A    
O9    Cu3   1.967384 S    
C50   H20   1.085202 S    
Cu1   O5    1.969525 S    
C104  C105  1.397654 A    
N3    O29   1.301747 A    
Cu2   O6    1.969723 S    
N1    O25   1.301414 A    
C98   H43   1.083085 S    
O2    Cu2   1.969524 S    
C64   C65   1.415306 A    
N4    O32   1.301340 A    
C80   H33   1.082229 S    
O18   C73   1.293278 A    
C44   C45   1.398639 A    
C4    C51   1.452391 S    
O1    C1    1.294512 A    
C56   H24   1.082112 S    
C12   C70   1.450914 S    
C23   C28   1.397830 A    
O14   C71   1.293237 A    
O11   Cu3   1.969233 S    
Cu3   Cu4   2.684694 S    
H7    C28   1.082561 S    
Cu5   O21   1.969488 S    
