data_mof_unit_20880.cif
_audit_creation_date              2013-03-05T15:55:18-0500
_audit_creation_method            fapswitch 2.2
_symmetry_space_group_name_H-M    P1
_symmetry_Int_Tables_number       1
_space_group_crystal_system       triclinic
_cell_length_a                    14.764166
_cell_length_b                    14.739485
_cell_length_c                    33.261809
_cell_angle_alpha                 96.1955
_cell_angle_beta                  96.224099
_cell_angle_gamma                 60.940031
_cell_volume                      6277.06430092

loop_
_atom_site_label
_atom_site_type_symbol
_atom_site_description
_atom_site_fract_x
_atom_site_fract_y
_atom_site_fract_z
_atom_type_partial_charge
O1    O     O_R   0.679450 0.499830 0.463150 -0.546809
O2    O     O_R   0.480650 0.664000 0.464630 -0.538363
C1    C     C_R   0.390889 0.699440 0.446042 0.773693
O3    O     O_R   0.323930 0.675950 0.455370 -0.554105
O4    O     O_R   0.354700 0.475360 0.451930 -0.529295
C2    C     C_R   0.434729 0.408309 0.431982 0.815731
O5    O     O_R   0.494470 0.320860 0.448390 -0.544954
O6    O     O_R   0.662580 0.357570 0.460050 -0.554685
C3    C     C_R   0.700536 0.409797 0.447410 0.758943
O7    O     O_R   0.680900 0.502040 0.551870 -0.547509
O8    O     O_R   0.481990 0.666040 0.546870 -0.537029
C4    C     C_R   0.393245 0.701587 0.561219 0.779329
O9    O     O_R   0.325370 0.678160 0.544080 -0.539235
O10   O     O_R   0.356040 0.477400 0.534170 -0.525697
C5    C     C_R   0.406922 0.388600 0.548962 0.798558
O11   O     O_R   0.495910 0.323070 0.537100 -0.546769
O12   O     O_R   0.663920 0.359620 0.542290 -0.537801
C6    C     C_R   0.701586 0.413366 0.562622 0.787181
Cr1   Cr    Cr6+3 0.576280 0.580550 0.506370 0.933548
Cr2   Cr    Cr6+3 0.346780 0.572400 0.496520 0.972138
Cr3   Cr    Cr6+3 0.576960 0.347070 0.497150 0.934291
O13   O     O_3   0.500010 0.500010 0.500010 -0.356667
H1    H     H_    0.506204 0.259743 0.167154 0.180464
H2    H     H_    0.536160 0.242531 0.305345 0.146874
H3    H     H_    0.554995 0.250016 0.379203 0.143791
C7    C     C_R   0.421719 0.403511 0.387236 -0.069922
C8    C     C_R   0.343742 0.488927 0.366838 -0.195941
C9    C     C_R   0.333784 0.485237 0.324391 -0.036825
C10   C     C_R   0.402894 0.395498 0.302031 0.074214
C11   C     C_R   0.482448 0.311858 0.322252 -0.119430
C12   C     C_R   0.492267 0.315928 0.364454 -0.152127
C13   C     C_R   0.426067 0.291797 0.155252 -0.151311
C14   C     C_R   0.403572 0.267035 0.114865 0.379997
C15   C     C_R   0.218287 0.377990 0.124684 -0.159393
C16   C     C_R   0.243019 0.403275 0.165016 -0.066878
C17   C     C_R   0.346888 0.357331 0.180406 0.003879
C18   C     C_1   0.372369 0.372632 0.222749 0.033040
C19   C     C_1   0.388498 0.384138 0.258666 -0.013309
C20   C     C_R   0.298467 0.305058 0.099619 -0.224029
H4    H     H_    0.290651 0.558374 0.383886 0.151784
N1    N     N_R   0.809521 0.400576 0.225152 -0.183979
N2    N     N_R   0.805260 0.404474 0.265032 -0.258904
C21   C     C_R   0.753215 0.373335 0.409322 -0.043655
C22   C     C_R   0.779166 0.437636 0.390752 -0.150442
C23   C     C_R   0.803325 0.416722 0.350420 -0.119831
C24   C     C_R   0.801731 0.331297 0.327553 -0.011146
C25   C     C_R   0.785628 0.260435 0.347557 -0.044430
C26   C     C_R   0.761936 0.282084 0.388178 -0.192310
N3    N     N_R   0.817022 0.240116 0.259466 -0.252200
N4    N     N_R   0.821148 0.236157 0.219558 -0.259145
C27   C     C_R   0.816879 0.316631 0.201589 0.579644
C28   C     C_R   0.809579 0.324053 0.283130 0.494684
C29   C     C_R   0.799410 0.395352 0.135458 0.299489
C30   C     C_R   0.833291 0.382644 0.096076 0.297670
C31   C     C_R   0.927966 0.195123 0.102013 -0.190440
C32   C     C_R   0.892999 0.207628 0.140170 -0.142243
C33   C     C_R   0.833280 0.307211 0.158127 -0.143703
C34   C     C_R   0.903272 0.281859 0.080575 -0.195869
H5    H     H_    0.774428 0.507902 0.406533 0.144729
H6    H     H_    0.743954 0.230586 0.402543 0.134501
H7    H     H_    0.818239 0.471088 0.336659 0.161300
H8    H     H_    0.980478 0.117080 0.090473 0.166311
H9    H     H_    0.919167 0.138899 0.156745 0.182203
N5    N     N_R   0.288659 0.793203 0.221633 -0.260680
N6    N     N_R   0.286877 0.792058 0.261446 -0.216236
C35   C     C_R   0.369355 0.756649 0.409481 -0.104018
C36   C     C_R   0.270573 0.798024 0.389051 -0.232436
C37   C     C_R   0.254098 0.834306 0.350229 0.389175
C38   C     C_R   0.339652 0.825596 0.331327 -0.095809
C39   C     C_R   0.435670 0.793163 0.353336 -0.174989
C40   C     C_R   0.450418 0.759171 0.392112 -0.148246
N7    N     N_R   0.387709 0.876131 0.272380 -0.257117
N8    N     N_R   0.389056 0.877672 0.232529 -0.204409
C41   C     C_R   0.340444 0.835331 0.206357 0.572514
C42   C     C_R   0.335537 0.834327 0.287527 0.573045
C43   C     C_R   0.246281 0.853224 0.139256 -0.166931
C44   C     C_R   0.227037 0.882561 0.099705 -0.134299
C45   C     C_R   0.392901 0.881327 0.102939 -0.198522
C46   C     C_R   0.412095 0.852546 0.143468 0.370627
C47   C     C_R   0.335330 0.843741 0.162240 -0.087695
C48   C     C_R   0.296503 0.902926 0.081730 -0.136451
H10   H     H_    0.206672 0.799806 0.402964 0.183369
H11   H     H_    0.527300 0.728249 0.407267 0.150841
H12   H     H_    0.153667 0.895888 0.084159 0.162066
H13   H     H_    0.501734 0.786756 0.339406 0.170947
H14   H     H_    0.187177 0.845218 0.152761 0.175125
N9    N     N_R   0.232453 0.410342 0.764825 -0.288294
N10   N     N_R   0.237659 0.409269 0.725096 -0.289644
C49   C     C_R   0.371079 0.367248 0.584947 -0.096463
C50   C     C_R   0.276401 0.439040 0.602283 -0.053994
C51   C     C_R   0.259138 0.426524 0.641345 -0.166342
C52   C     C_R   0.334535 0.343568 0.663429 0.010597
C53   C     C_R   0.422914 0.267249 0.644596 -0.128489
C54   C     C_R   0.440694 0.278671 0.605795 -0.154063
N11   N     N_R   0.408794 0.274712 0.729977 -0.273553
N12   N     N_R   0.403706 0.276003 0.769680 -0.260573
C55   C     C_R   0.315612 0.344120 0.787913 0.549279
C56   C     C_R   0.325804 0.340972 0.706873 0.521684
C57   C     C_R   0.211308 0.391801 0.848067 -0.127040
C58   C     C_R   0.201878 0.374334 0.887208 -0.206249
C59   C     C_R   0.389142 0.263970 0.895794 0.384925
C60   C     C_R   0.397246 0.280496 0.855933 -0.167574
C61   C     C_R   0.308267 0.340713 0.831403 -0.051430
C62   C     C_R   0.289264 0.305672 0.910589 -0.165665
H15   H     H_    0.512909 0.220852 0.593285 0.149118
H16   H     H_    0.124550 0.408680 0.897894 0.163768
H17   H     H_    0.188986 0.484637 0.655213 0.144998
H18   H     H_    0.481203 0.200930 0.660539 0.154722
H19   H     H_    0.141513 0.440123 0.830068 0.157125
H20   H     H_    0.473178 0.244932 0.843897 0.190403
H21   H     H_    0.944531 0.124613 0.876575 0.148581
H22   H     H_    0.749674 0.234377 0.596470 0.140213
C63   C     C_R   0.754805 0.379681 0.602712 -0.058066
C64   C     C_R   0.778383 0.446835 0.629539 -0.157891
C65   C     C_R   0.806857 0.425658 0.670218 -0.127584
C66   C     C_R   0.812428 0.337190 0.684599 0.077139
C67   C     C_R   0.795442 0.265968 0.657527 -0.022429
C68   C     C_R   0.767237 0.287316 0.616740 -0.197879
C69   C     C_R   0.888056 0.209872 0.822886 -0.024944
C70   C     C_R   0.914631 0.200085 0.864461 -0.178363
C71   C     C_R   0.871825 0.381745 0.873266 -0.139909
C72   C     C_R   0.844645 0.391990 0.831907 -0.125266
C73   C     C_R   0.855640 0.305789 0.806426 0.072111
C74   C     C_1   0.840151 0.315836 0.763407 -0.019132
C75   C     C_1   0.828439 0.324792 0.727468 -0.021147
C76   C     C_R   0.910430 0.284851 0.889708 -0.056294
H23   H     H_    0.769270 0.518637 0.619674 0.143073
H24   H     H_    0.819271 0.466274 0.819509 0.144382
H25   H     H_    0.867735 0.448360 0.891957 0.158964
H26   H     H_    0.820221 0.480728 0.690848 0.135178
H27   H     H_    0.430530 0.928547 0.894931 0.197638
H28   H     H_    0.514739 0.784800 0.686204 0.152730
H29   H     H_    0.532913 0.731976 0.613895 0.141808
C77   C     C_R   0.375456 0.755940 0.601864 -0.054728
C78   C     C_R   0.280208 0.790555 0.619062 -0.146156
C79   C     C_R   0.270506 0.820234 0.660297 -0.136323
C80   C     C_R   0.355561 0.816025 0.684696 0.104482
C81   C     C_R   0.448535 0.788178 0.667448 -0.101013
C82   C     C_R   0.458436 0.758635 0.626164 -0.172147
C83   C     C_R   0.403618 0.878648 0.833741 0.401466
C84   C     C_R   0.380512 0.907350 0.874538 -0.217662
C85   C     C_R   0.227845 0.884476 0.862144 -0.142192
C86   C     C_R   0.249532 0.856367 0.821583 -0.184402
C87   C     C_R   0.334927 0.856280 0.806947 -0.011980
C88   C     C_1   0.344249 0.842450 0.763922 0.069053
C89   C     C_1   0.349833 0.831613 0.727789 -0.001328
C90   C     C_R   0.291167 0.913573 0.888723 -0.115044
H30   H     H_    0.214923 0.789354 0.601183 0.153688
H31   H     H_    0.196733 0.839103 0.801140 0.152688
H32   H     H_    0.158338 0.888784 0.872111 0.158730
H33   H     H_    0.198165 0.841931 0.673471 0.129852
O14   O     O_R   0.170070 0.978950 0.027680 -0.544280
O15   O     O_R   0.001760 0.175230 0.026640 -0.541704
C91   C     C_R   0.962112 0.264819 0.045057 0.879717
O16   O     O_R   0.984760 0.333570 0.037150 -0.508848
O17   O     O_R   0.183410 0.309240 0.041890 -0.544019
C92   C     C_R   0.273487 0.261170 0.059856 0.836882
O18   O     O_R   0.340240 0.172500 0.045430 -0.498838
O19   O     O_R   0.309670 0.000990 0.032050 -0.540314
C93   C     C_R   0.259438 0.959539 0.043979 0.773623
O20   O     O_R   0.168330 0.982130 0.939200 -0.547116
O21   O     O_R   0.000140 0.178170 0.944610 -0.537143
C94   C     C_R   0.962448 0.267707 0.930755 0.805291
O22   O     O_R   0.983010 0.336750 0.948660 -0.540526
O23   O     O_R   0.181800 0.312190 0.959860 -0.549788
C95   C     C_R   0.271379 0.265055 0.945826 0.850551
O24   O     O_R   0.338500 0.175680 0.956950 -0.499040
O25   O     O_R   0.308050 0.003930 0.950020 -0.534616
C96   C     C_R   0.256218 0.964970 0.928935 0.794443
Cr4   Cr    Cr6+3 0.087320 0.083240 0.984860 0.973560
Cr5   Cr    Cr6+3 0.087720 0.316210 0.996740 1.010493
Cr6   Cr    Cr6+3 0.317350 0.090340 0.995890 1.057655
O26   O     O_3   0.164130 0.163270 0.992500 -0.360401
N13   N     N_R   0.488562 0.205386 0.089556 0.130109
O27   O     O_R   0.487132 0.235059 0.053927 -0.309673
O28   O     O_R   0.574222 0.130243 0.104459 -0.324160
N14   N     N_R   0.793044 0.469873 0.071161 0.141221
O29   O     O_R   0.763746 0.460637 0.033298 -0.349788
O30   O     O_R   0.784277 0.558914 0.085969 -0.281892
C97   C     C_1   0.786832 0.168092 0.327350 0.372628
N15   N     N_1   0.787674 0.093983 0.311331 -0.235600
N16   N     N_R   0.728079 0.496521 0.151750 0.167976
O31   O     O_R   0.635323 0.516274 0.159198 -0.328035
O32   O     O_R   0.761566 0.561381 0.165946 -0.262768
N17   N     N_R   0.151097 0.879504 0.330627 0.114973
O33   O     O_R   0.082526 0.856585 0.341087 -0.346411
O34   O     O_R   0.121049 0.954091 0.306413 -0.347161
C98   C     C_1   0.473368 0.886044 0.083376 0.500106
N18   N     N_1   0.537794 0.889718 0.067780 -0.201400
N19   N     N_R   0.509042 0.832049 0.165321 0.133659
O35   O     O_R   0.561552 0.748167 0.185015 -0.273401
O36   O     O_R   0.544187 0.897961 0.166295 -0.326333
C99   C     C_1   0.197278 0.528335 0.581833 0.335315
N20   N     N_1   0.133760 0.599975 0.565535 -0.330322
N21   N     N_R   0.482115 0.204680 0.920495 0.125352
O37   O     O_R   0.564729 0.131543 0.903923 -0.324529
O38   O     O_R   0.489191 0.233151 0.958613 -0.311288
C100  C     C_1   0.899852 0.119379 0.797480 0.326351
N22   N     N_1   0.909457 0.046780 0.777162 -0.296542
C101  C     C_1   0.801439 0.173400 0.671267 0.304276
N23   N     N_1   0.806138 0.099262 0.682243 -0.299245
N24   N     N_R   0.493960 0.876622 0.819993 0.099456
O39   O     O_R   0.534271 0.930646 0.840093 -0.333552
O40   O     O_R   0.541764 0.814452 0.789493 -0.371603
C102  C     C_1   0.161281 0.474315 0.191146 0.352419
N25   N     N_1   0.096140 0.530848 0.211948 -0.245608
C103  C     C_1   0.109885 0.426962 0.110176 0.369699
N26   N     N_1   0.023071 0.467273 0.099027 -0.222880
C104  C     C_1   0.251733 0.573568 0.304388 0.330697
N27   N     N_1   0.186053 0.644219 0.288275 -0.206241

loop_
_geom_bond_atom_site_label_1
_geom_bond_atom_site_label_2
_geom_bond_distance
_ccdc_geom_bond_type
H3    C12   1.082814 S    
C57   C61   1.399387 A    
C31   C32   1.382206 A    
O14   C93   1.276063 A    
C54   H15   1.083136 S    
O23   Cr5   1.926516 S    
N19   O35   1.300864 A    
C69   C100  1.444465 S    
N1    N2    1.328516 A    
N11   N12   1.328423 A    
N9    N10   1.329940 A    
C88   C89   1.201692 T    
N17   O33   1.301571 A    
N11   C56   1.356840 A    
C52   C56   1.470808 S    
C73   C74   1.436482 S    
O4    Cr2   1.917409 S    
C2    C7    1.478354 S    
C102  N25   1.157316 T    
C32   C33   1.398679 A    
Cr5   O26   1.967138 S    
O8    Cr1   1.917451 S    
C7    C8    1.406315 A    
O23   C95   1.273180 A    
N24   O40   1.301292 A    
O16   Cr5   2.042990 S    
C13   C17   1.392969 A    
C17   C18   1.440450 S    
Cr6   O26   1.973369 S    
C63   C64   1.404951 A    
C83   N24   1.442118 S    
C53   H18   1.083072 S    
C11   C12   1.393281 A    
C70   C76   1.406979 A    
N17   O34   1.301528 A    
C22   H5    1.083182 S    
H28   C81   1.083639 S    
C86   C87   1.399276 A    
C57   H19   1.082974 S    
C31   H8    1.083746 S    
C24   C28   1.482966 S    
C58   C62   1.406243 A    
C66   C67   1.406594 A    
C65   H26   1.083799 S    
C15   C16   1.410665 A    
N8    C41   1.358229 A    
C49   C54   1.406817 A    
N13   O27   1.301393 A    
C34   C91   1.469705 S    
N16   O31   1.300872 A    
C15   C20   1.427008 A    
C16   C102  1.453119 S    
C92   O18   1.274980 A    
C57   C58   1.388175 A    
C101  N23   1.157219 T    
N14   O30   1.300411 A    
C46   N19   1.438767 S    
O15   Cr4   1.917143 S    
C86   H31   1.084062 S    
C43   C47   1.399686 A    
C100  N22   1.157223 T    
C27   C33   1.472293 S    
C10   C11   1.397420 A    
C21   C26   1.402653 A    
O7    Cr1   2.037180 S    
H27   C84   1.082974 S    
O20   C96   1.273931 A    
C35   C36   1.404011 A    
C7    C12   1.406906 A    
O15   C91   1.270382 A    
C48   C93   1.485284 S    
C4    C77   1.475578 S    
Cr3   O13   1.967398 S    
C20   C92   1.498342 S    
O19   C93   1.279463 A    
C38   C39   1.402246 A    
N7    C42   1.356129 A    
C6    C63   1.476043 S    
C26   H6    1.084670 S    
C2    O5    1.296244 A    
C40   H11   1.083154 S    
C55   C61   1.470314 S    
O1    Cr1   2.036536 S    
C3    C21   1.469495 S    
N24   O39   1.301697 A    
C36   C37   1.402573 A    
C59   C60   1.401401 A    
O10   Cr2   1.924333 S    
C80   C89   1.432039 S    
C78   C79   1.394706 A    
Cr1   O13   1.978578 S    
O1    C3    1.271245 A    
C83   C84   1.404633 A    
C104  N27   1.157069 T    
O19   Cr6   1.926244 S    
C64   C65   1.394732 A    
C77   C82   1.407637 A    
C29   C33   1.415965 A    
C45   C46   1.414722 A    
C37   C38   1.415818 A    
N21   O37   1.301479 A    
C44   H12   1.083117 S    
N4    C27   1.356606 A    
C9    C104  1.444052 S    
C29   C30   1.413974 A    
C5    O11   1.269689 A    
O12   Cr3   1.920857 S    
C103  N26   1.156754 T    
C13   C14   1.401174 A    
H21   C70   1.084368 S    
C16   C17   1.402898 A    
O3    Cr2   2.041401 S    
C10   C19   1.438646 S    
C21   C22   1.398920 A    
C35   C40   1.401899 A    
C18   C19   1.202709 T    
C51   H17   1.084292 S    
C5    C49   1.480599 S    
O14   Cr4   2.038370 S    
C25   C26   1.396677 A    
O21   Cr4   1.920418 S    
C44   C48   1.403644 A    
C8    H4    1.084151 S    
C69   C70   1.399113 A    
N3    C28   1.356008 A    
N12   C55   1.355912 A    
O12   C6    1.274737 A    
O6    C3    1.274125 A    
C32   H9    1.083338 S    
C53   C54   1.387841 A    
C14   C20   1.423078 A    
C43   C44   1.385896 A    
C14   N13   1.437058 S    
C91   O16   1.270281 A    
C71   C72   1.393780 A    
C39   C40   1.390873 A    
C67   C101  1.444579 S    
N14   O29   1.301461 A    
O20   Cr4   2.032693 S    
O25   C96   1.277042 A    
Cr2   O13   1.973535 S    
C37   N17   1.440866 S    
N3    N4    1.329079 A    
C59   C62   1.416335 A    
C66   C75   1.436559 S    
C95   O24   1.269585 A    
C46   C47   1.415996 A    
C60   H20   1.083056 S    
H2    C11   1.083847 S    
C45   C98   1.448206 S    
C1    O3    1.271085 A    
C9    C10   1.408886 A    
C43   H14   1.083338 S    
C51   C52   1.402876 A    
C79   H33   1.083719 S    
C97   N15   1.157527 T    
O21   C94   1.275121 A    
C30   C34   1.413953 A    
C24   C25   1.419745 A    
O17   C92   1.277294 A    
N19   O36   1.301318 A    
O17   Cr5   1.921999 S    
O9    Cr2   2.032216 S    
O2    Cr1   1.921034 S    
O10   C5    1.274050 A    
C85   C90   1.402850 A    
C22   C23   1.389117 A    
C83   C87   1.413120 A    
C71   H25   1.083053 S    
N7    N8    1.330622 A    
O6    Cr3   1.927236 S    
O8    C4    1.278190 A    
O11   Cr3   2.044570 S    
H29   C82   1.083043 S    
O24   Cr6   2.044072 S    
C69   C73   1.407301 A    
C15   C103  1.449424 S    
C25   C97   1.444383 S    
C80   C81   1.398019 A    
C77   C78   1.406955 A    
C58   H16   1.083392 S    
N6    C42   1.356432 A    
C30   N14   1.440127 S    
C87   C88   1.435605 S    
H1    C13   1.084237 S    
C85   H32   1.083028 S    
O2    C1    1.277098 A    
C72   C73   1.398591 A    
C59   N21   1.438062 S    
C71   C76   1.404922 A    
O5    Cr3   2.038733 S    
C29   N16   1.431824 S    
N5    N6    1.329442 A    
H22   C68   1.084325 S    
C64   H23   1.082988 S    
C45   C48   1.419572 A    
O18   Cr6   2.035205 S    
C50   C51   1.398697 A    
O4    C2    1.306570 A    
C50   C99   1.444633 S    
O7    C6    1.272359 A    
C76   C94   1.475233 S    
C23   H7    1.082823 S    
C52   C53   1.399886 A    
N13   O28   1.301428 A    
C38   C42   1.468441 S    
C78   H30   1.083069 S    
C72   H24   1.083849 S    
C60   C61   1.403750 A    
N16   O32   1.300933 A    
C94   O22   1.269877 A    
C81   C82   1.396159 A    
C84   C90   1.406834 A    
C62   C95   1.474441 S    
C63   C68   1.407347 A    
C1    C35   1.472403 S    
C23   C24   1.408056 A    
O25   Cr6   1.916730 S    
C4    O9    1.272108 A    
C36   H10   1.082997 S    
C99   N20   1.157436 T    
C31   C34   1.401208 A    
C8    C9    1.401473 A    
N5    C41   1.357125 A    
C85   C86   1.392299 A    
C98   N18   1.157550 T    
O22   Cr5   2.037867 S    
C41   C47   1.476672 S    
N21   O38   1.301367 A    
C49   C50   1.418567 A    
C67   C68   1.398308 A    
C39   H13   1.083533 S    
C90   C96   1.476582 S    
N1    C27   1.354823 A    
N10   C56   1.356856 A    
C79   C80   1.397732 A    
C65   C66   1.399223 A    
N2    C28   1.357871 A    
C74   C75   1.201405 T    
N9    C55   1.357600 A    
Cr4   O26   1.978484 S    
