data_mof_unit_8666.cif
_audit_creation_date              2012-12-10T18:37:06-0500
_audit_creation_method            fapswitch 2.2
_symmetry_space_group_name_H-M    P1
_symmetry_Int_Tables_number       1
_space_group_crystal_system       triclinic
_cell_length_a                    14.9872
_cell_length_b                    15.476557
_cell_length_c                    23.428573
_cell_angle_alpha                 90.063207
_cell_angle_beta                  105.106895
_cell_angle_gamma                 82.390472
_cell_volume                      5197.08936123

loop_
_atom_site_label
_atom_site_type_symbol
_atom_type_description
_atom_site_fract_x
_atom_site_fract_y
_atom_site_fract_z
_atom_type_partial_charge
C1    C     C_R   0.441992 0.662165 0.493273 0.858255
C2    C     C_R   0.558181 0.337727 0.509422 0.860485
C3    C     C_R   0.579237 0.467169 0.776879 -0.141452
C4    C     C_R   0.415659 0.541220 0.223801 -0.142189
C5    C     C_R   0.582802 0.461685 0.717949 0.132569
C6    C     C_R   0.414177 0.543833 0.283174 0.131511
C7    C     C_R   0.504344 0.500541 0.673179 -0.052218
C8    C     C_R   0.493753 0.503433 0.326554 -0.053669
C9    C     C_R   0.424919 0.542039 0.688186 -0.261665
C10   C     C_R   0.572475 0.464042 0.309832 -0.262987
C11   C     C_R   0.422593 0.546089 0.746858 -0.103279
C12   C     C_R   0.572691 0.462842 0.250737 -0.101788
C13   C     C_R   0.499578 0.508569 0.791048 0.301177
C14   C     C_R   0.494330 0.501231 0.207866 0.301379
C15   C     C_R   0.408205 0.754134 0.498013 -0.058357
C16   C     C_R   0.592789 0.245556 0.524177 -0.063051
C17   C     C_R   0.285008 0.872929 0.496085 -0.200591
C18   C     C_R   0.716300 0.127740 0.564992 -0.202482
C19   C     C_R   0.313122 0.785112 0.488340 -0.202398
C20   C     C_R   0.687912 0.215127 0.546735 -0.206574
C21   C     C_R   0.474428 0.810570 0.516871 -0.256267
C22   C     C_R   0.526974 0.188710 0.520740 -0.254376
C23   C     C_R   0.501955 0.498997 0.610679 0.875182
C24   C     C_R   0.497794 0.501554 0.389303 0.878928
C25   C     C_R   0.448279 0.897773 0.527001 0.093146
C26   C     C_R   0.553248 0.102456 0.541593 0.094009
C27   C     C_R   0.351865 0.929845 0.514151 0.176978
C28   C     C_R   0.649636 0.070864 0.561732 0.179083
C29   C     C_R   0.515808 0.955041 0.545012 0.070674
C30   C     C_R   0.485802 0.045633 0.538794 0.067809
C31   C     C_R   0.389464 0.076135 0.529028 -0.225274
C32   C     C_R   0.612202 0.925041 0.567760 -0.222941
C33   C     C_R   0.323715 0.018571 0.518050 -0.233300
C34   C     C_R   0.677882 0.982691 0.577076 -0.232777
C35   C     C_R   0.842989 0.639448 0.586436 -0.315235
C36   C     C_R   0.156896 0.360771 0.413453 -0.315811
C37   C     C_R   0.753791 0.616233 0.572415 0.008369
C38   C     C_R   0.246113 0.383922 0.427486 0.005421
C39   C     C_R   0.793741 0.509726 0.507001 -0.055726
C40   C     C_R   0.206315 0.490232 0.493066 -0.056207
C41   C     C_R   0.885719 0.530210 0.519182 -0.003280
C42   C     C_R   0.114293 0.469854 0.480840 -0.002888
C43   C     C_R   0.909316 0.596677 0.559938 0.181390
C44   C     C_R   0.090636 0.403477 0.440020 0.179301
C45   C     C_R   0.487269 0.425773 0.117426 0.494023
C46   C     C_R   0.502538 0.585119 0.880746 0.494020
C47   C     C_R   0.954223 0.487608 0.492563 0.082115
C48   C     C_R   0.045789 0.512481 0.507453 0.082280
C49   C     C_R   0.065779 0.579018 0.548385 -0.234712
C50   C     C_R   0.934199 0.421140 0.451582 -0.234316
C51   C     C_R   0.998692 0.620096 0.573970 -0.208119
C52   C     C_R   0.001249 0.380105 0.425962 -0.208689
C53   C     C_R   0.502152 0.577479 0.120884 0.513686
C54   C     C_R   0.487000 0.433558 0.877200 0.513434
C55   C     C_R   0.501055 0.580452 0.061247 -0.061138
C56   C     C_R   0.486461 0.430926 0.936557 -0.061190
C57   C     C_R   0.493724 0.503859 0.028944 -0.035948
C58   C     C_R   0.493581 0.507554 0.968821 -0.035871
C59   C     C_R   0.486900 0.423937 0.056855 -0.077133
C60   C     C_R   0.500663 0.587410 0.940941 -0.077255
C61   C     C_R   0.506876 0.659100 0.034053 -0.150683
C62   C     C_R   0.479448 0.352514 0.963539 -0.150909
C63   C     C_R   0.506070 0.665092 0.974200 0.137412
C64   C     C_R   0.479848 0.346568 0.023317 0.137236
H1    H     H_    0.511988 0.716232 0.060496 0.207629
H2    H     H_    0.474040 0.295462 0.937033 0.207734
H3    H     H_    0.211177 0.896615 0.487088 0.137289
H4    H     H_    0.790137 0.104524 0.581294 0.137621
H5    H     H_    0.363336 0.144263 0.530792 0.153832
H6    H     H_    0.638444 0.857367 0.579890 0.143587
H7    H     H_    0.017061 0.670836 0.605109 0.143908
H8    H     H_    0.982836 0.329443 0.394767 0.144792
H9    H     H_    0.231420 0.539361 0.523239 0.125580
H10   H     H_    0.768702 0.460487 0.476911 0.125934
H11   H     H_    0.859947 0.690398 0.617608 0.143268
H12   H     H_    0.139854 0.309942 0.382198 0.146915
H13   H     H_    0.132884 0.601385 0.561866 0.136022
H14   H     H_    0.867071 0.398838 0.438046 0.136410
H15   H     H_    0.637431 0.437434 0.812164 0.134406
H16   H     H_    0.356341 0.571601 0.189518 0.134520
H17   H     H_    0.364632 0.571825 0.654321 0.155749
H18   H     H_    0.633667 0.433387 0.342636 0.155290
H19   H     H_    0.360779 0.577657 0.758077 0.142391
H20   H     H_    0.633721 0.432341 0.238131 0.142425
H21   H     H_    0.250421 0.044071 0.509931 0.147850
H22   H     H_    0.751179 0.957583 0.593950 0.145280
H23   H     H_    0.454770 0.212228 0.500011 0.160861
H24   H     H_    0.546769 0.786158 0.521453 0.161505
H25   H     H_    0.739936 0.258662 0.550514 0.160917
H26   H     H_    0.260829 0.741880 0.474503 0.158159
N1    N     N_R   0.495075 0.501356 0.147189 -0.341980
N2    N     N_R   0.495746 0.509319 0.851166 -0.341867
N3    N     N_R   0.731690 0.552740 0.533440 -0.099859
N4    N     N_R   0.268310 0.447260 0.466560 -0.100856
O1    O     O_R   0.383120 0.605620 0.483150 -0.617760
O2    O     O_R   0.616880 0.394380 0.516850 -0.618052
O3    O     O_R   0.531890 0.639510 0.504600 -0.619087
O4    O     O_R   0.468110 0.360490 0.495400 -0.620102
O5    O     O_R   0.425590 0.483070 0.573110 -0.614050
O6    O     O_R   0.574410 0.516930 0.426890 -0.612149
O7    O     O_R   0.574360 0.516970 0.594570 -0.623406
O8    O     O_R   0.425640 0.483030 0.405430 -0.621420
O9    O     O_2   0.479138 0.353863 0.146994 -0.596600
O10   O     O_2   0.512333 0.656671 0.851490 -0.596181
O11   O     O_2   0.510483 0.650129 0.152795 -0.567933
O12   O     O_2   0.478946 0.360841 0.845333 -0.568325
Zn1   Zn    Zn3+2 0.400660 0.477370 0.485670 0.938580
Zn2   Zn    Zn3+2 0.599340 0.522630 0.514330 0.939907
H27   H     H_    0.298142 0.351424 0.407368 0.137169
H28   H     H_    0.701700 0.648828 0.592452 0.131450
C65   C     C_3   0.510424 0.753496 0.946384 -0.316278
C66   C     C_3   0.510654 0.832753 0.985638 -0.934406
H29   H     H_    0.446707 0.842370 0.001761 0.269039
H30   H     H_    0.574030 0.825208 0.023486 0.268765
H31   H     H_    0.511521 0.892182 0.959361 0.267055
H32   H     H_    0.575113 0.748930 0.931152 0.249832
H33   H     H_    0.448573 0.768513 0.907870 0.245859
C67   C     C_3   0.473269 0.258535 0.050737 -0.316036
C68   C     C_3   0.468151 0.180073 0.010644 -0.934845
H34   H     H_    0.404409 0.190659 0.973101 0.268968
H35   H     H_    0.531533 0.167588 0.994065 0.268811
H36   H     H_    0.464528 0.121071 0.036446 0.267101
H37   H     H_    0.535874 0.241253 0.088459 0.246852
H38   H     H_    0.409484 0.265078 0.067040 0.249175
C69   C     C_3   0.668216 0.410122 0.704940 -0.429515
C70   C     C_3   0.646841 0.322379 0.678879 -0.795616
H39   H     H_    0.624375 0.282682 0.710718 0.267028
H40   H     H_    0.590878 0.331409 0.636953 0.247880
H41   H     H_    0.710523 0.286322 0.669777 0.246256
H42   H     H_    0.696474 0.447871 0.675175 0.232088
H43   H     H_    0.725548 0.396793 0.746224 0.201681
C71   C     C_3   0.329309 0.593455 0.298135 -0.419381
C72   C     C_3   0.351007 0.679504 0.326932 -0.801249
H44   H     H_    0.408225 0.668394 0.368154 0.244941
H45   H     H_    0.371771 0.722163 0.295920 0.265824
H46   H     H_    0.287988 0.713534 0.338032 0.243366
H47   H     H_    0.271357 0.609153 0.257402 0.200329
H48   H     H_    0.301598 0.553173 0.326808 0.231997

loop_
_geom_bond_atom_site_label_1
_geom_bond_atom_site_label_2
_ccdc_geom_bond_type
C23   O5    A    
C70   H39   S    
C65   C66   S    
C3    H15   S    
C66   H30   S    
C39   C41   A    
C23   O7    A    
C27   C33   A    
C15   C19   A    
C35   H11   S    
C59   C64   A    
C42   C44   A    
C60   C63   A    
C35   C37   A    
C4    H16   S    
C29   C32   A    
N3    Zn2   S    
C30   C31   A    
C57   C59   A    
C46   N2    A    
C18   H4    S    
C58   C60   A    
C64   C67   S    
C40   H9    S    
C12   H20   S    
C34   H22   S    
C39   H10   S    
C61   C63   A    
C33   H21   S    
C67   C68   S    
C39   N3    A    
C62   C64   A    
C36   H12   S    
C17   C19   A    
O3    Zn2   S    
C69   H42   S    
C49   H13   S    
C71   C72   S    
C49   C51   A    
C53   N1    A    
C72   H46   S    
C50   C52   A    
C31   C33   A    
C65   H32   S    
C1    C15   S    
C2    C16   S    
C24   O8    A    
C3    C13   A    
C1    O1    A    
C44   C52   A    
O7    Zn2   S    
C40   C42   A    
O2    Zn2   S    
C21   H24   S    
C28   C34   A    
O1    Zn1   S    
C4    C14   A    
C41   C43   A    
C51   H7    S    
C50   H14   S    
C66   H29   S    
C47   C50   A    
C53   C55   A    
C25   C29   A    
C54   C56   A    
N4    Zn1   S    
O6    Zn2   S    
C17   H3    S    
C54   O12   S    
C17   C27   A    
C18   C28   A    
C4    C6    A    
C1    O3    A    
C5    C7    A    
C62   H2    S    
C32   H6    S    
C70   H41   S    
C11   H19   S    
C71   H47   S    
C46   O10   S    
C10   H18   S    
O4    Zn1   S    
C16   C22   A    
C32   C34   A    
C54   N2    A    
C29   C30   A    
C52   H8    S    
C61   H1    S    
C69   H43   S    
C47   C48   A    
C15   C21   A    
C16   C20   A    
C38   N4    A    
C41   C47   A    
C37   N3    A    
O8    Zn1   S    
C42   C48   A    
C22   H23   S    
C38   H27   S    
C9    C11   A    
C37   H28   S    
C68   H35   S    
C10   C12   A    
C6    C71   S    
C48   C49   A    
C12   C14   A    
C26   C30   A    
C55   C57   A    
C13   N2    S    
C72   H44   S    
C56   C62   A    
C36   C44   A    
C67   H38   S    
C35   C43   A    
C68   H36   S    
C7    C9    A    
C21   C25   A    
C45   C59   A    
C70   H40   S    
C46   C60   A    
C24   O6    A    
C40   N4    A    
C3    C5    A    
C6    C8    A    
C68   H34   S    
C25   C27   A    
O5    Zn1   S    
C20   H25   S    
C26   C28   A    
C65   H33   S    
C2    O2    A    
C19   H26   S    
C11   C13   A    
C43   C51   A    
C57   C58   A    
C69   C70   S    
C7    C23   S    
C55   C61   A    
C36   C38   A    
C8    C24   S    
C56   C58   A    
C18   C20   A    
C67   H37   S    
C63   C65   S    
C45   N1    A    
C14   N1    S    
C53   O11   S    
C31   H5    S    
C2    O4    A    
C8    C10   A    
C22   C26   A    
C5    C69   S    
C72   H45   S    
C71   H48   S    
C66   H31   S    
C9    H17   S    
C45   O9    S    
