data_mof_unit_38658.cif
_audit_creation_date              2012-12-10T16:43:27-0500
_audit_creation_method            fapswitch 2.2
_symmetry_space_group_name_H-M    P1
_symmetry_Int_Tables_number       1
_space_group_crystal_system       triclinic
_cell_length_a                    10.769609
_cell_length_b                    8.685881
_cell_length_c                    7.476586
_cell_angle_alpha                 102.757375
_cell_angle_beta                  94.211801
_cell_angle_gamma                 93.415465
_cell_volume                      678.21061015

loop_
_atom_site_label
_atom_site_type_symbol
_atom_type_description
_atom_site_fract_x
_atom_site_fract_y
_atom_site_fract_z
_atom_type_partial_charge
C1    C     C_R   0.493166 0.199778 0.453558 0.871547
C2    C     C_R   0.078166 0.638649 0.623645 0.032666
C3    C     C_R   0.129697 0.509772 0.509979 -0.058342
C4    C     C_R   0.053071 0.389831 0.389609 -0.206867
C5    C     C_R   0.924909 0.392222 0.384826 -0.225170
C6    C     C_R   0.871796 0.518784 0.493323 -0.088065
C7    C     C_2   0.485647 0.031593 0.427812 -0.416703
C8    C     C_2   0.496492 0.967465 0.573218 -0.323297
C9    C     C_R   0.262869 0.502277 0.503076 0.755729
C10   C     C_R   0.499266 0.799735 0.546776 0.922246
C11   C     C_R   0.737538 0.505942 0.498131 0.864038
C12   C     C_R   0.152855 0.761341 0.748833 -0.188389
C13   C     C_R   0.099185 0.890861 0.850079 -0.239352
C14   C     C_R   0.973093 0.909063 0.815722 -0.210509
C15   C     C_R   0.898373 0.793446 0.685787 0.497975
C16   C     C_R   0.947616 0.648913 0.604144 -0.010869
Cu1   Cu    Cu3+1 0.513920 0.517380 0.684380 1.017493
Cu2   Cu    Cu3+1 0.486080 0.482620 0.315620 0.977178
H1    H     H_    0.092844 0.291566 0.302421 0.127994
H2    H     H_    0.586417 0.636020 0.051532 0.179793
H3    H     H_    0.252886 0.760644 0.770170 0.168335
H4    H     H_    0.157039 0.981695 0.948406 0.143815
H5    H     H_    0.934603 0.017321 0.882085 0.149990
H6    H     H_    0.866774 0.293787 0.298025 0.144335
H7    H     H_    0.474645 0.960137 0.287647 0.174742
H8    H     H_    0.507430 0.038785 0.713401 0.205735
N1    N     N_2   0.465100 0.456430 0.038520 0.095214
N2    N     N_2   0.534900 0.543570 0.961480 -0.145216
O1    O     O_R   0.509050 0.286130 0.619770 -0.515470
O2    O     O_R   0.485540 0.256780 0.308360 -0.590298
O3    O     O_R   0.331410 0.514680 0.655740 -0.572594
O4    O     O_R   0.307900 0.485330 0.344330 -0.613493
O5    O     O_R   0.514460 0.743220 0.691640 -0.583603
O6    O     O_R   0.490950 0.713870 0.380230 -0.609301
O7    O     O_R   0.692100 0.514670 0.655670 -0.570384
O8    O     O_R   0.668590 0.485320 0.344260 -0.596313
O9    O     O_3   0.784247 0.832261 0.619557 -0.594426
C17   C     C_3   0.805095 0.904779 0.471337 -0.353291
H9    H     H_    0.714601 0.916268 0.397851 0.192760
H10   H     H_    0.859917 0.832608 0.367233 0.158357
H11   H     H_    0.852221 0.025734 0.522509 0.171567
O10   O     O_3   0.408696 0.327064 0.920799 -0.449046
C18   C     C_3   0.287622 0.302395 0.971457 -0.111677
H12   H     H_    0.239512 0.414100 0.000834 0.155718
H13   H     H_    0.289133 0.243275 0.088581 0.150512
H14   H     H_    0.232045 0.221695 0.853219 0.114936

loop_
_geom_bond_atom_site_label_1
_geom_bond_atom_site_label_2
_ccdc_geom_bond_type
C14   H5    S    
C18   H12   S    
O9    C17   S    
C3    C9    S    
C2    C16   A    
C8    H8    S    
C7    H7    S    
C2    C12   A    
Cu1   N2    S    
C1    O1    A    
C2    C3    A    
C7    C8    D    
C10   O6    A    
C13   C14   A    
C17   H10   S    
C18   H13   S    
N1    O10   S    
C5    C6    A    
C5    H6    S    
Cu1   O5    S    
Cu2   O2    S    
C11   O7    A    
C1    O2    A    
C13   H4    S    
Cu1   Cu2   S    
C10   O5    A    
Cu2   O6    S    
C17   H9    S    
Cu1   O3    S    
C18   H14   S    
Cu2   O4    S    
O10   C18   S    
C9    O3    A    
C6    C16   A    
C3    C4    A    
C6    C11   S    
Cu1   O1    S    
C12   C13   A    
C17   H11   S    
C8    C10   S    
N1    N2    D    
C14   C15   A    
C11   O8    A    
Cu1   O7    S    
H2    N2    S    
C9    O4    A    
C1    C7    S    
C4    H1    S    
Cu2   O8    S    
C12   H3    S    
C15   O9    S    
Cu2   N1    S    
C15   C16   A    
C4    C5    A    
