data_mof_unit_15298.cif
_audit_creation_date              2013-03-05T16:13:32-0500
_audit_creation_method            fapswitch 2.2
_symmetry_space_group_name_H-M    P1
_symmetry_Int_Tables_number       1
_space_group_crystal_system       triclinic
_cell_length_a                    10.659105
_cell_length_b                    9.834665
_cell_length_c                    10.757993
_cell_angle_alpha                 90.734274
_cell_angle_beta                  90.22291
_cell_angle_gamma                 90.133982
_cell_volume                      1127.64235162

loop_
_atom_site_label
_atom_site_type_symbol
_atom_site_description
_atom_site_fract_x
_atom_site_fract_y
_atom_site_fract_z
_atom_type_partial_charge
O1    O     O_R   0.316770 0.614620 0.499990 -0.608596
O2    O     O_R   0.683230 0.614620 0.500010 -0.617633
O3    O     O_R   0.316800 0.385290 0.500000 -0.622515
O4    O     O_R   0.683200 0.385290 0.500000 -0.616433
C1    C     C_R   0.260118 0.499825 0.499519 0.948743
C2    C     C_R   0.739724 0.499942 0.499188 0.949983
O5    O     O_R   0.500000 0.614690 0.316780 -0.601674
O6    O     O_R   0.500000 0.614690 0.683220 -0.600759
O7    O     O_R   0.500020 0.385360 0.316780 -0.600141
O8    O     O_R   0.499980 0.385360 0.683220 -0.592232
C3    C     C_R   0.499906 0.498058 0.259807 0.947166
C4    C     C_R   0.491452 0.500454 0.739435 0.936156
Zn1   Zn    Zn3+2 0.500000 0.653120 0.500000 1.038030
Zn2   Zn    Zn3+2 0.500000 0.346880 0.500000 1.027302
C5    C     C_R   0.531403 0.609542 0.063756 -0.036795
C6    C     C_R   0.530729 0.611737 0.936877 0.032377
C7    C     C_R   0.502432 0.491511 0.127434 -0.150308
C8    C     C_R   0.484489 0.499552 0.871235 -0.204790
C9    C     C_R   0.475050 0.369528 0.060120 0.166266
C10   C     C_R   0.450564 0.379206 0.933264 0.170449
C11   C     C_3   0.486264 0.756905 0.935666 0.073810
C12   C     C_3   0.485397 0.752999 0.077203 0.068115
H1    H     H_    0.392880 0.769759 0.890908 0.171537
H2    H     H_    0.554107 0.821415 0.124901 0.168268
C13   C     C_R   0.064252 0.454609 0.391850 0.136433
C14   C     C_R   0.934167 0.455689 0.391350 0.089716
C15   C     C_R   0.871951 0.499575 0.499051 -0.217409
C16   C     C_R   0.127640 0.499599 0.499279 -0.210274
C17   C     C_R   0.935150 0.541613 0.607250 0.121877
C18   C     C_R   0.065102 0.543955 0.606721 0.091764
C19   C     C_R   0.604311 0.071672 0.465041 -0.007536
C20   C     C_R   0.395282 0.072034 0.533578 0.010629
H3    H     H_    0.687688 0.125644 0.436580 0.154863
H4    H     H_    0.311297 0.126255 0.560224 0.150916
C21   C     C_R   0.604208 0.927856 0.464748 -0.007587
C22   C     C_R   0.395481 0.928285 0.534291 0.051060
H5    H     H_    0.687515 0.873474 0.436149 0.144945
H6    H     H_    0.311966 0.874325 0.562367 0.145588
N1    N     N_R   0.500000 0.857200 0.500000 -0.085465
N2    N     N_R   0.500000 0.142810 0.500000 -0.092625
I1    I     I_    0.471682 0.167815 0.137776 -0.151588
I2    I     I_    0.335378 0.224833 0.845391 -0.169094
N3    N     N_R   0.581194 0.849629 0.886842 0.237801
O9    O     O_R   0.551288 0.932974 0.798750 -0.362300
O10   O     O_R   0.694597 0.852505 0.932229 -0.328636
N4    N     N_R   0.358606 0.762166 0.128882 0.230485
O11   O     O_R   0.336603 0.845483 0.221033 -0.347022
O12   O     O_R   0.267376 0.687655 0.084475 -0.342542
I3    I     I_    0.165077 0.389886 0.230021 -0.129903
I4    I     I_    0.830904 0.394671 0.228291 -0.220747
I5    I     I_    0.833499 0.592867 0.772519 -0.126060
I6    I     I_    0.166833 0.611028 0.768245 -0.213614

loop_
_geom_bond_atom_site_label_1
_geom_bond_atom_site_label_2
_geom_bond_distance
_ccdc_geom_bond_type
C21   N1    1.366345 A    
O7    Zn2   2.011838 S    
C19   H3    1.081384 S    
C6    C11   1.505547 S    
C15   C17   1.399951 A    
C1    C16   1.412090 S    
O7    C3    1.273388 A    
O6    Zn1   2.011739 S    
C10   I2    2.156741 S    
C2    C15   1.409442 S    
O6    C4    1.285918 A    
N3    O9    1.300149 A    
C9    C10   1.392949 A    
C22   H6    1.081336 S    
C5    C12   1.500153 S    
C6    C8    1.390567 A    
C11   C12   1.523691 S    
C13   C16   1.402629 A    
O5    C3    1.293567 A    
N3    O10   1.302016 A    
C14   C15   1.401089 A    
O2    C2    1.279704 A    
O3    Zn2   1.989816 S    
O8    C4    1.280074 A    
O1    C1    1.279012 A    
C20   C22   1.413841 A    
C16   C18   1.401825 A    
C7    C9    1.422405 A    
C19   C21   1.414342 A    
C14   I4    2.145624 S    
C11   H1    1.112230 S    
O4    Zn2   1.988082 S    
C12   H2    1.112813 S    
Zn1   N1    2.007058 S    
O1    Zn1   1.988563 S    
C17   C18   1.385338 A    
C5    C6    1.365403 A    
C12   N4    1.465895 S    
N4    O12   1.301878 A    
O5    Zn1   2.002225 S    
C20   N2    1.366319 A    
C19   N2    1.366489 A    
C8    C10   1.413144 A    
O4    C2    1.277339 A    
C17   I5    2.140982 S    
C4    C8    1.420277 S    
C5    C7    1.390125 A    
O2    Zn1   1.990300 S    
C18   I6    2.140814 S    
N4    O11   1.300423 A    
C3    C7    1.425064 S    
C21   H5    1.081357 S    
C13   C14   1.386644 A    
C11   N3    1.464043 S    
Zn2   N2    2.006961 S    
C22   N1    1.366097 A    
C9    I1    2.162639 S    
O8    Zn2   2.002312 S    
O3    C1    1.279523 A    
C13   I3    2.140206 S    
C20   H4    1.080850 S    
