data_mof_unit_52384.cif
_audit_creation_date              2012-12-11T16:30:28-0500
_audit_creation_method            fapswitch 2.2
_symmetry_space_group_name_H-M    P1
_symmetry_Int_Tables_number       1
_space_group_crystal_system       triclinic
_cell_length_a                    6.949916
_cell_length_b                    14.329332
_cell_length_c                    16.174654
_cell_angle_alpha                 89.999981
_cell_angle_beta                  90.201351
_cell_angle_gamma                 89.999964
_cell_volume                      1610.78589531

loop_
_atom_site_label
_atom_site_type_symbol
_atom_type_description
_atom_site_fract_x
_atom_site_fract_y
_atom_site_fract_z
_atom_type_partial_charge
O1    O     O_R   0.611670 0.415650 0.164070 -0.536998
O2    O     O_R   0.388330 0.915650 0.835930 -0.536998
O3    O     O_R   0.940950 0.405490 0.337780 -0.519723
O4    O     O_R   0.059050 0.905490 0.662220 -0.519727
O5    O     O_R   0.111350 0.584350 0.338470 -0.542105
O6    O     O_R   0.888650 0.084350 0.661530 -0.542106
C1    C     C_R   0.772238 0.382960 0.367061 0.654306
C2    C     C_R   0.227762 0.882961 0.632938 0.654301
O7    O     O_R   0.941380 0.404630 0.164680 -0.539201
O8    O     O_R   0.058620 0.904630 0.835320 -0.539201
O9    O     O_R   0.111780 0.583470 0.164130 -0.536992
O10   O     O_R   0.888220 0.083470 0.835870 -0.536992
C3    C     C_R   0.772371 0.382088 0.136431 0.700275
C4    C     C_R   0.227629 0.882087 0.863569 0.700277
O11   O     O_R   0.611240 0.416530 0.338400 -0.544816
O12   O     O_R   0.388760 0.916530 0.661600 -0.544816
O13   O     O_3   0.778020 0.558680 0.251290 -0.369550
O14   O     O_3   0.221980 0.058680 0.748710 -0.369549
V1    V     V_3+5 0.052840 0.489110 0.251260 1.416640
V2    V     V_3+5 0.947160 0.989110 0.748740 1.416636
O15   O     O_R   0.441500 0.594510 0.164760 -0.537907
O16   O     O_R   0.558500 0.094510 0.835240 -0.537906
C5    C     C_R   0.272411 0.616598 0.136302 0.701622
C6    C     C_R   0.727589 0.116597 0.863699 0.701623
O17   O     O_R   0.441080 0.595370 0.337860 -0.544340
O18   O     O_R   0.558920 0.095370 0.662140 -0.544340
C7    C     C_R   0.272458 0.619159 0.365939 0.659909
C8    C     C_R   0.727542 0.119159 0.634061 0.659912
V3    V     V_3+5 0.552850 0.510890 0.251270 1.395030
V4    V     V_3+5 0.447150 0.010890 0.748730 1.395030
O19   O     O_3   0.277800 0.441320 0.251250 -0.365158
O20   O     O_3   0.722200 0.941320 0.748750 -0.365160
C9    C     C_3   0.164157 0.645997 0.512854 -0.342429
C10   C     C_3   0.835874 0.146002 0.487151 -0.342421
H1    H     H_    0.022232 0.618556 0.493190 0.148231
H2    H     H_    0.977807 0.118580 0.506823 0.148247
H3    H     H_    0.249931 0.585197 0.534808 0.082744
H4    H     H_    0.750135 0.085191 0.465199 0.082721
C11   C     C_3   0.140681 0.717744 0.584974 0.376399
C12   C     C_3   0.859335 0.217745 0.415028 0.376386
H5    H     H_    0.218180 0.690174 0.640186 -0.015748
H6    H     H_    0.781835 0.190168 0.359818 -0.015732
H7    H     H_    0.995629 0.757637 0.393549 0.151049
H8    H     H_    0.004338 0.257652 0.606466 0.151039
H9    H     H_    0.984930 0.869102 0.495952 0.167086
H10   H     H_    0.015056 0.369105 0.504054 0.167084
C13   C     C_3   0.144731 0.778152 0.411054 -0.326787
C14   C     C_3   0.855239 0.278158 0.588950 -0.326813
C15   C     C_3   0.465039 0.723932 0.463645 -0.317045
C16   C     C_3   0.534960 0.223919 0.536345 -0.317042
C17   C     C_3   0.262389 0.690297 0.436460 0.060039
C18   C     C_3   0.737610 0.190296 0.563540 0.060031
H11   H     H_    0.537631 0.759548 0.411137 0.147294
H12   H     H_    0.462342 0.259527 0.588850 0.147303
H13   H     H_    0.555374 0.663131 0.481053 0.150998
H14   H     H_    0.444649 0.163112 0.518930 0.150989
C19   C     C_3   0.238186 0.812315 0.561582 0.041217
C20   C     C_3   0.761815 0.312314 0.438416 0.041212
C21   C     C_3   0.137249 0.850682 0.482738 -0.311849
C22   C     C_3   0.862734 0.350685 0.517263 -0.311854
C23   C     C_3   0.451366 0.791833 0.537802 -0.372914
C24   C     C_3   0.548634 0.291824 0.462191 -0.372902
H15   H     H_    0.527018 0.760967 0.591638 0.166481
H16   H     H_    0.472996 0.260958 0.408352 0.166470
H17   H     H_    0.526923 0.857901 0.521842 0.162699
H18   H     H_    0.473066 0.357890 0.478151 0.162705
H19   H     H_    0.211472 0.811260 0.356087 0.121066
H20   H     H_    0.788470 0.311265 0.643910 0.121091
H21   H     H_    0.210212 0.915894 0.463208 0.122880
H22   H     H_    0.789765 0.415897 0.536788 0.122879
H23   H     H_    0.275794 0.561341 0.758040 0.117546
H24   H     H_    0.724191 0.061344 0.241962 0.117541
C25   C     C_R   0.181685 0.940259 0.033535 -0.139965
C26   C     C_R   0.818312 0.440259 0.966463 -0.139963
C27   C     C_R   0.147754 0.969692 0.114230 -0.105077
C28   C     C_R   0.852237 0.469691 0.885768 -0.105082
C29   C     C_R   0.144505 0.905208 0.178422 -0.152932
C30   C     C_R   0.855484 0.405208 0.821577 -0.152934
C31   C     C_R   0.184766 0.811670 0.163196 -0.144264
C32   C     C_R   0.815227 0.311670 0.836803 -0.144259
C33   C     C_R   0.221416 0.779785 0.082188 0.073191
C34   C     C_R   0.778582 0.279785 0.917812 0.073191
C35   C     C_R   0.214707 0.844968 0.015653 0.056627
C36   C     C_R   0.785292 0.344968 0.984346 0.056626
C37   C     C_R   0.261283 0.684413 0.066789 -0.187468
C38   C     C_R   0.738717 0.184413 0.933211 -0.187469
C39   C     C_R   0.280686 0.653038 0.984268 0.056917
C40   C     C_R   0.719313 0.153038 0.015733 0.056915
C41   C     C_R   0.264676 0.717452 0.917412 0.075501
C42   C     C_R   0.735322 0.217453 0.082589 0.075501
C43   C     C_R   0.237649 0.813958 0.933093 -0.187376
C44   C     C_R   0.762351 0.313959 0.066906 -0.187376
C45   C     C_R   0.309760 0.557356 0.966629 -0.144167
C46   C     C_R   0.690237 0.057357 0.033372 -0.144168
C47   C     C_R   0.311585 0.525280 0.885430 -0.095944
C48   C     C_R   0.688408 0.025282 0.114571 -0.095947
C49   C     C_R   0.285725 0.587491 0.820493 -0.163262
C50   C     C_R   0.714265 0.087493 0.179508 -0.163261
C51   C     C_R   0.270027 0.682920 0.835754 -0.155121
C52   C     C_R   0.729967 0.182922 0.164246 -0.155125
H25   H     H_    0.178948 0.992717 0.985405 0.109373
H26   H     H_    0.821050 0.492718 0.014593 0.109373
H27   H     H_    0.120452 0.042702 0.126773 0.131681
H28   H     H_    0.879535 0.542702 0.873224 0.131683
H29   H     H_    0.110544 0.927561 0.240444 0.127552
H30   H     H_    0.889440 0.427560 0.759554 0.127550
H31   H     H_    0.183650 0.764363 0.215240 0.088863
H32   H     H_    0.816341 0.264362 0.784759 0.088864
H33   H     H_    0.325712 0.506009 0.015242 0.109540
H34   H     H_    0.674287 0.006009 0.984760 0.109540
H35   H     H_    0.327823 0.451470 0.872934 0.131889
H36   H     H_    0.672168 0.951472 0.127069 0.131890
H37   H     H_    0.256428 0.729102 0.783226 0.083337
H38   H     H_    0.743563 0.229104 0.216774 0.083338
O21   O     O_3   0.941890 0.733856 0.599907 -0.572776
C53   C     C_3   0.868309 0.678350 0.664926 0.109600
H39   H     H_    0.969135 0.670396 0.717810 0.082864
H40   H     H_    0.743368 0.716397 0.691050 0.148062
C54   C     C_3   0.803919 0.582442 0.632886 -0.357695
H41   H     H_    0.765391 0.586433 0.566544 0.197629
H42   H     H_    0.924076 0.531912 0.640073 0.166452
C55   C     C_3   0.626704 0.547119 0.677865 -0.864519
H43   H     H_    0.646890 0.552592 0.745697 0.249585
H44   H     H_    0.598303 0.473258 0.661093 0.228060
H45   H     H_    0.500970 0.589734 0.658866 0.223900
O22   O     O_3   0.058122 0.233861 0.400091 -0.572774
C56   C     C_3   0.131700 0.178354 0.335071 0.109605
H46   H     H_    0.030881 0.170415 0.282183 0.082868
H47   H     H_    0.256661 0.216393 0.308954 0.148052
C57   C     C_3   0.196051 0.082439 0.367108 -0.357715
H48   H     H_    0.234580 0.086421 0.433449 0.197619
H49   H     H_    0.075872 0.031921 0.359917 0.166447
C58   C     C_3   0.373252 0.047100 0.322129 -0.864399
H50   H     H_    0.353093 0.052611 0.254294 0.249569
H51   H     H_    0.401572 0.973216 0.338875 0.228037
H52   H     H_    0.499032 0.089678 0.341160 0.223876

loop_
_geom_bond_atom_site_label_1
_geom_bond_atom_site_label_2
_ccdc_geom_bond_type
C28   H28   S    
C20   C24   S    
O22   C56   S    
O11   V3    S    
O13   V3    S    
O4    C2    A    
V1    O19   S    
C11   H5    S    
H24   C50   S    
C48   H36   S    
O9    V1    S    
C9    C11   S    
C26   C28   A    
C41   C51   A    
C10   C12   S    
C28   C30   A    
O3    C1    A    
C30   C32   A    
C19   C21   S    
C20   C22   S    
O21   C53   S    
C11   C19   S    
C53   H39   S    
C6    C38   S    
O9    C5    A    
C23   H15   S    
O7    C3    A    
C24   H16   S    
C33   C35   A    
O5    C7    A    
O7    V1    S    
C42   C52   A    
O6    C8    A    
O8    V2    S    
C15   C17   S    
C48   C50   A    
C58   H52   S    
C16   C18   S    
O3    V1    S    
O14   V4    S    
C41   C43   A    
C1    C20   S    
O14   V2    S    
C26   H26   S    
C29   C31   A    
C2    O12   A    
C27   H27   S    
C25   C27   A    
C13   H19   S    
O18   C8    A    
C49   C51   A    
C7    C17   S    
C14   C22   S    
C37   C39   A    
O17   V3    S    
C40   C46   A    
C12   C20   S    
C24   H18   S    
C52   H38   S    
C32   C34   A    
O8    C4    A    
C31   C33   A    
O13   V1    S    
C13   C17   S    
C34   C38   A    
O15   V3    S    
C46   H34   S    
C16   H14   S    
C57   H49   S    
C56   H47   S    
C2    C19   S    
H23   C49   S    
C42   C44   A    
C22   H22   S    
C12   O22   S    
O10   V2    S    
O1    V3    S    
C31   H31   S    
C16   H12   S    
C14   H20   S    
C46   C48   A    
C27   C29   A    
C54   H42   S    
C21   H21   S    
C40   C42   A    
O18   V4    S    
C34   C36   A    
O15   C5    A    
C3    C44   S    
C58   H50   S    
C16   C24   S    
O16   C6    A    
C57   C58   S    
O1    C3    A    
C55   H44   S    
C56   H46   S    
O6    V2    S    
V2    O20   S    
C54   C55   S    
O10   C6    A    
H9    C21   S    
C25   H25   S    
O16   V4    S    
H10   C22   S    
C10   H4    S    
C10   C18   S    
C26   C36   A    
C12   H6    S    
C51   H37   S    
C54   H41   S    
C47   C49   A    
C19   C23   S    
O5    V1    S    
C9    C17   S    
C35   C43   A    
C32   H32   S    
C11   O21   S    
C53   C54   S    
O2    V4    S    
C30   H30   S    
C55   H45   S    
C29   H29   S    
C57   H48   S    
C56   C57   S    
V3    O19   S    
C15   H13   S    
V4    O20   S    
C8    C18   S    
C15   C23   S    
H7    C13   S    
C15   H11   S    
C39   C45   A    
C1    O11   A    
C9    H1    S    
C10   H2    S    
C53   H40   S    
C38   C40   A    
O2    C4    A    
C50   C52   A    
C9    H3    S    
C4    C43   S    
C13   C21   S    
O4    V2    S    
C23   H17   S    
C14   C18   S    
C45   C47   A    
C5    C37   S    
C58   H51   S    
C39   C41   A    
C47   H35   S    
C36   C44   A    
C55   H43   S    
O12   V4    S    
C25   C35   A    
C33   C37   A    
H8    C14   S    
C45   H33   S    
O17   C7    A    
