data_mof_unit_35406.cif
_audit_creation_date              2012-12-10T19:56:34-0500
_audit_creation_method            fapswitch 2.2
_symmetry_space_group_name_H-M    P1
_symmetry_Int_Tables_number       1
_space_group_crystal_system       triclinic
_cell_length_a                    15.194465
_cell_length_b                    14.114068
_cell_length_c                    23.444191
_cell_angle_alpha                 89.963105
_cell_angle_beta                  90.334238
_cell_angle_gamma                 90.011655
_cell_volume                      5027.65398841

loop_
_atom_site_label
_atom_site_type_symbol
_atom_type_description
_atom_site_fract_x
_atom_site_fract_y
_atom_site_fract_z
_atom_type_partial_charge
C1    C     C_R   0.327611 0.500097 0.500219 0.929082
C2    C     C_R   0.545903 0.413989 0.700049 0.332563
C3    C     C_R   0.459142 0.404244 0.241232 -0.226813
C4    C     C_R   0.541398 0.403590 0.758612 -0.227877
C5    C     C_R   0.498956 0.473488 0.208010 0.100159
C6    C     C_R   0.501316 0.472436 0.791928 0.102815
C7    C     C_R   0.094986 0.585819 0.489168 -0.301237
C8    C     C_R   0.905949 0.418927 0.486673 -0.287897
C9    C     C_R   0.905151 0.585888 0.509453 -0.301103
C10   C     C_R   0.093866 0.418798 0.511918 -0.287545
C11   C     C_R   0.185857 0.587370 0.494651 0.428047
C12   C     C_R   0.672387 0.500113 0.499700 0.929300
C13   C     C_R   0.815307 0.415506 0.492071 0.407276
C14   C     C_R   0.814211 0.587431 0.504491 0.428585
C15   C     C_R   0.184584 0.415416 0.507047 0.407514
C16   C     C_R   0.231785 0.500819 0.500502 -0.255568
C17   C     C_R   0.768204 0.500869 0.498952 -0.255472
C18   C     C_R   0.048115 0.502474 0.499835 0.059092
C19   C     C_R   0.951865 0.502554 0.498586 0.059193
C20   C     C_R   0.496805 0.499562 0.389053 0.973381
C21   C     C_R   0.503245 0.499499 0.610940 0.974055
C22   C     C_R   0.534200 0.104854 0.453401 0.375616
C23   C     C_R   0.534428 0.555358 0.233004 0.406725
C24   C     C_R   0.544995 0.895211 0.542899 0.353162
C25   C     C_R   0.465742 0.104750 0.546587 0.375724
C26   C     C_R   0.454904 0.895258 0.457105 0.353152
C27   C     C_R   0.531100 0.204708 0.453966 -0.103747
C28   C     C_R   0.543676 0.795228 0.541727 -0.145476
C29   C     C_R   0.468889 0.204604 0.546034 -0.104139
C30   C     C_R   0.456280 0.795269 0.458282 -0.145411
C31   C     C_R   0.499957 0.053246 0.499991 -0.051273
C32   C     C_R   0.499950 0.946600 0.499997 -0.000802
C33   C     C_R   0.578613 0.462342 0.881317 0.570689
C34   C     C_R   0.465687 0.554389 0.767054 0.407082
C35   C     C_R   0.421452 0.464135 0.118678 0.579638
C36   C     C_R   0.422479 0.445387 0.879253 0.636631
C37   C     C_R   0.577592 0.446858 0.120611 0.636467
C38   C     C_R   0.418970 0.444007 0.939242 -0.162025
C39   C     C_R   0.580971 0.444782 0.060632 -0.176465
C40   C     C_R   0.499815 0.445151 0.969909 -0.116460
C41   C     C_R   0.500086 0.445910 0.030013 -0.120259
C42   C     C_R   0.580586 0.447661 0.940431 -0.199213
C43   C     C_R   0.419348 0.450348 0.059480 -0.180259
C44   C     C_R   0.338475 0.442095 0.969494 0.306759
C45   C     C_R   0.525361 0.569430 0.292361 0.259452
C46   C     C_R   0.661439 0.441466 0.030367 0.327097
C47   C     C_R   0.338981 0.443062 0.029168 0.426947
C48   C     C_R   0.660913 0.438498 0.970753 0.468386
C49   C     C_3   0.238631 0.345396 0.069958 0.146740
C50   C     C_3   0.151749 0.341833 0.101744 -0.682020
C51   C     C_3   0.751695 0.338231 0.921089 0.175653
C52   C     C_3   0.799145 0.275201 0.964240 -0.803782
C53   C     C_3   0.660140 0.637529 0.210192 0.139473
C54   C     C_3   0.704877 0.679370 0.158069 -0.732528
C55   C     C_3   0.339921 0.636332 0.789970 0.139113
C56   C     C_R   0.474672 0.568824 0.707707 0.259234
C57   C     C_3   0.295086 0.677491 0.842217 -0.730234
C58   C     C_3   0.491569 0.725405 0.304157 0.117798
C59   C     C_3   0.533356 0.821456 0.315432 -0.757579
C60   C     C_3   0.508135 0.724894 0.695918 0.117900
C61   C     C_3   0.466287 0.820878 0.684510 -0.757799
C62   C     C_3   0.207720 0.726295 0.542548 0.114186
C63   C     C_3   0.282470 0.793485 0.557349 -0.806858
C64   C     C_3   0.786709 0.280238 0.540577 0.156528
C65   C     C_3   0.744378 0.183005 0.537556 -0.810257
C66   C     C_3   0.792056 0.726800 0.456975 0.113657
C67   C     C_R   0.491239 0.495490 0.326453 -0.298316
C68   C     C_3   0.717091 0.793860 0.442431 -0.806559
C69   C     C_3   0.213668 0.280089 0.458827 0.156008
C70   C     C_3   0.255887 0.182842 0.462176 -0.809965
C71   C     C_3   0.659302 0.064097 0.406586 0.079902
C72   C     C_3   0.694441 0.028685 0.349902 -0.785397
C73   C     C_3   0.674747 0.934086 0.587034 0.065718
C74   C     C_3   0.713004 0.973098 0.642307 -0.776010
C75   C     C_3   0.340540 0.063740 0.593235 0.079533
C76   C     C_3   0.305221 0.027964 0.649819 -0.784092
C77   C     C_3   0.325154 0.933922 0.412857 0.066059
C78   C     C_R   0.508990 0.495212 0.673524 -0.298229
C79   C     C_3   0.286973 0.972742 0.357487 -0.777293
C80   C     C_R   0.454633 0.414246 0.299815 0.331712
Cl1   Cl    Cl    0.233782 0.444431 0.935753 -0.515349
Cl2   Cl    Cl    0.766043 0.447557 0.064038 -0.518152
Cl3   Cl    Cl    0.396790 0.324739 0.336721 -0.635425
Cl4   Cl    Cl    0.604056 0.324980 0.663002 -0.635172
H1    H     H_    0.555238 0.244131 0.417721 0.200420
H2    H     H_    0.060167 0.354194 0.523544 0.154917
H3    H     H_    0.290214 0.312374 0.097495 0.125672
H4    H     H_    0.231463 0.303138 0.030076 0.151439
H5    H     H_    0.098543 0.373027 0.075021 0.272510
H6    H     H_    0.134684 0.267154 0.111717 0.188719
H7    H     H_    0.157196 0.382271 0.142241 0.269707
H8    H     H_    0.793215 0.342912 0.882364 0.196769
H9    H     H_    0.688916 0.303761 0.907459 0.099936
H10   H     H_    0.756681 0.262577 0.001853 0.257750
H11   H     H_    0.814528 0.205803 0.944373 0.210362
H12   H     H_    0.577276 0.755276 0.574456 0.170653
H13   H     H_    0.861574 0.309150 0.978230 0.298685
H14   H     H_    0.694276 0.569976 0.221320 0.179714
H15   H     H_    0.668658 0.688237 0.245957 0.176619
H16   H     H_    0.776141 0.689427 0.166921 0.214026
H17   H     H_    0.697004 0.631003 0.121061 0.293646
H18   H     H_    0.675088 0.749046 0.147352 0.243582
H19   H     H_    0.305826 0.568887 0.778568 0.180146
H20   H     H_    0.331439 0.687481 0.754394 0.176946
H21   H     H_    0.223839 0.687634 0.833346 0.214897
H22   H     H_    0.302879 0.628662 0.879047 0.293379
H23   H     H_    0.444753 0.243944 0.582278 0.200162
H24   H     H_    0.324860 0.747039 0.853226 0.243510
H25   H     H_    0.432382 0.717058 0.331252 0.143345
H26   H     H_    0.469562 0.725076 0.258745 0.175401
H27   H     H_    0.589035 0.832791 0.285743 0.231474
H28   H     H_    0.484050 0.878430 0.308595 0.255820
H29   H     H_    0.558392 0.825181 0.359864 0.266855
H30   H     H_    0.567338 0.716597 0.668836 0.143654
H31   H     H_    0.530090 0.724627 0.741341 0.175689
H32   H     H_    0.410582 0.832186 0.714172 0.231584
H33   H     H_    0.515552 0.877922 0.691285 0.255976
H34   H     H_    0.422691 0.755337 0.425567 0.170682
H35   H     H_    0.441274 0.824507 0.640067 0.266693
H36   H     H_    0.196679 0.680678 0.580850 0.137656
H37   H     H_    0.147312 0.768634 0.534135 0.130950
H38   H     H_    0.265701 0.833586 0.596457 0.201937
H39   H     H_    0.343768 0.752705 0.565282 0.285544
H40   H     H_    0.293077 0.844323 0.522081 0.220844
H41   H     H_    0.756338 0.320097 0.576440 0.191902
H42   H     H_    0.858051 0.269595 0.549838 0.118937
H43   H     H_    0.772957 0.141760 0.501898 0.220026
H44   H     H_    0.757254 0.144659 0.578005 0.221154
H45   H     H_    0.430786 0.342285 0.220943 0.198332
H46   H     H_    0.672320 0.189844 0.531455 0.266391
H47   H     H_    0.803082 0.681542 0.418555 0.137171
H48   H     H_    0.852382 0.769275 0.465398 0.130930
H49   H     H_    0.733620 0.834334 0.403385 0.201730
H50   H     H_    0.655870 0.752935 0.434501 0.285654
H51   H     H_    0.706489 0.844371 0.477827 0.220933
H52   H     H_    0.244460 0.319883 0.423055 0.191755
H53   H     H_    0.142422 0.269454 0.449247 0.118520
H54   H     H_    0.226947 0.141700 0.497791 0.220254
H55   H     H_    0.243362 0.144408 0.421742 0.221066
H56   H     H_    0.569924 0.341607 0.778810 0.196564
H57   H     H_    0.327890 0.189663 0.468546 0.266152
H58   H     H_    0.686644 0.019067 0.441411 0.124081
H59   H     H_    0.683014 0.138270 0.412125 0.156084
H60   H     H_    0.669770 0.074286 0.314652 0.269424
H61   H     H_    0.767497 0.030760 0.350401 0.202726
H62   H     H_    0.672675 0.954857 0.342260 0.249862
H63   H     H_    0.701053 0.975887 0.550675 0.132509
H64   H     H_    0.696843 0.859164 0.583195 0.152769
H65   H     H_    0.692174 0.928165 0.678729 0.247618
H66   H     H_    0.785992 0.973321 0.640171 0.201338
H67   H     H_    0.062283 0.651184 0.477787 0.146229
H68   H     H_    0.689370 0.046548 0.649493 0.281785
H69   H     H_    0.313366 0.018853 0.558316 0.124077
H70   H     H_    0.316792 0.137911 0.587742 0.156197
H71   H     H_    0.329729 0.073395 0.685165 0.269577
H72   H     H_    0.232164 0.029944 0.649211 0.203062
H73   H     H_    0.327015 0.954120 0.657397 0.249757
H74   H     H_    0.298660 0.975692 0.449131 0.132564
H75   H     H_    0.303181 0.858952 0.416764 0.152822
H76   H     H_    0.307941 0.927767 0.321157 0.247372
H77   H     H_    0.213981 0.972834 0.359553 0.201143
H78   H     H_    0.939503 0.354348 0.474897 0.154776
H79   H     H_    0.310532 0.046218 0.350202 0.281890
H80   H     H_    0.937997 0.651217 0.520708 0.146178
N1    N     N_R   0.500583 0.460327 0.852398 -0.319294
N2    N     N_R   0.499559 0.461875 0.147511 -0.321422
N3    N     N_R   0.500000 0.252470 0.500000 -0.137735
N4    N     N_R   0.500000 0.747530 0.500000 -0.130603
O1    O     O_R   0.369060 0.579480 0.500000 -0.577439
O2    O     O_2   0.346520 0.481368 0.147533 -0.505193
O3    O     O_2   0.349536 0.431344 0.847452 -0.515437
O4    O     O_2   0.650564 0.432748 0.152384 -0.517063
O5    O     O_3   0.259372 0.440794 0.057549 -0.521115
O6    O     O_3   0.740770 0.431359 0.942687 -0.529353
O7    O     O_3   0.569708 0.624507 0.197821 -0.612807
O8    O     O_3   0.430344 0.623257 0.802348 -0.612991
O9    O     O_3   0.553258 0.653262 0.317077 -0.607651
O10   O     O_3   0.446501 0.652664 0.683087 -0.607783
O11   O     O_3   0.229700 0.673461 0.493257 -0.593566
O12   O     O_R   0.630940 0.420520 0.500000 -0.571534
O13   O     O_3   0.773414 0.328631 0.488370 -0.594517
O14   O     O_3   0.770372 0.673492 0.506184 -0.593119
O15   O     O_3   0.226434 0.328559 0.511025 -0.594104
O16   O     O_3   0.566542 0.058240 0.406086 -0.544577
O17   O     O_3   0.582310 0.942346 0.588760 -0.562276
O18   O     O_3   0.433304 0.058036 0.593877 -0.544719
O19   O     O_3   0.417580 0.942459 0.411238 -0.562184
O20   O     O_R   0.630940 0.579480 0.500000 -0.577366
O21   O     O_R   0.369060 0.420520 0.500000 -0.571696
O22   O     O_R   0.499970 0.579500 0.416160 -0.599477
O23   O     O_R   0.500030 0.420500 0.583840 -0.590202
O24   O     O_R   0.500030 0.579500 0.583840 -0.599582
O25   O     O_R   0.499970 0.420500 0.416160 -0.590161
O26   O     O_2   0.653569 0.480707 0.852728 -0.516115
Zn1   Zn    Zn3+2 0.500000 0.606140 0.500000 0.991240
Zn2   Zn    Zn3+2 0.500000 0.393860 0.500000 1.026513

loop_
_geom_bond_atom_site_label_1
_geom_bond_atom_site_label_2
_ccdc_geom_bond_type
C65   H44   S    
C25   C31   A    
C66   C68   S    
C26   C32   A    
C8    C13   A    
C23   C45   A    
C61   H35   S    
C58   H25   S    
C73   C74   S    
C49   H3    S    
C54   H17   S    
C2    Cl4   S    
C49   H4    S    
C75   C76   S    
C54   H16   S    
C37   O4    S    
C49   O5    S    
C65   H46   S    
C39   C41   A    
C56   O10   S    
C53   C54   S    
C53   H15   S    
C7    C11   A    
C73   H63   S    
O21   Zn2   S    
C33   C42   A    
C65   H43   S    
C68   H49   S    
C10   C15   A    
C20   O22   A    
C9    H80   S    
C21   O23   A    
C23   O7    S    
C60   O10   S    
C72   H61   S    
C12   O20   A    
C55   H19   S    
C52   H13   S    
C35   N2    A    
C56   C78   A    
C52   H11   S    
C18   C19   S    
N3    Zn2   S    
C1    O1    A    
C27   H1    S    
O23   Zn2   S    
C22   O16   S    
C69   O15   S    
C20   C67   S    
C46   Cl2   S    
C60   H30   S    
C50   H6    S    
O20   Zn1   S    
C36   O3    S    
N4    Zn1   S    
C15   O15   S    
C21   C78   S    
C45   C67   A    
C59   H27   S    
C74   H65   S    
C52   H10   S    
C35   C43   A    
C62   H36   S    
O12   Zn2   S    
C44   C47   A    
C45   O9    S    
C77   H74   S    
O25   Zn2   S    
C40   C42   A    
C57   H22   S    
C66   O14   S    
C6    N1    S    
C70   H55   S    
C3    H45   S    
C69   H53   S    
C41   C43   A    
C14   C17   A    
C74   H68   S    
C79   H77   S    
C80   Cl3   S    
C34   C56   A    
C3    C80   A    
C14   O14   S    
C9    C19   A    
C63   H40   S    
C48   O6    S    
C77   C79   S    
C25   C29   A    
C46   C48   A    
C76   H73   S    
C8    C19   A    
C57   H21   S    
C73   H64   S    
C61   H33   S    
C51   C52   S    
O24   Zn1   S    
O1    Zn1   S    
C44   Cl1   S    
C22   C31   A    
C79   H76   S    
C21   O24   A    
C30   H34   S    
C58   C59   S    
C55   H20   S    
C76   H72   S    
C6    C34   A    
C60   C61   S    
C12   C17   S    
C51   O6    S    
C2    C4    A    
C9    C14   A    
C24   C32   A    
C38   C44   A    
C62   C63   S    
C2    C78   A    
C51   H8    S    
C4    H56   S    
C11   C16   A    
C75   H69   S    
C50   H5    S    
C73   O17   S    
C31   C32   S    
C5    C23   A    
C59   H29   S    
C7    C18   A    
C61   H32   S    
C59   H28   S    
C1    C16   S    
C42   C48   A    
C5    N2    S    
C47   O5    S    
O22   Zn1   S    
C77   H75   S    
C39   C46   A    
C7    H67   S    
C64   O13   S    
C4    C6    A    
C40   C41   A    
C12   O12   A    
C51   H9    S    
C33   O26   S    
C70   H54   S    
C69   H52   S    
C64   H42   S    
C22   C27   A    
C55   C57   S    
C77   O19   S    
C49   C50   S    
C75   O18   S    
C11   O11   S    
C71   H58   S    
C20   O25   A    
C62   O11   S    
C63   H38   S    
C53   O7    S    
C26   O19   S    
C71   H59   S    
C66   H47   S    
C72   H60   S    
C10   H2    S    
C70   H57   S    
C74   H66   S    
C58   H26   S    
C71   O16   S    
C54   H18   S    
C68   H51   S    
C29   H23   S    
C67   C80   A    
C24   C28   A    
C79   H79   S    
C3    C5    A    
C63   H39   S    
C26   C30   A    
C37   N2    A    
C53   H14   S    
C76   H71   S    
C13   O13   S    
C66   H48   S    
C13   C17   A    
C28   H12   S    
C64   C65   S    
C29   N3    A    
C36   C38   A    
C30   N4    A    
C71   C72   S    
C37   C39   A    
C8    H78   S    
C38   C40   A    
C75   H70   S    
C10   C18   A    
C72   H62   S    
C68   H50   S    
C36   N1    A    
C58   O9    S    
C69   C70   S    
C55   O8    S    
C34   O8    S    
C25   O18   S    
C28   N4    A    
C33   N1    A    
C50   H7    S    
C57   H24   S    
C64   H41   S    
C35   O2    S    
C24   O17   S    
C60   H31   S    
C43   C47   A    
C62   H37   S    
C15   C16   A    
C27   N3    A    
C1    O21   A    
