data_mof_unit_43169.cif
_audit_creation_date              2012-10-26T20:00:10-0400
_audit_creation_method            fapswitch 2.2
_symmetry_space_group_name_H-M    P1
_symmetry_Int_Tables_number       1
_space_group_crystal_system       triclinic
_cell_length_a                    23.505729
_cell_length_b                    10.987918
_cell_length_c                    9.71865
_cell_angle_alpha                 92.82839
_cell_angle_beta                  89.749517
_cell_angle_gamma                 90.146746
_cell_volume                      2507.03474612

loop_
_atom_site_label
_atom_site_type_symbol
_atom_type_description
_atom_site_fract_x
_atom_site_fract_y
_atom_site_fract_z
_atom_type_partial_charge
C1    C     C_R   0.496980 0.266256 0.495880 0.526601
C2    C     C_R   0.120062 0.601328 0.557269 0.399378
C3    C     C_R   0.238928 0.491268 0.625393 -0.077234
C4    C     C_R   0.391020 0.500004 0.500308 0.519129
C5    C     C_R   0.298228 0.490787 0.625098 -0.174913
C6    C     C_R   0.328486 0.500230 0.500932 -0.010641
C7    C     C_R   0.298382 0.509984 0.377291 -0.172563
C8    C     C_R   0.239111 0.510246 0.377945 -0.076416
C9    C     C_R   0.209242 0.500962 0.501884 0.240038
C10   C     C_R   0.761256 0.506618 0.374115 -0.057576
C11   C     C_R   0.701942 0.505216 0.374332 -0.147512
C12   C     C_R   0.970195 0.301301 0.386985 -0.122838
C13   C     C_R   0.671675 0.502665 0.499267 0.000200
C14   C     C_R   0.701843 0.502277 0.623860 -0.144700
C15   C     C_R   0.761141 0.503598 0.623316 -0.057036
C16   C     C_R   0.497012 0.733716 0.504156 0.518104
C17   C     C_R   0.791067 0.505522 0.498523 0.240894
C18   C     C_2   0.534123 0.933797 0.483384 -0.069756
C19   C     C_2   0.489901 0.864987 0.519627 0.315654
C20   C     C_2   0.534329 0.066319 0.512109 -0.062595
C21   C     C_2   0.489671 0.134946 0.480393 0.316870
C22   C     C_2   0.458123 0.538072 0.924751 -0.011282
C23   C     C_R   0.029541 0.300469 0.387866 -0.124245
C24   C     C_2   0.455233 0.517096 0.076384 0.047419
C25   C     C_R   0.609030 0.500777 0.499741 0.545680
C26   C     C_R   0.880777 0.604655 0.553599 0.400114
C27   C     C_R   0.880427 0.405339 0.443297 0.401345
C28   C     C_R   0.940091 0.402631 0.442623 0.028959
C29   C     C_R   0.970220 0.503834 0.499662 -0.028514
C30   C     C_R   0.940456 0.605865 0.555781 0.029341
C31   C     C_3   0.397072 0.846456 0.614931 0.002931
C32   C     C_3   0.363924 0.829011 0.479079 -0.293349
C33   C     C_3   0.300259 0.813391 0.505058 -0.457795
C34   C     C_R   0.060013 0.400932 0.444443 0.029454
C35   C     C_3   0.396172 0.153777 0.391129 0.001400
C36   C     C_3   0.363755 0.171163 0.528624 -0.293013
C37   C     C_3   0.299986 0.186720 0.505896 -0.458369
C38   C     C_3   0.568227 0.634072 0.109397 0.071110
C39   C     C_3   0.617264 0.655353 0.009542 -0.294264
C40   C     C_3   0.638428 0.786793 0.022449 -0.477682
C41   C     C_R   0.030257 0.502974 0.500634 -0.028665
C42   C     C_R   0.060395 0.604159 0.557774 0.029588
C43   C     C_R   0.030292 0.705484 0.613384 -0.124291
C44   C     C_R   0.970938 0.706338 0.612374 -0.123076
C45   C     C_R   0.119676 0.402163 0.446536 0.399446
Cu1   Cu    Cu3+1 0.500010 0.500020 0.638630 0.917331
Cu2   Cu    Cu3+1 0.499990 0.499980 0.361370 0.969305
H1    H     H_    0.948029 0.222336 0.342599 0.169911
H2    H     H_    0.051417 0.220915 0.344103 0.167632
H3    H     H_    0.052464 0.784422 0.657817 0.167632
H4    H     H_    0.949063 0.785903 0.656108 0.169659
H5    H     H_    0.215974 0.483726 0.721441 0.130119
H6    H     H_    0.320287 0.482863 0.721813 0.124922
H7    H     H_    0.320528 0.517721 0.280204 0.119795
H8    H     H_    0.216304 0.518112 0.282248 0.129406
H9    H     H_    0.784129 0.508570 0.277283 0.132972
H10   H     H_    0.369634 0.895639 0.692530 0.144910
H11   H     H_    0.405807 0.757760 0.660113 0.149918
H12   H     H_    0.679878 0.506026 0.276802 0.138085
H13   H     H_    0.369939 0.908498 0.415094 0.211903
H14   H     H_    0.380249 0.747794 0.419204 0.158081
H15   H     H_    0.292504 0.739551 0.576479 0.182746
H16   H     H_    0.278243 0.790773 0.406207 0.165807
H17   H     H_    0.282033 0.899005 0.551616 0.160308
H18   H     H_    0.368205 0.104868 0.314811 0.146770
H19   H     H_    0.405000 0.242491 0.345691 0.154083
H20   H     H_    0.369991 0.091636 0.592257 0.212225
H21   H     H_    0.380512 0.252425 0.587627 0.163132
H22   H     H_    0.291976 0.260601 0.434924 0.183887
H23   H     H_    0.679720 0.500612 0.721742 0.129812
H24   H     H_    0.278520 0.209269 0.605871 0.165544
H25   H     H_    0.281381 0.101100 0.460237 0.160252
H26   H     H_    0.583268 0.656422 0.215510 0.176426
H27   H     H_    0.532841 0.696995 0.085797 0.132588
H28   H     H_    0.652999 0.593185 0.031353 0.163349
H29   H     H_    0.602832 0.634701 0.902131 0.191311
H30   H     H_    0.603590 0.850549 0.998892 0.161955
H31   H     H_    0.673834 0.799151 0.948384 0.169399
H32   H     H_    0.654243 0.808742 0.128364 0.153369
H33   H     H_    0.783922 0.502429 0.719848 0.132774
H34   H     H_    0.572586 0.891745 0.440668 0.056617
H35   H     H_    0.573318 0.108505 0.551235 0.072460
H36   H     H_    0.423356 0.586445 0.879095 0.113276
H37   H     H_    0.525668 0.433875 0.884935 0.275918
H38   H     H_    0.413879 0.526454 0.125287 0.077732
N1    N     N_R   0.852102 0.505319 0.498167 -0.398664
N2    N     N_R   0.148297 0.501399 0.502182 -0.395441
N3    N     N_2   0.499380 0.498660 0.846910 -0.337771
N4    N     N_2   0.499370 0.498630 0.153040 -0.036599
O1    O     O_R   0.500010 0.321960 0.617040 -0.514087
O2    O     O_R   0.582130 0.500060 0.617050 -0.503329
O3    O     O_R   0.582110 0.500020 0.382900 -0.479990
O4    O     O_2   0.851597 0.702191 0.605533 -0.496499
O5    O     O_3   0.446661 0.918970 0.601252 -0.562392
O6    O     O_3   0.445547 0.080874 0.402315 -0.565502
O7    O     O_3   0.551351 0.510389 0.094971 -0.492911
O8    O     O_2   0.850901 0.308459 0.390757 -0.492627
O9    O     O_2   0.148915 0.304844 0.394207 -0.510291
O10   O     O_2   0.149684 0.697876 0.610315 -0.511266
O11   O     O_R   0.499990 0.321920 0.382900 -0.488009
O12   O     O_R   0.417890 0.499980 0.617100 -0.517157
O13   O     O_R   0.417870 0.499940 0.382950 -0.532340
O14   O     O_R   0.500010 0.678080 0.617100 -0.498762
O15   O     O_R   0.499990 0.678040 0.382960 -0.545022

loop_
_geom_bond_atom_site_label_1
_geom_bond_atom_site_label_2
_ccdc_geom_bond_type
C1    C21   S    
C1    O1    A    
C37   H22   S    
Cu2   N4    S    
Cu2   O3    S    
C35   C36   S    
C12   H1    S    
C13   C25   S    
C24   N4    D    
C36   H20   S    
C7    C8    A    
C12   C23   A    
C12   C28   A    
C31   H11   S    
C5    H6    S    
C36   C37   S    
C45   N2    A    
C32   H14   S    
C20   H35   S    
C45   O9    S    
C16   C19   S    
C38   C39   S    
C23   H2    S    
C35   H18   S    
C10   C17   A    
C18   H34   S    
C1    O11   A    
C18   C19   D    
C41   C42   A    
C16   O15   A    
C27   O8    S    
C15   H33   S    
C33   H15   S    
C4    O13   A    
C39   H28   S    
C10   H9    S    
C24   H38   S    
C18   C20   S    
C33   H16   S    
C26   O4    S    
Cu2   O13   S    
C13   C14   A    
C14   H23   S    
C30   C44   A    
C34   C41   A    
C11   H12   S    
C8    H8    S    
Cu1   N3    S    
Cu1   O12   S    
C25   O2    A    
C17   N1    S    
C4    C6    S    
C39   C40   S    
C8    C9    A    
Cu1   O2    S    
C21   O6    S    
C35   H19   S    
Cu2   O11   S    
C27   N1    A    
C43   C44   A    
C29   C30   A    
C3    C9    A    
C16   O14   A    
C31   C32   S    
C26   N1    A    
C23   C34   A    
C4    O12   A    
C40   H32   S    
C2    N2    A    
C34   C45   A    
C39   H29   S    
C19   O5    S    
C44   H4    S    
C2    O10   S    
C26   C30   A    
C22   N3    D    
C37   H24   S    
C22   C24   S    
C42   C43   A    
C32   H13   S    
C38   H27   S    
C15   C17   A    
Cu1   Cu2   S    
C28   C29   A    
C25   O3    A    
Cu2   O15   S    
C29   C41   A    
C14   C15   A    
H37   N3    S    
C3    C5    A    
C3    H5    S    
C36   H21   S    
C43   H3    S    
C6    C7    A    
Cu1   O1    S    
C35   O6    S    
C31   O5    S    
Cu1   O14   S    
C32   C33   S    
C31   H10   S    
N4    O7    S    
C22   H36   S    
C11   C13   A    
C5    C6    A    
C2    C42   A    
C33   H17   S    
C40   H31   S    
C10   C11   A    
C20   C21   D    
C37   H25   S    
C38   O7    S    
C27   C28   A    
C40   H30   S    
C7    H7    S    
C9    N2    S    
C38   H26   S    
