data_mof_unit_32954.cif
_audit_creation_date              2013-03-05T16:21:41-0500
_audit_creation_method            fapswitch 2.2
_symmetry_space_group_name_H-M    P1
_symmetry_Int_Tables_number       1
_space_group_crystal_system       triclinic
_cell_length_a                    8.384933
_cell_length_b                    19.172054
_cell_length_c                    18.728382
_cell_angle_alpha                 103.657305
_cell_angle_beta                  90.514624
_cell_angle_gamma                 92.852573
_cell_volume                      2921.28843764

loop_
_atom_site_label
_atom_site_type_symbol
_atom_site_description
_atom_site_fract_x
_atom_site_fract_y
_atom_site_fract_z
_atom_type_partial_charge
P1    P     P_3+3 0.058010 0.429760 0.330690 0.495363
O1    O     O_2   0.885040 0.450540 0.321170 -0.345085
O2    O     O_3   0.133000 0.456200 0.410860 -0.344486
O3    O     O_3   0.639000 0.584840 0.375630 -0.361494
O4    O     O_2   0.757934 0.526589 0.249830 -0.390778
O5    O     O_3   0.990335 0.340383 0.326632 -0.526922
O6    O     O_3   0.702273 0.660091 0.265029 -0.513777
C1    C     C_3   0.531670 0.741730 0.226993 -0.718610
H1    H     H_    0.627318 0.745189 0.187024 0.207828
H2    H     H_    0.439421 0.701296 0.198237 0.201745
P2    P     P_3+3 0.631910 0.669560 0.569730 0.480054
P3    P     P_3+3 0.080616 0.715805 0.421609 0.477606
O7    O     O_2   0.804950 0.679010 0.548920 -0.403922
O8    O     O_3   0.051170 0.624120 0.414780 -0.321074
O9    O     O_2   0.942133 0.750976 0.467484 -0.402927
O10   O     O_3   0.617933 0.697357 0.666173 -0.596823
O11   O     O_3   0.040751 0.729529 0.334210 -0.515493
C2    C     C_3   0.123054 0.679804 0.282021 0.329925
H3    H     H_    0.094920 0.623745 0.286446 0.123433
H4    H     H_    0.252816 0.691548 0.290080 0.055311
C3    C     C_3   0.074008 0.682958 0.204023 -0.691100
H5    H     H_    0.953428 0.657067 0.191496 0.260990
C4    C     C_3   0.210838 0.691684 0.638834 0.439065
H6    H     H_    0.315240 0.661833 0.615981 0.121957
H7    H     H_    0.116933 0.687024 0.595440 0.096644
C5    C     C_3   0.264462 0.770837 0.668150 -1.011819
H8    H     H_    0.210571 0.793443 0.721984 0.283603
H9    H     H_    0.395592 0.777492 0.676782 0.270362
H10   H     H_    0.230491 0.802626 0.628409 0.223120
Ba1   Ba    Ba6+2 0.844980 0.532260 0.467660 1.601701
C6    C     C_3   0.083262 0.285378 0.288953 0.343397
H11   H     H_    0.211055 0.300654 0.294244 0.032495
C7    C     C_3   0.030954 0.262937 0.207303 -0.753083
H12   H     H_    0.076284 0.303536 0.178656 0.181774
H13   H     H_    0.899254 0.259317 0.202893 0.262570
C8    C     C_3   0.752030 0.687577 0.707492 0.387814
H14   H     H_    0.850812 0.662666 0.673513 0.085270
C9    C     C_3   0.809411 0.759718 0.760899 -0.359503
H15   H     H_    0.899628 0.748663 0.800196 0.129159
P4    P     P_3+3 0.131690 0.570300 0.669320 0.450471
O12   O     O_2   0.304650 0.549490 0.678880 -0.340604
O13   O     O_3   0.056690 0.543860 0.589150 -0.403902
O14   O     O_3   0.550690 0.415220 0.624380 -0.364765
O15   O     O_3   0.149112 0.664318 0.696089 -0.595755
P5    P     P_3+3 0.116925 0.283938 0.582987 0.486838
O16   O     O_3   0.632900 0.410750 0.456460 -0.404127
O17   O     O_3   0.138520 0.375940 0.585230 -0.396799
O18   O     O_2   0.261508 0.250991 0.539381 -0.329551
O19   O     O_3   0.150946 0.274835 0.673225 -0.549964
Ba2   Ba    Ba6+2 0.344840 0.467800 0.532350 1.603923
P6    P     P_3+3 0.626466 0.578108 0.280805 0.449278
C10   C     C_3   0.602409 0.716930 0.292629 0.448267
H16   H     H_    0.505850 0.702643 0.327694 0.024947
O20   O     O_3   0.556800 0.589310 0.543550 -0.345992
C11   C     C_3   0.541681 0.346935 0.297249 0.263853
H17   H     H_    0.420134 0.364020 0.310432 -0.034776
H18   H     H_    0.625358 0.393788 0.317725 0.144889
C12   C     C_3   0.561626 0.321802 0.213157 -0.506465
H19   H     H_    0.686804 0.335238 0.201181 0.175490
P7    P     P_3+3 0.566846 0.318566 0.427436 0.486889
O21   O     O_2   0.384750 0.321010 0.451130 -0.311809
O22   O     O_3   0.575184 0.291598 0.331177 -0.578489
H20   H     H_    0.156498 0.651688 0.164387 0.175855
C13   C     C_3   0.110682 0.338640 0.723049 0.430031
H21   H     H_    0.184771 0.385096 0.713421 0.150048
H22   H     H_    0.982755 0.348698 0.716558 -0.033865
C14   C     C_3   0.148446 0.335383 0.802377 -0.580025
H23   H     H_    0.164068 0.390571 0.837465 0.163894
H24   H     H_    0.261284 0.309527 0.805846 0.233641
P8    P     P_3+3 0.572269 0.426997 0.720485 0.445140
C15   C     C_3   0.596252 0.294758 0.733445 0.406716
H25   H     H_    0.723981 0.313772 0.740410 -0.000887
O23   O     O_2   0.452674 0.483516 0.754376 -0.368632
O24   O     O_3   0.491832 0.351308 0.747600 -0.554290
C16   C     C_3   0.559108 0.245709 0.786189 -0.619870
H26   H     H_    0.432775 0.224741 0.779262 0.205416
H27   H     H_    0.578709 0.276535 0.843849 0.183539
C17   C     C_R   0.012384 0.465596 0.043737 0.027724
C18   C     C_R   0.932746 0.423300 0.085522 0.067994
C19   C     C_R   0.799273 0.379195 0.054951 -0.115996
C20   C     C_R   0.731879 0.384125 0.988025 -0.177223
C21   C     C_R   0.805684 0.428576 0.947067 0.102970
C22   C     C_R   0.949773 0.467315 0.973572 0.036745
C23   C     C_R   0.741431 0.431882 0.878625 -0.252618
C24   C     C_R   0.827540 0.466433 0.831362 0.002596
C25   C     C_R   0.974530 0.504519 0.857353 -0.002249
C26   C     C_R   0.031988 0.506673 0.929598 -0.017696
C27   C     C_R   0.773761 0.463243 0.758487 0.169107
C28   C     C_R   0.870182 0.494450 0.712681 -0.491362
C29   C     C_R   0.016298 0.530926 0.736592 0.222170
C30   C     C_R   0.065826 0.539447 0.811035 -0.061274
C31   C     C_R   0.156428 0.504078 0.070992 -0.015346
C32   C     C_R   0.217425 0.502808 0.141959 0.054110
C33   C     C_R   0.125556 0.465983 0.187393 0.012134
C34   C     C_R   0.985478 0.426159 0.157353 -0.196971
H28   H     H_    0.746416 0.340976 0.083015 0.172820
H29   H     H_    0.624407 0.351643 0.967495 0.144658
H30   H     H_    0.823843 0.495646 0.659268 0.175150
H31   H     H_    0.626679 0.405085 0.862168 0.175556
H32   H     H_    0.916370 0.396381 0.189320 0.156357
C35   C     C_R   0.203539 0.581717 0.840806 -0.148038
C36   C     C_R   0.259472 0.583837 0.912095 0.124080
C37   C     C_R   0.176183 0.544982 0.956387 0.029009
C38   C     C_R   0.239255 0.543323 0.026756 0.012356
C39   C     C_R   0.400301 0.623372 0.939199 -0.179787
C40   C     C_R   0.465154 0.619911 0.006847 -0.133183
C41   C     C_R   0.389433 0.577611 0.050521 0.068702
C42   C     C_R   0.371675 0.535790 0.165569 -0.043440
C43   C     C_R   0.463658 0.565466 0.114626 -0.160932
C44   C     C_R   0.427169 0.536315 0.238479 0.105112
C45   C     C_R   0.327385 0.504237 0.283992 -0.453003
C46   C     C_R   0.178500 0.468208 0.260431 0.078687
H33   H     H_    0.270470 0.612703 0.808843 0.180163
H34   H     H_    0.462547 0.656189 0.907409 0.137477
H35   H     H_    0.573573 0.652171 0.024375 0.188085
C47   C     C_R   0.690828 0.950465 0.535599 0.046521
C48   C     C_R   0.785662 0.900924 0.558354 -0.187150
C49   C     C_R   0.883465 0.055728 0.581437 -0.046529
C50   C     C_R   0.747086 0.023164 0.539467 -0.016254
C51   C     C_R   0.959299 0.118160 0.568489 -0.071652
C52   C     C_R   0.876289 0.163355 0.532096 -0.066914
C53   C     C_R   0.728146 0.134941 0.495093 0.009749
C54   C     C_R   0.664981 0.064666 0.499074 0.033403
C55   C     C_R   0.925268 0.237172 0.536710 0.189277
C56   C     C_R   0.820864 0.280246 0.508721 -0.331994
C57   C     C_R   0.682758 0.252394 0.466416 0.175700
C58   C     C_R   0.639877 0.176939 0.455610 -0.062902
C59   C     C_R   0.538731 0.924812 0.504151 0.044410
C60   C     C_R   0.480742 0.852698 0.501712 0.003819
C61   C     C_R   0.576421 0.805838 0.530069 -0.054194
C62   C     C_R   0.725443 0.832900 0.560491 -0.065046
H36   H     H_    0.802875 0.800793 0.582904 0.177530
C63   C     C_R   0.505789 0.141706 0.412530 0.047050
C64   C     C_R   0.443905 0.075232 0.419786 -0.235260
C65   C     C_R   0.515684 0.037232 0.465173 0.043910
C66   C     C_R   0.446635 0.969970 0.472830 0.053508
C67   C     C_R   0.288569 0.945800 0.449158 -0.178402
C68   C     C_R   0.327848 0.827651 0.470628 -0.004659
C69   C     C_R   0.231079 0.876114 0.447688 -0.061938
C70   C     C_R   0.275315 0.755361 0.464889 0.145357
C71   C     C_R   0.371677 0.710617 0.493523 -0.457492
C72   C     C_R   0.522174 0.733241 0.525502 0.244985
H37   H     H_    0.110214 0.860751 0.427535 0.164890
H38   H     H_    0.321980 0.659235 0.496958 0.204126
H39   H     H_    0.911074 0.911938 0.571607 0.139867
H40   H     H_    0.343057 0.051052 0.384620 0.133286
H41   H     H_    0.205393 0.980256 0.432151 0.124669
C73   C     C_1   0.700625 0.776599 0.338858 0.164039
N1    N     N_1   0.776109 0.824661 0.374454 -0.067085
C74   C     C_2   0.051354 0.224330 0.325835 0.528467
H42   H     H_    0.979257 0.176604 0.298803 0.007993
O25   O     O_2   0.099898 0.229532 0.388554 -0.579720
C75   C     C_1   0.090026 0.193620 0.168057 0.160402
N2    N     N_1   0.135481 0.138898 0.137036 -0.061401
C76   C     C_1   0.697662 0.640498 0.754613 0.023009
N3    N     N_1   0.652669 0.606693 0.794587 -0.061230
C77   C     C_1   0.886973 0.811631 0.724740 0.133206
N4    N     N_1   0.949683 0.854487 0.698819 -0.100124
C78   C     C_1   0.677015 0.795118 0.804006 0.184040
N5    N     N_1   0.572936 0.822749 0.837766 -0.077016
C79   C     C_2   0.458952 0.813757 0.248134 0.580093
H43   H     H_    0.496514 0.855880 0.221153 0.048991
O26   O     O_2   0.356861 0.825229 0.294777 -0.603574
C80   C     C_2   0.527606 0.242460 0.183613 0.667249
H44   H     H_    0.407650 0.219677 0.184571 -0.011911
O27   O     O_2   0.632561 0.203529 0.156142 -0.599559
C81   C     C_2   0.451404 0.359050 0.173024 0.421729
H45   H     H_    0.324102 0.351784 0.178318 0.005416
O28   O     O_2   0.502606 0.395877 0.132725 -0.609779
C82   C     C_1   0.024755 0.296077 0.833926 0.170102
N6    N     N_1   0.929359 0.265477 0.860745 -0.076376
C83   C     C_1   0.563791 0.253457 0.658932 0.132152
N7    N     N_1   0.533782 0.219935 0.600624 -0.057743
C84   C     C_1   0.658059 0.182991 0.773159 0.156801
N8    N     N_1   0.735109 0.133360 0.763079 -0.063523
C85   C     C_2   0.639640 0.562525 0.115158 0.624896
H46   H     H_    0.691301 0.514112 0.122003 0.091240
O29   O     O_2   0.727726 0.612514 0.107287 -0.637661
C86   C     C_2   0.377792 0.510826 0.359864 0.739323
H47   H     H_    0.456852 0.474415 0.375661 0.001077
O30   O     O_2   0.333361 0.560422 0.406832 -0.585256
C87   C     C_1   0.852628 0.356261 0.526679 0.259822
N9    N     N_1   0.878434 0.417618 0.541444 0.014293
C88   C     C_1   0.127195 0.127517 0.588309 0.218878
N10   N     N_1   0.261153 0.131369 0.604726 -0.054864
C89   C     C_1   0.436937 0.163188 0.351389 0.214120
N11   N     N_1   0.377742 0.175901 0.300391 -0.096885
C90   C     C_1   0.936063 0.032815 0.646173 0.068332
N12   N     N_1   0.978710 0.015290 0.697930 -0.066648
C91   C     C_2   0.071610 0.758213 0.193934 0.789815
H48   H     H_    0.997300 0.796830 0.228249 0.028104
O31   O     O_2   0.150605 0.776143 0.146183 -0.602397

loop_
_geom_bond_atom_site_label_1
_geom_bond_atom_site_label_2
_geom_bond_distance
_ccdc_geom_bond_type
C22   C26   1.405256 A    
C11   H17   1.098413 S    
P4    O12   1.543095 D    
C57   C58   1.439323 A    
C2    C3    1.529719 S    
C35   H33   1.080268 S    
C45   C46   1.410912 A    
C12   C80   1.502646 S    
C59   C60   1.432779 A    
C20   C21   1.400850 A    
C3    C91   1.499760 S    
C43   C85   1.479509 S    
C65   C66   1.425899 A    
C81   O28   1.216427 D    
C24   C25   1.421611 A    
C47   C48   1.405812 A    
C67   C69   1.391541 A    
C5    H8    1.109002 S    
C35   C36   1.401933 A    
P7    O22   1.757249 S    
C80   H44   1.078465 S    
O8    Ba1   2.760949 S    
O6    C10   1.410126 S    
C2    H3    1.111234 S    
C1    C79   1.505133 S    
C59   C66   1.410050 A    
C32   C42   1.429852 A    
C9    H15   1.112855 S    
C7    C75   1.470546 S    
C24   C27   1.420087 A    
C40   C41   1.414620 A    
C11   O22   1.397509 S    
C42   C43   1.433430 A    
C36   C39   1.394644 A    
C48   H39   1.077245 S    
P1    O1    1.542857 D    
C4    C5    1.529932 S    
C33   C46   1.424652 A    
C53   C58   1.439973 A    
C16   H27   1.108237 S    
C84   N8    1.156283 T    
C31   C32   1.425828 A    
C52   C55   1.436227 A    
C49   C50   1.412917 A    
C69   H37   1.080376 S    
C17   C22   1.418899 A    
C15   C83   1.448584 S    
C77   N4    1.156372 T    
C60   C68   1.416453 A    
C78   N5    1.157478 T    
P2    Ba1   3.453753 S    
C1    H1    1.112139 S    
P3    O11   1.750006 S    
P8    O24   1.753632 S    
C4    H6    1.103621 S    
C6    C7    1.540887 S    
C19   H28   1.078556 S    
C1    C10   1.542706 S    
P4    O13   1.580726 S    
O5    C6    1.399079 S    
Ba1   Ba2   4.657620 S    
P8    C27   1.863280 S    
C10   C73   1.470430 S    
O19   C13   1.410269 S    
C3    H5    1.102027 S    
C86   O30   1.209486 D    
C16   C84   1.469064 S    
C45   C86   1.453574 S    
C41   C43   1.419857 A    
C36   C37   1.407547 A    
C30   C35   1.408151 A    
C48   C62   1.384504 A    
C79   O26   1.218885 D    
O2    Ba2   2.833854 S    
Ba1   O16   2.825510 S    
C79   H43   1.084886 S    
O17   Ba2   2.761600 S    
P5    O17   1.754677 S    
C14   C82   1.461554 S    
C85   O29   1.218180 D    
C64   H40   1.081895 S    
O3    P6    1.751760 S    
C14   H23   1.106726 S    
C13   C14   1.532562 S    
O7    Ba1   2.902708 S    
C70   C71   1.398128 A    
C34   H32   1.074644 S    
C71   H38   1.066654 S    
O4    P6    1.541615 D    
C81   H45   1.078075 S    
C6    C74   1.507483 S    
C49   C90   1.455549 S    
C17   C18   1.403940 A    
C66   C67   1.413931 A    
C17   C31   1.409275 A    
C12   H19   1.105866 S    
P5    C55   1.897947 S    
C4    O15   1.393413 S    
P1    O5    1.762089 S    
C54   C65   1.417515 A    
P7    O21   1.593703 D    
P1    O2    1.580695 S    
C13   H22   1.109895 S    
O2    Ba1   2.958808 S    
C16   H26   1.109529 S    
C91   H48   1.085282 S    
C18   C34   1.400128 A    
Ba1   O20   2.940389 S    
P2    O10   1.765120 S    
C39   H34   1.082839 S    
C6    H11   1.094042 S    
P3    O9    1.537347 D    
P5    O19   1.761673 S    
P8    O23   1.541899 D    
P3    C70   1.860121 S    
C7    H12   1.099807 S    
C44   C45   1.419145 A    
C32   C33   1.434296 A    
Ba2   O20   2.824920 S    
C10   H16   1.110955 S    
C23   C24   1.408678 A    
C12   C81   1.495246 S    
C51   C88   1.444270 S    
C52   C53   1.434885 A    
P2    O20   1.595609 S    
C68   C70   1.412262 A    
C63   C89   1.431303 S    
O13   Ba2   2.959726 S    
C26   C37   1.407018 A    
C85   H46   1.077409 S    
P3    O8    1.737018 S    
O14   P8    1.766779 S    
C21   C23   1.402373 A    
C11   H18   1.102731 S    
C56   C57   1.405727 A    
C74   O25   1.219608 D    
C82   N6    1.155824 T    
C62   H36   1.064682 S    
C28   C29   1.395569 A    
O12   Ba2   2.852537 S    
C76   N3    1.154444 T    
C83   N7    1.147353 T    
C60   C61   1.422032 A    
P5    O18   1.544685 D    
C14   H24   1.098131 S    
C8    H14   1.106534 S    
C91   O31   1.220574 D    
O16   P7    1.780245 S    
C56   C87   1.426966 S    
C25   C26   1.422815 A    
C23   H31   1.074921 S    
C67   H41   1.079574 S    
Ba1   O13   2.833184 S    
C58   C63   1.421997 A    
C9    C77   1.460792 S    
C19   C20   1.395667 A    
C9    C78   1.475513 S    
C15   O24   1.405430 S    
C47   C50   1.434100 A    
O14   Ba2   2.811823 S    
C64   C65   1.393719 A    
C50   C54   1.417318 A    
C86   H47   1.074411 S    
P6    C44   1.898926 S    
C39   C40   1.391451 A    
O16   Ba2   2.939540 S    
C5    H9    1.106548 S    
C74   H42   1.086127 S    
O11   C2    1.406418 S    
O1    Ba1   2.851935 S    
C28   H30   1.075593 S    
C25   C30   1.422025 A    
C13   H21   1.111085 S    
C80   O27   1.220006 D    
C61   C62   1.392212 A    
C75   N2    1.157334 T    
O6    P6    1.756437 S    
C15   H25   1.110454 S    
P1    C46   1.924392 S    
C71   C72   1.395897 A    
O10   C8    1.404319 S    
C8    C9    1.554586 S    
C15   C16   1.540175 S    
P2    O7    1.518965 D    
C29   C30   1.420659 A    
C63   C64   1.388944 A    
C20   H29   1.082851 S    
P4    Ba2   3.418747 S    
P7    C57   1.906405 S    
P1    Ba1   3.418186 S    
C7    H13   1.104144 S    
C42   C44   1.436249 A    
C2    H4    1.101784 S    
C73   N1    1.156889 T    
C4    H7    1.111593 S    
C33   C34   1.405368 A    
C61   C72   1.425313 A    
P2    C72   1.897102 S    
C49   C51   1.399960 A    
C3    H20   1.108696 S    
C68   C69   1.401245 A    
C31   C38   1.409798 A    
C18   C19   1.400365 A    
P4    O15   1.751415 S    
C27   C28   1.397943 A    
C5    H10   1.110951 S    
C1    H2    1.106783 S    
C21   C22   1.408373 A    
C47   C59   1.415099 A    
C11   C12   1.547530 S    
C37   C38   1.423548 A    
C53   C54   1.441691 A    
Ba2   O21   2.902969 S    
C51   C52   1.424850 A    
C90   N12   1.157533 T    
C88   N10   1.156044 T    
P4    C29   1.868597 S    
C89   N11   1.153872 T    
C38   C41   1.408988 A    
O3    Ba1   2.812504 S    
C87   N9    1.151965 T    
C8    C76   1.464146 S    
C55   C56   1.411118 A    
C40   H35   1.076809 S    
