data_mof_unit_19302.cif
_audit_creation_date              2012-12-10T17:07:12-0500
_audit_creation_method            fapswitch 2.2
_symmetry_space_group_name_H-M    P1
_symmetry_Int_Tables_number       1
_space_group_crystal_system       triclinic
_cell_length_a                    17.135745
_cell_length_b                    11.06781
_cell_length_c                    9.821243
_cell_angle_alpha                 111.931866
_cell_angle_beta                  93.210207
_cell_angle_gamma                 92.359896
_cell_volume                      1721.25448731

loop_
_atom_site_label
_atom_site_type_symbol
_atom_type_description
_atom_site_fract_x
_atom_site_fract_y
_atom_site_fract_z
_atom_type_partial_charge
C1    C     C_R   0.494656 0.253449 0.439865 0.769306
C2    C     C_R   0.505114 0.746572 0.560202 0.808503
C3    C     C_2   0.491298 0.111913 0.403732 0.216179
C4    C     C_2   0.507050 0.888125 0.596610 0.255503
C5    C     C_2   0.495467 0.069419 0.514520 -0.095974
C6    C     C_2   0.493903 0.930437 0.487004 -0.100727
C7    C     C_2   0.506581 0.510902 0.080454 -0.036621
C8    C     C_2   0.493461 0.489016 0.919512 -0.038193
C9    C     C_R   0.351731 0.499046 0.520168 0.920275
C10   C     C_R   0.648418 0.499575 0.479408 0.923056
C11   C     C_R   0.267638 0.493089 0.535584 -0.145933
C12   C     C_R   0.732833 0.503461 0.463600 -0.163783
C13   C     C_R   0.224296 0.371436 0.491115 -0.122146
C14   C     C_R   0.782719 0.610858 0.557596 -0.114396
C15   C     C_R   0.144639 0.369416 0.512566 -0.163345
C16   C     C_R   0.863192 0.606981 0.544813 -0.170118
C17   C     C_R   0.107071 0.485111 0.570175 0.011575
C18   C     C_R   0.894807 0.499438 0.442057 -0.000951
C19   C     C_R   0.149953 0.607421 0.619027 -0.110466
C20   C     C_R   0.845747 0.392867 0.345151 -0.095161
C21   C     C_R   0.231880 0.610548 0.605337 0.344737
C22   C     C_R   0.763605 0.397024 0.354111 0.343675
C23   C     C_2   0.021119 0.473947 0.557365 0.317237
C24   C     C_2   0.980464 0.497610 0.446840 0.300893
Cu1   Cu    Cu3+1 0.513640 0.521550 0.643210 1.011584
Cu2   Cu    Cu3+1 0.486360 0.478450 0.356790 1.031637
H1    H     H_    0.902262 0.688109 0.616473 0.213976
H2    H     H_    0.110193 0.276824 0.474630 0.203709
H3    H     H_    0.482430 0.861314 0.374221 0.190722
H4    H     H_    0.500897 0.138421 0.628025 0.188599
H5    H     H_    0.448315 0.416292 0.852181 0.162260
H6    H     H_    0.551753 0.583579 0.147764 0.164320
H7    H     H_    0.576213 0.623140 0.925140 0.212423
H8    H     H_    0.423775 0.376881 0.074869 0.218302
N1    N     N_2   0.465840 0.446060 0.141630 -0.273973
N2    N     N_2   0.534160 0.553940 0.858370 -0.278785
O1    O     O_R   0.507280 0.332200 0.576490 -0.608098
O2    O     O_R   0.492720 0.667800 0.423510 -0.610298
O3    O     O_R   0.484240 0.295800 0.334620 -0.547345
O4    O     O_R   0.515760 0.704200 0.665380 -0.552624
O5    O     O_R   0.399260 0.520290 0.634950 -0.576440
O6    O     O_R   0.600740 0.479710 0.365050 -0.546003
O7    O     O_R   0.376220 0.483890 0.393080 -0.531242
O8    O     O_R   0.623780 0.516110 0.606920 -0.568031
C25   C     C_2   0.259516 0.244632 0.420131 0.841062
O9    O     O_2   0.238002 0.150393 0.448378 -0.539413
O10   O     O_R   0.314445 0.230648 0.316395 -0.753044
H9    H     H_    0.331705 0.138320 0.272561 0.346576
C26   C     C_2   0.753428 0.730495 0.667242 0.886231
O11   O     O_2   0.689247 0.766899 0.645227 -0.610895
O12   O     O_R   0.800921 0.804579 0.794218 -0.736098
H10   H     H_    0.775177 0.884409 0.859684 0.349670
O13   O     O_3   0.711736 0.297892 0.260431 -0.693103
H11   H     H_    0.735786 0.253266 0.166824 0.350950
O14   O     O_3   0.278820 0.725640 0.657461 -0.704291
H12   H     H_    0.254044 0.791526 0.738768 0.355072
O15   O     O_3   0.016039 0.528636 0.339555 -0.646789
H13   H     H_    0.071118 0.505008 0.335181 0.337749
O16   O     O_3   0.985742 0.436805 0.660599 -0.651803
H14   H     H_    0.929339 0.412723 0.631532 0.332798
C27   C     C_2   0.108438 0.729725 0.676551 0.853019
O17   O     O_2   0.124607 0.820151 0.637863 -0.528707
O18   O     O_R   0.049922 0.740541 0.773336 -0.714060
H15   H     H_    0.025508 0.827757 0.803756 0.353317
C28   C     C_2   0.880011 0.273759 0.244622 0.834832
O19   O     O_2   0.933865 0.283160 0.171857 -0.521730
O20   O     O_R   0.850708 0.150473 0.233988 -0.731329
H16   H     H_    0.878580 0.077057 0.162119 0.354878
O21   O     O_3   0.522209 0.977446 0.739792 -0.712890
H17   H     H_    0.531401 0.930212 0.806557 0.358103
O22   O     O_3   0.484481 0.022811 0.259479 -0.723354
H18   H     H_    0.484261 0.070304 0.191773 0.355430

loop_
_geom_bond_atom_site_label_1
_geom_bond_atom_site_label_2
_ccdc_geom_bond_type
C6    H3    S    
C3    O22   S    
C23   C24   D    
C2    O4    A    
C10   O6    A    
C11   C13   A    
C2    O2    A    
C9    O5    A    
O10   H9    S    
C1    O1    A    
O14   H12   S    
Cu1   O1    S    
C27   O17   D    
C16   H1    S    
C13   C15   A    
C15   H2    S    
C3    C5    D    
C21   O14   S    
O16   H14   S    
C28   O19   D    
C25   O9    D    
O18   H15   S    
C23   O16   S    
C5    C6    S    
C9    C11   S    
Cu2   O6    S    
O15   H13   S    
C17   C23   S    
C10   C12   S    
C19   C27   S    
C18   C24   S    
C2    C4    S    
Cu1   O8    S    
C16   C18   A    
C4    O21   S    
C19   C21   A    
C12   C14   A    
Cu2   O7    S    
C26   O11   D    
C22   O13   S    
C18   C20   A    
C25   O10   S    
Cu1   O4    S    
O21   H17   S    
C14   C16   A    
Cu2   O3    S    
C9    O7    A    
C14   C26   S    
C1    O3    A    
Cu1   N2    S    
C10   O8    A    
O12   H10   S    
C12   C22   A    
C20   C28   S    
C7    C8    S    
H7    N2    S    
O22   H18   S    
C13   C25   S    
C4    C6    D    
H8    N1    S    
C8    N2    D    
Cu1   O5    S    
C1    C3    S    
C15   C17   A    
Cu2   N1    S    
C17   C19   A    
C7    H6    S    
C28   O20   S    
Cu1   Cu2   S    
O13   H11   S    
C8    H5    S    
C7    N1    D    
C11   C21   A    
C27   O18   S    
Cu2   O2    S    
O20   H16   S    
C5    H4    S    
C20   C22   A    
C24   O15   S    
C26   O12   S    
