data_mof_unit_55318.cif
_audit_creation_date              2012-12-10T17:17:52-0500
_audit_creation_method            fapswitch 2.2
_symmetry_space_group_name_H-M    P1
_symmetry_Int_Tables_number       1
_space_group_crystal_system       triclinic
_cell_length_a                    15.088814
_cell_length_b                    15.888237
_cell_length_c                    9.697836
_cell_angle_alpha                 90.673953
_cell_angle_beta                  89.584632
_cell_angle_gamma                 89.686786
_cell_volume                      2324.64958727

loop_
_atom_site_label
_atom_site_type_symbol
_atom_type_description
_atom_site_fract_x
_atom_site_fract_y
_atom_site_fract_z
_atom_type_partial_charge
C1    C     C_R   0.377017 0.885435 0.499853 0.855247
C2    C     C_R   0.384956 0.122267 0.502507 0.820897
C3    C     C_R   0.883977 0.378391 0.501492 0.817729
C4    C     C_R   0.883087 0.621212 0.502656 0.781840
C5    C     C_R   0.298719 0.233127 0.387147 -0.216448
C6    C     C_R   0.279457 0.782363 0.380425 -0.202168
C7    C     C_R   0.794637 0.729793 0.385756 -0.201937
C8    C     C_R   0.798181 0.266186 0.383511 -0.188568
C9    C     C_R   0.726349 0.788319 0.380611 -0.202543
C10   C     C_R   0.731752 0.205622 0.380540 -0.170657
C11   C     C_R   0.229123 0.290235 0.383111 -0.214406
C12   C     C_R   0.216115 0.719190 0.383566 -0.212138
C13   C     C_R   0.672341 0.803087 0.496266 -0.054655
C14   C     C_R   0.677440 0.193452 0.496600 -0.086561
C15   C     C_R   0.176206 0.304903 0.499979 -0.057213
C16   C     C_R   0.172751 0.697120 0.505608 -0.073491
C17   C     C_R   0.658606 0.983088 0.147997 -0.224140
C18   C     C_R   0.157741 0.479749 0.148094 -0.218690
C19   C     C_R   0.737208 0.960251 0.087013 -0.257035
C20   C     C_R   0.235349 0.454200 0.087117 -0.255907
C21   C     C_R   0.744466 0.955073 0.945343 0.110388
C22   C     C_R   0.244852 0.457415 0.945794 0.106776
C23   C     C_R   0.668996 0.976837 0.864943 0.376174
C24   C     C_R   0.169316 0.478543 0.865206 0.362615
C25   C     C_R   0.580977 0.987788 0.926694 0.106548
C26   C     C_R   0.081071 0.488861 0.926691 0.111914
C27   C     C_R   0.578861 0.989154 0.075494 0.100451
C28   C     C_R   0.078723 0.489293 0.075433 0.101550
C29   C     C_R   0.423774 0.013215 0.072805 0.177011
C30   C     C_R   0.923007 0.508706 0.071864 0.175822
C31   C     C_R   0.615496 0.121531 0.499368 0.810664
C32   C     C_R   0.613364 0.877102 0.498669 0.846605
C33   C     C_R   0.114671 0.622208 0.501328 0.797781
C34   C     C_R   0.114151 0.377243 0.499420 0.839240
C35   C     C_R   0.426272 0.016238 0.925767 -0.045540
C36   C     C_R   0.925072 0.509377 0.924528 0.033169
C37   C     C_R   0.308459 0.208651 0.770967 0.258032
C38   C     C_R   0.262632 0.860038 0.742099 0.284066
C39   C     C_R   0.797595 0.706363 0.770656 0.246876
C40   C     C_R   0.799166 0.297996 0.768166 0.297290
C41   C     C_R   0.252618 0.222104 0.887521 0.248615
C42   C     C_R   0.254369 0.820164 0.869516 0.236891
C43   C     C_R   0.738760 0.721955 0.884161 0.270848
C44   C     C_R   0.738913 0.290338 0.880008 0.219791
C45   C     C_R   0.649217 0.741075 0.860090 0.022873
C46   C     C_R   0.649512 0.277692 0.852248 0.114197
C47   C     C_R   0.162432 0.235159 0.867569 0.048418
C48   C     C_R   0.198159 0.751384 0.877974 0.103649
C49   C     C_R   0.621276 0.753119 0.723261 0.310420
C50   C     C_R   0.624151 0.256314 0.716992 0.349704
C51   C     C_R   0.133592 0.256010 0.734348 0.288464
C52   C     C_R   0.151655 0.727601 0.759909 0.324404
C53   C     C_R   0.685283 0.755442 0.616381 -0.048870
C54   C     C_R   0.689657 0.245198 0.613840 -0.125661
C55   C     C_R   0.193494 0.259061 0.622222 -0.050544
C56   C     C_R   0.190331 0.744355 0.628249 -0.115225
C57   C     C_R   0.275102 0.217104 0.634750 -0.029871
C58   C     C_R   0.251945 0.811134 0.622517 -0.006655
C59   C     C_R   0.766901 0.713487 0.632895 -0.054355
C60   C     C_R   0.770405 0.287034 0.629958 -0.015565
C61   C     C_R   0.321497 0.193638 0.510466 -0.031973
C62   C     C_R   0.300442 0.827259 0.500418 -0.044514
C63   C     C_R   0.816425 0.690661 0.510051 -0.042779
C64   C     C_R   0.819447 0.307887 0.507390 -0.030547
Cu1   Cu    Cu3+1 0.499990 1.000000 0.640660 1.057442
Cu2   Cu    Cu3+1 0.999990 0.500000 0.640660 1.038035
Cu3   Cu    Cu3+1 0.500010 0.000000 0.359340 0.922931
Cu4   Cu    Cu3+1 0.000010 0.500000 0.359340 0.920907
H1    H     H_    0.336980 0.222380 0.294077 0.172976
H2    H     H_    0.314301 0.793943 0.284597 0.192915
H3    H     H_    0.833162 0.718099 0.292965 0.173897
H4    H     H_    0.835209 0.278107 0.289744 0.182397
H5    H     H_    0.368344 0.032769 0.868908 0.206984
H6    H     H_    0.865627 0.518190 0.865299 0.163692
H7    H     H_    0.716587 0.822654 0.286195 0.184511
H8    H     H_    0.722579 0.168859 0.287040 0.171508
H9    H     H_    0.217158 0.323230 0.288099 0.185304
H10   H     H_    0.203495 0.683897 0.291202 0.171595
H11   H     H_    0.664978 0.997396 0.253969 0.226971
H12   H     H_    0.164799 0.495558 0.253523 0.225977
H13   H     H_    0.793769 0.952525 0.153504 0.178391
H14   H     H_    0.290832 0.442578 0.154180 0.180888
N1    N     N_R   0.501200 0.000000 0.147910 -0.208731
N2    N     N_R   0.001200 0.500000 0.147910 -0.209611
N3    N     N_R   0.501270 0.000000 0.852040 -0.193647
N4    N     N_R   0.001270 0.500000 0.852040 -0.182250
O1    O     O_R   0.409820 0.909830 0.618810 -0.515712
O2    O     O_R   0.409820 0.090170 0.618810 -0.492631
O3    O     O_R   0.909820 0.409830 0.618810 -0.526144
O4    O     O_R   0.909820 0.590170 0.618810 -0.518802
O5    O     O_R   0.409840 0.909830 0.381240 -0.615714
O6    O     O_R   0.409840 0.090170 0.381240 -0.646068
O7    O     O_R   0.909840 0.409830 0.381240 -0.620287
O8    O     O_R   0.909840 0.590170 0.381240 -0.622066
O9    O     O_R   0.590170 0.090170 0.618760 -0.467213
O10   O     O_R   0.590170 0.909830 0.618760 -0.519725
O11   O     O_R   0.090170 0.590170 0.618760 -0.459932
O12   O     O_R   0.090170 0.409830 0.618760 -0.545065
O13   O     O_R   0.590190 0.090180 0.381190 -0.631887
O14   O     O_R   0.590190 0.909820 0.381190 -0.619591
O15   O     O_R   0.090190 0.590180 0.381190 -0.622949
O16   O     O_R   0.090190 0.409820 0.381190 -0.615322
C65   C     C_3   0.835090 0.938036 0.877823 -0.381554
C66   C     C_3   0.911136 0.914194 0.973966 -0.841538
H15   H     H_    0.928629 0.968311 0.041842 0.250326
H16   H     H_    0.893060 0.858966 0.037227 0.261871
H17   H     H_    0.970718 0.897341 0.911364 0.249343
H18   H     H_    0.827997 0.885450 0.802333 0.189573
H19   H     H_    0.856131 0.995041 0.821081 0.216941
C67   C     C_3   0.337770 0.451313 0.880868 -0.379096
C68   C     C_3   0.415852 0.456679 0.980608 -0.885410
H20   H     H_    0.410919 0.514491 0.045733 0.259115
H21   H     H_    0.418162 0.400309 0.047084 0.254362
H22   H     H_    0.478744 0.460185 0.920853 0.243584
H23   H     H_    0.343153 0.391883 0.819994 0.197033
H24   H     H_    0.347423 0.504599 0.809209 0.211665
O17   O     O_3   0.686645 0.003784 0.734858 -0.693864
H25   H     H_    0.734538 0.970282 0.690432 0.290415
O18   O     O_3   0.187151 0.503199 0.734067 -0.688974
H26   H     H_    0.231777 0.465099 0.690711 0.289776
O19   O     O_3   0.397314 0.201666 0.790587 -0.674760
H27   H     H_    0.413358 0.250202 0.849403 0.340558
O20   O     O_3   0.266523 0.946167 0.731781 -0.737554
H28   H     H_    0.235844 0.970015 0.813515 0.317013
O21   O     O_3   0.887001 0.700678 0.792933 -0.702555
H29   H     H_    0.903120 0.743181 0.863749 0.339960
O22   O     O_3   0.887288 0.299551 0.793973 -0.712408
H30   H     H_    0.899528 0.259362 0.868884 0.329463
O23   O     O_3   0.283847 0.222270 0.021241 -0.770434
H31   H     H_    0.346364 0.203918 0.022972 0.328776
O24   O     O_3   0.302545 0.844759 0.982397 -0.760462
H32   H     H_    0.356873 0.871747 0.947435 0.341627
O25   O     O_3   0.766665 0.719563 0.019574 -0.759198
H33   H     H_    0.825561 0.692442 0.024270 0.328460
O26   O     O_3   0.765025 0.295332 0.016523 -0.757509
H34   H     H_    0.823842 0.322222 0.023306 0.331206
C69   C     C_3   0.587279 0.758788 0.981399 -0.310207
C70   C     C_3   0.549092 0.677680 0.039039 -0.825463
H35   H     H_    0.513194 0.642185 0.957676 0.237934
H36   H     H_    0.602880 0.637621 0.080388 0.280555
H37   H     H_    0.501986 0.693049 0.124279 0.242028
H38   H     H_    0.622951 0.792916 0.064613 0.244259
H39   H     H_    0.532287 0.801649 0.952297 0.185470
C71   C     C_3   0.582603 0.288412 0.967461 -0.328925
C72   C     C_3   0.559783 0.204265 0.031674 -0.747821
H40   H     H_    0.533315 0.161058 0.951947 0.280446
H41   H     H_    0.619776 0.175543 0.077668 0.265111
H42   H     H_    0.508919 0.213549 0.113848 0.214267
H43   H     H_    0.607614 0.331399 0.049471 0.227390
H44   H     H_    0.522954 0.319364 0.927550 0.198296
C73   C     C_3   0.097569 0.228170 0.987950 -0.314738
C74   C     C_3   0.039343 0.150174 0.972438 -0.837534
H45   H     H_    0.002714 0.150424 0.873797 0.286453
H46   H     H_    0.080512 0.092200 0.974697 0.252474
H47   H     H_    0.990645 0.148238 0.058733 0.236760
H48   H     H_    0.132235 0.223198 0.088101 0.254813
H49   H     H_    0.055705 0.285612 0.997581 0.172068
C75   C     C_3   0.189999 0.703351 0.009433 -0.282570
C76   C     C_3   0.278695 0.659979 0.039996 -0.833149
H50   H     H_    0.303965 0.626585 0.946612 0.262572
H51   H     H_    0.329448 0.705663 0.073842 0.279566
H52   H     H_    0.271212 0.614106 0.123625 0.231339
H53   H     H_    0.170747 0.747662 0.093783 0.204582
H54   H     H_    0.137734 0.654781 0.001103 0.221780
O27   O     O_3   0.532837 0.761983 0.689189 -0.725109
H55   H     H_    0.495543 0.735494 0.760675 0.327360
O28   O     O_3   0.535849 0.255274 0.684172 -0.698752
H56   H     H_    0.528972 0.261237 0.583151 0.308161
O29   O     O_3   0.046423 0.272144 0.712296 -0.674895
H57   H     H_    0.032595 0.316453 0.781638 0.370327
O30   O     O_3   0.064172 0.707152 0.777360 -0.686261
H58   H     H_    0.032833 0.726155 0.693559 0.344462
C77   C     C_3   0.337118 0.035148 0.147246 -0.292904
C78   C     C_3   0.248106 0.029968 0.073721 -0.919301
H59   H     H_    0.247176 0.066268 0.977855 0.265008
H60   H     H_    0.226911 0.964675 0.055962 0.294779
H61   H     H_    0.196781 0.058654 0.142564 0.261782
H62   H     H_    0.329039 0.995464 0.238395 0.260571
H63   H     H_    0.342162 0.101616 0.177318 0.228377
C79   C     C_3   0.833010 0.522079 0.142455 -0.342963
C80   C     C_3   0.749979 0.508656 0.054442 -0.940580
H64   H     H_    0.740657 0.560517 0.980858 0.271344
H65   H     H_    0.753728 0.449245 0.995213 0.273740
H66   H     H_    0.690445 0.506646 0.122322 0.259452
H67   H     H_    0.825454 0.479199 0.229160 0.257398
H68   H     H_    0.828808 0.587397 0.181034 0.232216

loop_
_geom_bond_atom_site_label_1
_geom_bond_atom_site_label_2
_ccdc_geom_bond_type
C58   C62   A    
Cu2   Cu4   S    
O30   H58   S    
C1    O1    A    
O27   H55   S    
C39   O21   S    
C20   H14   S    
C28   N2    A    
C4    O8    A    
O29   H57   S    
C13   C32   S    
C68   H20   S    
C14   C31   S    
C69   H38   S    
C1    C62   S    
C66   H16   S    
C72   H40   S    
C53   C59   A    
O26   H34   S    
Cu2   O4    S    
C54   C60   A    
C77   C78   S    
Cu3   N1    S    
C4    C63   S    
C34   O16   A    
C33   O15   A    
C73   H49   S    
Cu2   O11   S    
C19   C21   A    
C24   C26   A    
Cu2   N4    S    
C5    C11   A    
C48   C52   A    
C7    H3    S    
C31   O9    A    
C77   H63   S    
C17   H11   S    
C18   C20   A    
C6    H2    S    
C57   C61   A    
C43   O25   S    
C9    C13   A    
C78   H59   S    
C71   H44   S    
C11   H9    S    
C17   C19   A    
C38   C58   A    
C11   C15   A    
Cu1   O10   S    
C12   C16   A    
Cu1   Cu3   S    
C12   H10   S    
C5    H1    S    
C73   C74   S    
C76   H51   S    
C2    O2    A    
C42   O24   S    
C31   O13   A    
C15   C34   S    
C13   C53   A    
C38   O20   S    
C2    C61   S    
C75   H54   S    
C44   O26   S    
O21   H29   S    
C69   H39   S    
C1    O5    A    
C65   H19   S    
C46   C71   S    
C37   C41   A    
C10   H8    S    
C52   O30   S    
C45   C69   S    
C66   H15   S    
C72   H41   S    
C44   C46   A    
Cu1   O1    S    
Cu2   O3    S    
C4    O4    A    
C80   H65   S    
C8    H4    S    
Cu3   O5    S    
C17   C27   A    
O20   H28   S    
C18   C28   A    
Cu4   O15   S    
C68   H21   S    
C10   C14   A    
C29   C77   S    
O28   H56   S    
C47   C51   A    
C36   N4    A    
C80   H64   S    
C40   O22   S    
C48   C75   S    
Cu4   O8    S    
C67   C68   S    
Cu4   N2    S    
C30   C36   A    
C16   C56   A    
C49   O27   S    
C71   H43   S    
C79   H68   S    
C16   C33   S    
C41   O23   S    
C22   C67   S    
C76   H50   S    
C74   H47   S    
C51   O29   S    
C26   N4    A    
C39   C59   A    
C25   N3    A    
C45   C49   A    
C41   C47   A    
C76   H52   S    
C5    C61   A    
C3    O7    A    
C42   C48   A    
C73   H48   S    
C2    O6    A    
C43   C45   A    
C78   H61   S    
C7    C63   A    
O19   H27   S    
C65   H18   S    
C50   O28   S    
C36   H6    S    
C75   H53   S    
C8    C64   A    
C37   O19   S    
Cu3   O14   S    
C18   H12   S    
C14   C54   A    
C74   H46   S    
C55   C57   A    
O25   H33   S    
C22   C24   A    
C20   C22   A    
C40   C44   A    
O22   H30   S    
C67   H24   S    
C65   C66   S    
C72   H42   S    
C79   C80   S    
Cu1   O2    S    
O23   H31   S    
C80   H66   S    
C7    C9    A    
C46   C50   A    
C35   H5    S    
C24   O18   S    
C32   O10   A    
C26   C28   A    
Cu4   O16   S    
C71   C72   S    
C70   H37   S    
C23   O17   S    
C39   C43   A    
O18   H26   S    
C29   N1    A    
C70   H36   S    
Cu3   O13   S    
C3    C64   S    
C25   C27   A    
C69   C70   S    
C29   C35   A    
C59   C63   A    
Cu4   O7    S    
C3    O3    A    
C60   C64   A    
C6    C62   A    
C21   C23   A    
C50   C54   A    
Cu1   N3    S    
O17   H25   S    
C6    C12   A    
C35   N3    A    
Cu2   O12   S    
C75   C76   S    
C52   C56   A    
C77   H62   S    
C49   C53   A    
C27   N1    A    
Cu3   O6    S    
C34   O12   A    
C56   C58   A    
C68   H22   S    
C51   C55   A    
C23   C25   A    
C30   N2    A    
C78   H60   S    
C70   H35   S    
C47   C73   S    
C21   C65   S    
C38   C42   A    
C32   O14   A    
Cu1   O9    S    
C74   H45   S    
C8    C10   A    
C79   H67   S    
C40   C60   A    
C30   C79   S    
C9    H7    S    
C33   O11   A    
C19   H13   S    
C67   H23   S    
C66   H17   S    
C37   C57   A    
O24   H32   S    
C15   C55   A    
