data_mof_unit_33584.cif
_audit_creation_date              2012-12-11T15:54:02-0500
_audit_creation_method            fapswitch 2.2
_symmetry_space_group_name_H-M    P1
_symmetry_Int_Tables_number       1
_space_group_crystal_system       triclinic
_cell_length_a                    10.648781
_cell_length_b                    10.696445
_cell_length_c                    17.014787
_cell_angle_alpha                 80.748653
_cell_angle_beta                  99.316582
_cell_angle_gamma                 118.751878
_cell_volume                      1668.9858243

loop_
_atom_site_label
_atom_site_type_symbol
_atom_type_description
_atom_site_fract_x
_atom_site_fract_y
_atom_site_fract_z
_atom_type_partial_charge
C1    C     C_R   0.384426 0.284054 0.632074 0.558663
C2    C     C_1   0.333485 0.186033 0.781524 -0.063653
C3    C     C_1   0.335828 0.663262 0.277655 -0.049531
C4    C     C_R   0.369400 0.654786 0.586114 0.537062
C5    C     C_1   0.323608 0.672597 0.206856 -0.049411
C6    C     C_R   0.812208 0.660276 0.152785 0.016997
C7    C     C_R   0.781377 0.531686 0.200940 0.027153
C8    C     C_R   0.773512 0.524471 0.280798 0.042667
C9    C     C_R   0.800378 0.763625 0.266166 -0.158696
C10   C     C_R   0.807957 0.771918 0.184243 -0.154926
C11   C     C_3   0.852749 0.436621 0.215605 -0.265513
C12   C     C_R   0.392256 0.830141 0.674285 -0.137868
C13   C     C_3   0.842207 0.429262 0.303802 -0.272044
C14   C     C_R   0.795957 0.643326 0.315938 0.016716
C15   C     C_R   0.339722 0.185830 0.154497 0.018700
C16   C     C_R   0.781367 0.621177 0.626154 0.545161
C17   C     C_R   0.267558 0.251352 0.177950 0.017209
C18   C     C_R   0.272813 0.263918 0.257235 0.035806
C19   C     C_R   0.443012 0.171599 0.291365 -0.159304
C20   C     C_R   0.440764 0.161453 0.210514 -0.155703
C21   C     C_3   0.114818 0.226615 0.162424 -0.273158
C22   C     C_3   0.122113 0.241825 0.250263 -0.267024
C23   C     C_R   0.375561 0.852194 0.750010 -0.152548
C24   C     C_R   0.347136 0.209485 0.315539 0.021968
C25   C     C_R   0.947535 0.724810 0.851655 0.539115
C26   C     C_R   0.281862 0.750749 0.882784 0.552001
C27   C     C_R   0.286532 0.118317 0.858348 0.534586
C28   C     C_R   0.354175 0.232883 0.397124 0.555439
C29   C     C_R   0.883902 0.689838 0.082287 0.563171
C30   C     C_R   0.313325 0.700340 0.123719 0.563362
C31   C     C_R   0.288334 0.112252 0.083206 0.555105
C32   C     C_R   0.365089 0.654021 0.360750 0.549063
C33   C     C_R   0.767991 0.620260 0.398148 0.546332
C34   C     C_3   0.131713 0.458120 0.794423 -0.226715
C35   C     C_R   0.280167 0.737140 0.798576 -0.003215
C36   C     C_R   0.181998 0.611662 0.763221 -0.002802
C37   C     C_R   0.198317 0.589307 0.688462 0.012037
C38   C     C_3   0.008765 0.336590 0.664784 -0.269629
C39   C     C_3   0.955197 0.179116 0.696014 -0.421289
C40   C     C_3   0.150108 0.433059 0.712271 -0.112324
C41   C     C_R   0.314212 0.692388 0.647009 0.005756
C42   C     C_1   0.850860 0.669479 0.702593 -0.040555
C43   C     C_1   0.897901 0.703696 0.769314 -0.042136
C44   C     C_1   0.364717 0.232774 0.714342 -0.064472
Cr1   Cr    Cr6+3 0.608440 0.389080 0.519680 1.005430
Cr2   Cr    Cr6+3 0.288640 0.400090 0.490760 0.996414
Cr3   Cr    Cr6+3 0.602940 0.710800 0.489510 1.013210
Cr4   Cr    Cr6+3 0.052530 0.947560 0.964210 1.007873
Cr5   Cr    Cr6+3 0.059970 0.626800 0.992920 1.000011
Cr6   Cr    Cr6+3 0.373320 0.938440 0.995370 1.011364
H1    H     H_    0.476978 0.916432 0.641500 0.144840
H2    H     H_    0.049371 0.141123 0.284293 0.137936
H3    H     H_    0.445499 0.955082 0.772947 0.141600
H4    H     H_    0.018484 0.405918 0.809408 0.148348
H5    H     H_    0.208566 0.442727 0.842561 0.148324
H6    H     H_    0.237727 0.404547 0.713262 0.153745
H7    H     H_    0.803297 0.852521 0.290650 0.133109
H8    H     H_    0.825081 0.870532 0.147762 0.130935
H9    H     H_    0.966675 0.491442 0.201618 0.162940
H10   H     H_    0.036481 0.144673 0.691018 0.182613
H11   H     H_    0.933258 0.161553 0.759569 0.166100
H12   H     H_    0.784230 0.332045 0.190360 0.134455
H13   H     H_    0.853967 0.112140 0.660094 0.137896
H14   H     H_    0.924128 0.367618 0.668142 0.175777
H15   H     H_    0.027212 0.349860 0.600865 0.171463
H16   H     H_    0.766919 0.320947 0.329453 0.142441
H17   H     H_    0.948687 0.481963 0.339119 0.137981
H18   H     H_    0.513154 0.142557 0.334878 0.126473
H19   H     H_    0.504874 0.117876 0.193953 0.139910
H20   H     H_    0.035671 0.117010 0.146770 0.157146
H21   H     H_    0.105005 0.315038 0.122296 0.147523
H22   H     H_    0.117622 0.339469 0.260748 0.147481
O1    O     O_R   0.754020 0.497590 0.609930 -0.527051
O2    O     O_R   0.406180 0.826930 0.920660 -0.503416
O3    O     O_R   0.358620 0.062870 0.901950 -0.515730
O4    O     O_R   0.481420 0.271390 0.600630 -0.488925
O5    O     O_R   0.163910 0.085460 0.050210 -0.521441
O6    O     O_R   0.935200 0.815170 0.045770 -0.497622
O7    O     O_R   0.916120 0.596690 0.069430 -0.519997
O8    O     O_R   0.192310 0.631200 0.086170 -0.508235
O9    O     O_R   0.406770 0.819480 0.096420 -0.505483
O10   O     O_R   0.359170 0.055960 0.064880 -0.505368
O11   O     O_3   0.161940 0.837600 0.984160 -0.285202
O12   O     O_R   0.295080 0.533620 0.397890 -0.507604
O13   O     O_R   0.263810 0.254550 0.589590 -0.517482
O14   O     O_R   0.300820 0.531200 0.560890 -0.521312
O15   O     O_R   0.491480 0.744020 0.564270 -0.518832
O16   O     O_R   0.726290 0.693800 0.583010 -0.493606
O17   O     O_R   0.747830 0.500190 0.434090 -0.519737
O18   O     O_R   0.475680 0.273800 0.437630 -0.499769
O19   O     O_R   0.257620 0.257160 0.413750 -0.515074
O20   O     O_R   0.485280 0.746620 0.388440 -0.511644
O21   O     O_R   0.720550 0.696220 0.420010 -0.503499
O22   O     O_3   0.500010 0.499990 0.499980 -0.260002
O23   O     O_R   0.163320 0.092900 0.874450 -0.521531
O24   O     O_R   0.934650 0.822080 0.882840 -0.484454
O25   O     O_R   0.915520 0.604140 0.893670 -0.510046
O26   O     O_R   0.191760 0.638110 0.923230 -0.511830

loop_
_geom_bond_atom_site_label_1
_geom_bond_atom_site_label_2
_ccdc_geom_bond_type
C8    C13   S    
Cr4   O23   S    
Cr3   O20   S    
C27   O23   A    
C19   C20   A    
C11   H12   S    
C25   C43   S    
C14   C33   S    
C7    C8    A    
C4    O15   A    
C7    C11   S    
C12   C23   A    
C31   O10   A    
C21   H21   S    
Cr1   O4    S    
C34   C40   S    
C36   C37   A    
C10   H8    S    
C37   C40   S    
Cr6   O2    S    
C38   C39   S    
C11   H9    S    
C4    O14   A    
C4    C41   S    
Cr1   O1    S    
Cr4   O6    S    
Cr5   O26   S    
C29   O6    A    
C35   C36   A    
C2    C44   T    
C40   H6    S    
C29   O7    A    
C31   O5    A    
C2    C27   S    
Cr1   O17   S    
C9    C10   A    
C9    H7    S    
Cr2   O13   S    
C30   O8    A    
C34   H5    S    
C21   C22   S    
C27   O3    A    
Cr1   O22   S    
C22   H22   S    
Cr6   O11   S    
C23   H3    S    
C38   H14   S    
C13   H16   S    
C1    O13   A    
C15   C20   A    
C32   O12   A    
C16   O1    A    
Cr2   O19   S    
C17   C21   S    
Cr5   O7    S    
Cr3   O15   S    
Cr4   O5    S    
C9    C14   A    
C12   C41   A    
C33   O17   A    
C1    C44   S    
Cr2   O22   S    
C38   H15   S    
C17   C18   A    
Cr3   O21   S    
C19   H18   S    
Cr1   O18   S    
C26   O26   A    
Cr2   O12   S    
C25   O25   A    
C34   H4    S    
C23   C35   A    
C18   C24   A    
C20   H19   S    
C42   C43   T    
C16   C42   S    
C12   H1    S    
Cr6   O10   S    
C22   H2    S    
C5    C30   S    
C13   H17   S    
C15   C17   A    
C8    C14   A    
Cr4   O24   S    
C18   C22   S    
C1    O4    A    
C24   C28   S    
C3    C5    T    
C33   O21   A    
C6    C10   A    
Cr5   O8    S    
C15   C31   S    
C6    C7    A    
C39   H11   S    
C39   H13   S    
Cr4   O11   S    
C21   H20   S    
Cr3   O16   S    
Cr5   O11   S    
C30   O9    A    
C19   C24   A    
Cr6   O3    S    
C38   C40   S    
C11   C13   S    
C32   O20   A    
C39   H10   S    
C26   O2    A    
Cr3   O22   S    
C28   O19   A    
C34   C36   S    
C37   C41   A    
C3    C32   S    
Cr5   O25   S    
C26   C35   S    
C6    C29   S    
C25   O24   A    
C16   O16   A    
C28   O18   A    
Cr6   O9    S    
Cr2   O14   S    
