data_mof_unit_28609.cif
_audit_creation_date              2012-12-10T17:35:37-0500
_audit_creation_method            fapswitch 2.2
_symmetry_space_group_name_H-M    P1
_symmetry_Int_Tables_number       1
_space_group_crystal_system       triclinic
_cell_length_a                    10.724587
_cell_length_b                    12.330564
_cell_length_c                    13.211283
_cell_angle_alpha                 116.599658
_cell_angle_beta                  77.485182
_cell_angle_gamma                 101.588148
_cell_volume                      1514.20055775

loop_
_atom_site_label
_atom_site_type_symbol
_atom_type_description
_atom_site_fract_x
_atom_site_fract_y
_atom_site_fract_z
_atom_type_partial_charge
C1    C     C_R   0.514787 0.854717 0.286550 0.777336
C2    C     C_3   0.122223 0.003573 0.504614 0.116624
C3    C     C_3   0.035584 0.925831 0.565000 -0.373793
C4    C     C_3   0.095907 0.942687 0.378721 -0.437307
C5    C     C_R   0.350718 0.274057 0.025794 -0.200723
C6    C     C_R   0.463018 0.227639 0.834734 -0.048918
C7    C     C_R   0.636122 0.811356 0.095033 -0.253871
C8    C     C_R   0.695286 0.727341 0.994000 -0.130251
C9    C     C_R   0.657806 0.602312 0.958855 0.159047
C10   C     C_R   0.544826 0.560295 0.018830 0.030235
C11   C     C_R   0.486707 0.647220 0.123883 0.057119
C12   C     C_R   0.739995 0.999510 0.499364 0.752393
C13   C     C_R   0.489077 0.435961 0.981706 0.075136
C14   C     C_R   0.396142 0.398035 0.057565 0.175287
C15   C     C_R   0.341792 0.484814 0.159931 -0.238748
C16   C     C_R   0.379528 0.607708 0.188014 -0.188000
C17   C     C_R   0.512551 0.350429 0.868268 -0.277455
C18   C     C_R   0.386990 0.188550 0.915328 -0.195820
C19   C     C_R   0.539089 0.771661 0.164714 -0.100603
C20   C     C_R   0.705825 0.347782 0.328923 -0.305811
C21   C     C_R   0.324793 0.756709 0.644979 0.383788
C22   C     C_R   0.287848 0.658116 0.674503 -0.306374
C23   C     C_R   0.481687 0.145069 0.713285 0.801689
C24   C     C_R   0.353723 0.556220 0.619464 -0.228549
C25   C     C_R   0.458780 0.550517 0.533218 -0.002664
C26   C     C_R   0.493855 0.653178 0.504830 0.244961
C27   C     C_R   0.530085 0.446798 0.474328 -0.024570
C28   C     C_R   0.634369 0.447416 0.387981 0.177929
C29   C     C_R   0.667086 0.547476 0.361178 -0.287975
C30   C     C_R   0.598857 0.647880 0.418340 -0.181275
C31   C     C_R   0.502985 0.341690 0.497229 0.014842
C32   C     C_R   0.674209 0.247610 0.355501 0.065922
C33   C     C_R   0.259953 0.002628 0.503873 0.779055
C34   C     C_3   0.940413 0.133872 0.562006 -0.383752
C35   C     C_3   0.085810 0.137499 0.559206 0.022119
C36   C     C_3   0.893259 0.928748 0.566500 -0.423502
C37   C     C_3   0.950833 0.936834 0.373782 0.000862
C38   C     C_3   0.878495 0.000151 0.498987 0.073256
Cu1   Cu    Cu3+1 0.529690 0.098270 0.475420 0.916521
Cu2   Cu    Cu3+1 0.470310 0.901730 0.524580 0.935747
H1    H     H_    0.890533 0.174162 0.651512 0.171129
H2    H     H_    0.124234 0.848437 0.334759 0.145794
H3    H     H_    0.846223 0.833012 0.528122 0.180197
H4    H     H_    0.056547 0.829156 0.518189 0.171615
H5    H     H_    0.347787 0.093944 0.891012 0.151178
H6    H     H_    0.264303 0.457909 0.215117 0.138884
H7    H     H_    0.282938 0.244094 0.084699 0.131179
H8    H     H_    0.561655 0.379805 0.803180 0.163687
H9    H     H_    0.676373 0.906477 0.124458 0.160320
H10   H     H_    0.779195 0.759352 0.947740 0.149812
H11   H     H_    0.926824 0.191785 0.521382 0.152985
H12   H     H_    0.324001 0.671286 0.261624 0.161035
H13   H     H_    0.728993 0.170514 0.310049 0.113247
H14   H     H_    0.747003 0.548533 0.295203 0.147444
H15   H     H_    0.785756 0.347446 0.262627 0.133784
H16   H     H_    0.425861 0.333456 0.561549 0.112648
H17   H     H_    0.320003 0.483474 0.646363 0.138752
H18   H     H_    0.207233 0.660746 0.740827 0.148487
H19   H     H_    0.632598 0.719457 0.391499 0.203819
H20   H     H_    0.134716 0.177962 0.498219 0.120080
H21   H     H_    0.845560 0.972129 0.656577 0.177232
H22   H     H_    0.054543 0.956273 0.653090 0.181233
H23   H     H_    0.909711 0.838788 0.338882 0.144038
H24   H     H_    0.157798 0.994836 0.332134 0.175890
N1    N     N_R   0.574690 0.246280 0.438200 -0.178406
N2    N     N_R   0.426100 0.754320 0.561190 -0.199967
O1    O     O_R   0.537340 0.972510 0.318130 -0.581976
O2    O     O_R   0.487200 0.806530 0.359650 -0.600101
O3    O     O_R   0.707380 0.082980 0.479220 -0.593621
O4    O     O_R   0.657240 0.917000 0.520740 -0.605202
O5    O     O_R   0.512800 0.193470 0.640350 -0.593713
O6    O     O_R   0.462660 0.027490 0.681870 -0.554942
O7    O     O_R   0.342760 0.083000 0.479260 -0.601465
O8    O     O_R   0.292620 0.917020 0.520780 -0.566396
N3    N     N_3   0.749512 0.524177 0.876151 -0.625534
H25   H     H_    0.749351 0.447107 0.890008 0.226883
H26   H     H_    0.733308 0.501635 0.793472 0.213993
N4    N     N_3   0.254980 0.860251 0.703514 -0.538762
H27   H     H_    0.158759 0.829714 0.691735 0.177135
H28   H     H_    0.258403 0.893302 0.790911 0.177579
C39   C     C_3   0.134194 0.230406 0.674034 -0.408982
C40   C     C_3   0.097333 0.194019 0.773942 -0.821724
H29   H     H_    0.994558 0.156454 0.782208 0.246968
H30   H     H_    0.160191 0.127527 0.763983 0.242049
H31   H     H_    0.113556 0.275997 0.854659 0.242499
H32   H     H_    0.240505 0.250261 0.660175 0.204253
H33   H     H_    0.096487 0.318437 0.700805 0.199966
C41   C     C_3   0.932539 0.987228 0.289870 -0.401767
C42   C     C_3   0.985174 0.908692 0.165663 -0.876324
H34   H     H_    0.090925 0.909812 0.154069 0.255593
H35   H     H_    0.938718 0.812915 0.139050 0.259585
H36   H     H_    0.963647 0.945036 0.108923 0.236819
H37   H     H_    0.828909 0.986691 0.290924 0.213965
H38   H     H_    0.979533 0.082712 0.315023 0.207214

loop_
_geom_bond_atom_site_label_1
_geom_bond_atom_site_label_2
_ccdc_geom_bond_type
C2    C35   S    
C12   O3    A    
C21   N2    A    
C37   C41   S    
C17   H8    S    
C39   C40   S    
C35   C39   S    
C7    C8    A    
C5    H7    S    
C11   C19   A    
C34   H11   S    
C29   C30   A    
Cu2   O4    S    
C28   C29   A    
N4    H28   S    
C29   H14   S    
C15   C16   A    
C1    O2    A    
C34   C35   S    
C8    C9    A    
C21   N4    S    
C31   H16   S    
C42   H35   S    
C9    C10   A    
C39   H32   S    
Cu2   N2    S    
C21   C22   A    
Cu1   N1    S    
C34   H1    S    
C20   H15   S    
C37   H23   S    
C6    C18   A    
C41   H38   S    
C3    H4    S    
C1    C19   S    
C27   C31   A    
C26   N2    A    
C23   O5    A    
C24   C25   A    
C7    H9    S    
Cu1   Cu2   S    
N4    H27   S    
C24   H17   S    
C5    C18   A    
C20   C28   A    
C25   C26   A    
C35   H20   S    
C2    C4    S    
N3    H25   S    
C37   C38   S    
C11   C16   A    
C30   H19   S    
Cu1   O3    S    
C4    C37   S    
C42   H36   S    
N3    H26   S    
C5    C14   A    
C39   H33   S    
C2    C33   S    
C33   O7    A    
C26   C30   A    
C40   H30   S    
C22   C24   A    
C36   H21   S    
C18   H5    S    
C8    H10   S    
C32   H13   S    
C20   C32   A    
C3    H22   S    
C31   N1    A    
C6    C17   A    
C12   O4    A    
C41   H37   S    
Cu2   O6    S    
C34   C38   S    
Cu1   O1    S    
C23   O6    A    
C16   H12   S    
C10   C13   A    
C22   H18   S    
C25   C27   A    
C40   H31   S    
C4    H24   S    
C7    C19   A    
C13   C17   A    
C36   C38   S    
C2    C3    S    
C4    H2    S    
C3    C36   S    
C6    C23   S    
C1    O1    A    
Cu2   O8    S    
Cu1   O7    S    
C12   C38   S    
C10   C11   A    
C33   O8    A    
C41   C42   S    
C40   H29   S    
Cu2   O2    S    
C27   C28   A    
Cu1   O5    S    
C14   C15   A    
C36   H3    S    
C9    N3    S    
C15   H6    S    
C42   H34   S    
C13   C14   A    
C32   N1    A    
