data_mof_unit_53069.cif
_audit_creation_date              2012-12-10T19:07:56-0500
_audit_creation_method            fapswitch 2.2
_symmetry_space_group_name_H-M    P1
_symmetry_Int_Tables_number       1
_space_group_crystal_system       triclinic
_cell_length_a                    13.014754
_cell_length_b                    13.588295
_cell_length_c                    23.299304
_cell_angle_alpha                 89.573923
_cell_angle_beta                  92.505788
_cell_angle_gamma                 85.387724
_cell_volume                      4102.92401731

loop_
_atom_site_label
_atom_site_type_symbol
_atom_type_description
_atom_site_fract_x
_atom_site_fract_y
_atom_site_fract_z
_atom_type_partial_charge
C1    C     C_R   0.480826 0.685258 0.499315 0.874422
C2    C     C_R   0.519108 0.314765 0.500919 0.868862
C3    C     C_R   0.566527 0.469550 0.769072 0.435451
C4    C     C_R   0.573302 0.519577 0.234846 0.434893
C5    C     C_R   0.575517 0.466800 0.709461 0.333458
C6    C     C_R   0.575371 0.530480 0.294605 0.336398
C7    C     C_R   0.493311 0.507798 0.673257 -0.435632
C8    C     C_R   0.503045 0.484844 0.326952 -0.429285
C9    C     C_R   0.402447 0.551112 0.696978 0.315783
C10   C     C_R   0.429959 0.427535 0.299306 0.305244
C11   C     C_R   0.388767 0.540888 0.755539 0.387929
C12   C     C_R   0.420287 0.427842 0.239613 0.358245
C13   C     C_R   0.471582 0.502145 0.791756 -0.078393
C14   C     C_R   0.492476 0.472700 0.207450 -0.063707
C15   C     C_1   0.534630 0.211629 0.503924 -0.189201
C16   C     C_1   0.464742 0.788464 0.499314 -0.191130
C17   C     C_2   0.544259 0.019045 0.509561 0.439508
C18   C     C_2   0.452869 0.981299 0.500357 0.433618
C19   C     C_1   0.454892 0.876021 0.499602 -0.066959
C20   C     C_1   0.543354 0.124156 0.506822 -0.069272
C21   C     C_2   0.034318 0.461077 0.494049 0.334299
C22   C     C_2   0.965333 0.539131 0.504044 0.337757
C23   C     C_R   0.498653 0.501770 0.610936 0.973004
C24   C     C_R   0.501129 0.497359 0.389080 0.972094
C25   C     C_1   0.853818 0.524068 0.507327 0.084107
C26   C     C_1   0.146089 0.475878 0.491985 0.071289
C27   C     C_R   0.487365 0.389322 0.116782 0.640521
C28   C     C_R   0.440883 0.580986 0.882137 0.629509
C29   C     C_R   0.447639 0.563908 0.120019 0.606416
C30   C     C_R   0.460453 0.404871 0.877755 0.605999
C31   C     C_R   0.423237 0.568097 0.060750 -0.210948
C32   C     C_R   0.447377 0.396704 0.937028 -0.202392
C33   C     C_R   0.437038 0.480112 0.029131 -0.140779
C34   C     C_R   0.432255 0.484421 0.968793 -0.146670
C35   C     C_R   0.462612 0.388682 0.057574 -0.205640
C36   C     C_R   0.419913 0.577169 0.940538 -0.210152
C37   C     C_R   0.387423 0.657494 0.031865 0.429536
C38   C     C_R   0.452461 0.304186 0.965821 0.413579
C39   C     C_R   0.389755 0.662915 0.971871 0.477374
C40   C     C_R   0.463479 0.300031 0.025926 0.449302
N1    N     N_R   0.478583 0.475717 0.146306 -0.305384
N2    N     N_R   0.458416 0.495815 0.852187 -0.311569
N3    N     N_1   0.234540 0.484780 0.490870 -0.085310
N4    N     N_1   0.765460 0.515220 0.509130 -0.082715
O1    O     O_R   0.402510 0.634760 0.496660 -0.621827
O2    O     O_R   0.597490 0.365240 0.503340 -0.610436
O3    O     O_R   0.572960 0.644530 0.502520 -0.602006
O4    O     O_R   0.427040 0.355470 0.497480 -0.611656
O5    O     O_R   0.414760 0.495140 0.580910 -0.584421
O6    O     O_R   0.585240 0.504860 0.419090 -0.574542
O7    O     O_R   0.585200 0.504910 0.586770 -0.570788
O8    O     O_R   0.414800 0.495090 0.413230 -0.586028
O9    O     O_2   0.521912 0.305136 0.144917 -0.517232
O10   O     O_2   0.447873 0.668585 0.855572 -0.530685
O11   O     O_2   0.442664 0.647131 0.151346 -0.535815
O12   O     O_2   0.478381 0.323307 0.845864 -0.521212
Zn1   Zn    Zn3+2 0.386190 0.493470 0.496090 0.992001
Zn2   Zn    Zn3+2 0.613810 0.506530 0.503910 1.007947
O13   O     O_3   0.358133 0.743078 0.061146 -0.569769
C41   C     C_3   0.263846 0.733805 0.088470 0.161470
H1    H     H_    0.267276 0.776019 0.129079 0.189502
H2    H     H_    0.250449 0.656504 0.100780 0.095162
C42   C     C_3   0.172117 0.777831 0.050838 -0.411491
H3    H     H_    0.187890 0.852469 0.035355 0.248542
H4    H     H_    0.160634 0.729404 0.013376 0.205579
C43   C     C_3   0.073118 0.786068 0.083853 -0.934770
H5    H     H_    0.055198 0.712120 0.099297 0.261517
H6    H     H_    0.007984 0.817127 0.055141 0.276748
H7    H     H_    0.081161 0.835704 0.121170 0.266439
O14   O     O_3   0.454585 0.216267 0.936142 -0.558107
C44   C     C_3   0.352339 0.197747 0.918839 0.104675
H8    H     H_    0.323248 0.247689 0.882650 0.152858
H9    H     H_    0.298379 0.209162 0.954470 0.083789
C45   C     C_3   0.351615 0.090876 0.898948 -0.252151
H10   H     H_    0.403561 0.079074 0.862569 0.244565
H11   H     H_    0.380883 0.040342 0.934806 0.246135
C46   C     C_3   0.243275 0.065945 0.879659 -0.984479
H12   H     H_    0.190609 0.074693 0.915854 0.263941
H13   H     H_    0.245840 0.988185 0.865111 0.273169
H14   H     H_    0.212772 0.114940 0.843403 0.266109
O15   O     O_3   0.367537 0.754278 0.945268 -0.539112
C47   C     C_3   0.270412 0.758139 0.915008 -0.215566
H15   H     H_    0.220459 0.820793 0.931302 0.154246
H16   H     H_    0.228541 0.689840 0.918033 0.097543
H17   H     H_    0.280716 0.773909 0.868930 0.222292
O16   O     O_3   0.483866 0.208648 0.052563 -0.531181
C48   C     C_3   0.392108 0.177559 0.074505 -0.171925
H18   H     H_    0.413309 0.123623 0.109860 0.208091
H19   H     H_    0.348501 0.138738 0.040941 0.135703
H20   H     H_    0.341553 0.238661 0.092689 0.126498
O17   O     O_3   0.647910 0.432425 0.805053 -0.551636
C49   C     C_3   0.709217 0.510299 0.819375 -0.235597
H21   H     H_    0.664836 0.569514 0.842839 0.165979
H22   H     H_    0.742203 0.541427 0.780533 0.174962
H23   H     H_    0.774651 0.480901 0.848308 0.182794
O18   O     O_3   0.644350 0.563340 0.202788 -0.551201
C50   C     C_3   0.727917 0.493020 0.194626 -0.239622
H24   H     H_    0.702954 0.428580 0.169970 0.167271
H25   H     H_    0.766706 0.468091 0.236366 0.170102
H26   H     H_    0.785610 0.527903 0.169227 0.187573
O19   O     O_3   0.666117 0.426955 0.686995 -0.563038
C51   C     C_3   0.659432 0.324572 0.680261 -0.189631
H27   H     H_    0.731379 0.292736 0.661413 0.174384
H28   H     H_    0.593930 0.308970 0.650242 0.123325
H29   H     H_    0.652476 0.286969 0.722352 0.192765
O20   O     O_3   0.650231 0.583188 0.321211 -0.567627
C52   C     C_3   0.612321 0.683235 0.323104 -0.197570
H30   H     H_    0.671731 0.725351 0.345085 0.178282
H31   H     H_    0.541380 0.692970 0.348170 0.123404
H32   H     H_    0.597256 0.715225 0.279138 0.195798
O21   O     O_3   0.322252 0.596695 0.662827 -0.601626
C53   C     C_3   0.347385 0.691584 0.645317 0.144364
H33   H     H_    0.303970 0.709970 0.603999 0.172435
H34   H     H_    0.430683 0.694981 0.636656 0.097631
C54   C     C_3   0.314478 0.769340 0.689618 -0.339363
H35   H     H_    0.231536 0.765106 0.698059 0.241274
H36   H     H_    0.360346 0.754649 0.730565 0.254583
C55   C     C_3   0.331044 0.873151 0.668350 -0.955663
H37   H     H_    0.413711 0.879152 0.659980 0.272955
H38   H     H_    0.307636 0.927734 0.701520 0.275174
H39   H     H_    0.283726 0.890866 0.628224 0.260252
O22   O     O_3   0.362079 0.376379 0.329953 -0.606084
C56   C     C_3   0.413558 0.288243 0.353252 0.143977
H40   H     H_    0.374252 0.269792 0.392772 0.180602
H41   H     H_    0.495827 0.295702 0.366864 0.093416
C57   C     C_3   0.406658 0.203131 0.310867 -0.336296
H42   H     H_    0.325299 0.199302 0.295106 0.242468
H43   H     H_    0.453898 0.216411 0.273409 0.252265
C58   C     C_3   0.445640 0.104619 0.339081 -0.959514
H44   H     H_    0.526888 0.106856 0.355432 0.267851
H45   H     H_    0.441937 0.044730 0.307082 0.272476
H46   H     H_    0.396892 0.087803 0.375278 0.287982
O23   O     O_3   0.296605 0.577180 0.777935 -0.611573
C59   C     C_3   0.235514 0.498494 0.789941 0.064990
H47   H     H_    0.281084 0.426858 0.800040 0.125119
H48   H     H_    0.192504 0.518441 0.828904 0.149760
C60   C     C_3   0.157850 0.485183 0.739876 -0.297658
H49   H     H_    0.113549 0.556961 0.729524 0.241225
H50   H     H_    0.199729 0.460305 0.701366 0.246230
C61   C     C_3   0.082873 0.408895 0.754464 -0.964076
H51   H     H_    0.125557 0.336209 0.764354 0.263822
H52   H     H_    0.028235 0.400392 0.717211 0.281383
H53   H     H_    0.037984 0.433112 0.792040 0.264307
O24   O     O_3   0.342884 0.379495 0.212172 -0.611896
C62   C     C_3   0.253438 0.445347 0.205917 0.104947
H54   H     H_    0.270391 0.516286 0.185322 0.121020
H55   H     H_    0.220864 0.460865 0.248649 0.175231
C63   C     C_3   0.173238 0.397924 0.167735 -0.338467
H56   H     H_    0.205575 0.381556 0.125135 0.211748
H57   H     H_    0.154694 0.327330 0.187733 0.230260
C64   C     C_3   0.074445 0.465858 0.159219 -0.978923
H58   H     H_    0.040004 0.482374 0.201218 0.267742
H59   H     H_    0.017724 0.429190 0.131491 0.269046
H60   H     H_    0.091069 0.535998 0.138075 0.260035
O25   O     O_3   0.362844 0.044542 0.491565 -0.636078
C65   C     C_3   0.273544 0.993429 0.482151 -0.338450
H61   H     H_    0.260356 0.945810 0.519731 0.172416
H62   H     H_    0.278205 0.949495 0.442121 0.174677
H63   H     H_    0.205873 0.048245 0.476693 0.189804
O26   O     O_3   0.634122 0.955928 0.519097 -0.631567
C66   C     C_3   0.720764 0.006752 0.535851 -0.325782
H64   H     H_    0.706467 0.050710 0.575233 0.170300
H65   H     H_    0.743101 0.054340 0.500174 0.175982
H66   H     H_    0.786716 0.951708 0.546223 0.187665
O27   O     O_3   0.003904 0.631625 0.511922 -0.668667
C67   C     C_3   0.928350 0.712286 0.504443 0.087248
H67   H     H_    0.963036 0.778582 0.521837 0.165442
H68   H     H_    0.859290 0.703923 0.530011 0.145956
C68   C     C_3   0.899340 0.731778 0.440516 -0.386023
H69   H     H_    0.970235 0.743338 0.417255 0.232053
H70   H     H_    0.863750 0.667247 0.421469 0.228414
C69   C     C_3   0.823357 0.822745 0.432147 -0.905121
H71   H     H_    0.750732 0.811620 0.453799 0.299870
H72   H     H_    0.804956 0.835625 0.385593 0.257320
H73   H     H_    0.857586 0.888991 0.449868 0.255922
O28   O     O_3   0.995414 0.368404 0.487633 -0.671218
C70   C     C_3   0.067404 0.293148 0.468800 0.084708
H74   H     H_    0.035768 0.221547 0.478329 0.170034
H75   H     H_    0.143119 0.290812 0.493091 0.143517
C71   C     C_3   0.079411 0.300498 0.403691 -0.358789
H76   H     H_    0.001843 0.309010 0.381447 0.236278
H77   H     H_    0.120975 0.366157 0.393280 0.224795
C72   C     C_3   0.138941 0.208502 0.381188 -0.928854
H78   H     H_    0.215727 0.196547 0.403881 0.277726
H79   H     H_    0.149756 0.217759 0.334521 0.268896
H80   H     H_    0.095438 0.142539 0.387655 0.252600

loop_
_geom_bond_atom_site_label_1
_geom_bond_atom_site_label_2
_ccdc_geom_bond_type
C9    O21   S    
C43   H6    S    
C21   C26   S    
C42   H4    S    
C24   O8    A    
O27   C67   S    
C52   H31   S    
C68   H69   S    
O21   C53   S    
C65   H63   S    
C61   H53   S    
C48   H18   S    
C62   C63   S    
C59   C60   S    
C53   H34   S    
O15   C47   S    
O4    Zn1   S    
C46   H12   S    
C2    O2    A    
C60   H50   S    
O1    Zn1   S    
O19   C51   S    
C45   H11   S    
C41   C42   S    
C41   H2    S    
C65   H61   S    
C38   C40   A    
C61   H52   S    
C72   H79   S    
C33   C35   A    
C56   H41   S    
C43   H7    S    
O20   C52   S    
C54   H35   S    
C50   H24   S    
C17   C20   S    
O5    Zn1   S    
C51   H29   S    
C3    O17   S    
C18   C19   S    
C64   H60   S    
C40   O16   S    
C17   O26   S    
C55   H37   S    
C53   H33   S    
C62   H55   S    
C4    O18   S    
C22   O27   S    
N4    Zn2   S    
C54   H36   S    
C45   C46   S    
C17   C18   D    
C64   H58   S    
C63   C64   S    
O14   C44   S    
C32   C38   A    
C11   O23   S    
C3    C13   A    
C69   H73   S    
C58   H46   S    
C70   C71   S    
C43   H5    S    
C42   C43   S    
O13   C41   S    
C21   C22   D    
O2    Zn2   S    
C67   H68   S    
C68   H70   S    
C25   N4    T    
C13   N2    S    
C66   H65   S    
C69   H72   S    
C26   N3    T    
C62   H54   S    
C46   H13   S    
C24   O6    A    
C15   C20   T    
C37   C39   A    
C60   C61   S    
C5    O19   S    
C45   H10   S    
O6    Zn2   S    
C56   H40   S    
C63   H56   S    
C39   O15   S    
C4    C6    A    
C50   H25   S    
C72   H80   S    
O17   C49   S    
C5    C7    A    
C28   O10   S    
O16   C48   S    
C1    O3    A    
C56   C57   S    
C59   H48   S    
C29   O11   S    
C57   C58   S    
C27   C35   A    
C30   O12   S    
C22   C25   S    
C49   H23   S    
C31   C37   A    
C41   H1    S    
C55   H39   S    
C32   C34   A    
C72   H78   S    
C27   N1    A    
C23   O7    A    
C52   H30   S    
C54   C55   S    
O18   C50   S    
C49   H22   S    
C33   C34   A    
C6    O20   S    
C1    C16   S    
C61   H51   S    
C51   H28   S    
C2    C15   S    
C9    C11   A    
C37   O13   S    
C10   C12   A    
C14   N1    S    
C38   O14   S    
C12   C14   A    
C70   H74   S    
C47   H16   S    
C48   H19   S    
C67   H67   S    
C52   H32   S    
O7    Zn2   S    
C3    C5    A    
C50   H26   S    
C69   H71   S    
C66   H66   S    
C44   H9    S    
C58   H44   S    
C46   H14   S    
C7    C9    A    
O28   C70   S    
C31   C33   A    
C57   H43   S    
C71   H77   S    
C29   N1    A    
C18   O25   S    
C36   C39   A    
C63   H57   S    
O24   C62   S    
C10   O22   S    
C44   C45   S    
C6    C8    A    
C71   C72   S    
C59   H47   S    
C47   H17   S    
C60   H49   S    
C2    O4    A    
O26   C66   S    
C65   H62   S    
C35   C40   A    
C44   H8    S    
C29   C31   A    
C66   H64   S    
O3    Zn2   S    
C30   C32   A    
C11   C13   A    
C1    O1    A    
O23   C59   S    
C57   H42   S    
C7    C23   S    
C28   N2    A    
C49   H21   S    
C8    C24   S    
C70   H75   S    
C34   C36   A    
C64   H59   S    
C4    C14   A    
C51   H27   S    
C21   O28   S    
C55   H38   S    
C23   O5    A    
O8    Zn1   S    
N3    Zn1   S    
C42   H3    S    
C12   O24   S    
C28   C36   A    
C67   C68   S    
C8    C10   A    
C47   H15   S    
C48   H20   S    
O25   C65   S    
C30   N2    A    
C27   O9    S    
C68   C69   S    
O22   C56   S    
C53   C54   S    
C71   H76   S    
C58   H45   S    
C16   C19   T    
