data_mof_unit_25194.cif
_audit_creation_date              2012-12-10T18:09:56-0500
_audit_creation_method            fapswitch 2.2
_symmetry_space_group_name_H-M    P1
_symmetry_Int_Tables_number       1
_space_group_crystal_system       triclinic
_cell_length_a                    10.646585
_cell_length_b                    12.654641
_cell_length_c                    13.100813
_cell_angle_alpha                 81.768317
_cell_angle_beta                  91.553879
_cell_angle_gamma                 102.608487
_cell_volume                      1704.72824838

loop_
_atom_site_label
_atom_site_type_symbol
_atom_type_description
_atom_site_fract_x
_atom_site_fract_y
_atom_site_fract_z
_atom_type_partial_charge
C1    C     C_R   0.480136 0.438717 0.691278 0.857106
C2    C     C_R   0.463507 0.446995 0.974093 0.086416
C3    C     C_R   0.431261 0.466280 0.869175 0.092430
C4    C     C_R   0.741537 0.500061 0.502493 0.847158
C5    C     C_R   0.460495 0.528850 0.036016 0.078854
C6    C     C_R   0.402677 0.617869 0.999087 0.174109
C7    C     C_R   0.352568 0.626234 0.899543 -0.276281
C8    C     C_R   0.368020 0.552073 0.834679 -0.212467
C9    C     C_R   0.516078 0.525303 0.133330 -0.262152
C10   C     C_R   0.439760 0.684347 0.164232 -0.216396
C11   C     C_R   0.464429 0.399433 0.801551 -0.129220
C12   C     C_3   0.120814 0.498874 0.499718 0.167609
C13   C     C_R   0.324864 0.092115 0.339413 -0.312576
C14   C     C_R   0.669277 0.809051 0.618564 0.323430
C15   C     C_R   0.725453 0.919577 0.616191 -0.256059
C16   C     C_R   0.511848 0.561143 0.308733 0.842863
C17   C     C_R   0.670280 0.996932 0.559052 -0.174609
C18   C     C_R   0.551434 0.966039 0.511349 0.042064
C19   C     C_R   0.508957 0.854386 0.499178 0.194001
C20   C     C_R   0.480642 0.043630 0.467256 -0.076235
C21   C     C_R   0.386945 0.013845 0.391830 0.154658
C22   C     C_R   0.356435 0.906282 0.370094 -0.277714
C23   C     C_3   0.067186 0.508461 0.386635 0.025025
C24   C     C_R   0.414139 0.827039 0.425143 -0.213552
C25   C     C_R   0.494829 0.148609 0.497673 0.444136
C26   C     C_R   0.352793 0.197552 0.365210 -0.084848
C27   C     C_R   0.258004 0.499306 0.499931 0.794428
C28   C     C_3   0.902541 0.394733 0.567382 -0.367403
C29   C     C_3   0.046823 0.396259 0.570150 -0.393503
C30   C     C_3   0.921901 0.506751 0.389753 -0.408628
C31   C     C_3   0.956465 0.600766 0.549375 -0.426990
C32   C     C_3   0.878177 0.500973 0.502513 0.136377
C33   C     C_3   0.734371 0.731700 0.688892 -0.400138
C34   C     C_3   0.099345 0.600343 0.547126 -0.440122
C35   C     C_3   0.705640 0.734187 0.801979 -0.865699
C36   C     C_3   0.099764 0.432259 0.312524 -0.383140
C37   C     C_3   0.049427 0.309068 0.343482 -0.841570
C38   C     C_R   0.394673 0.696222 0.063098 -0.200023
C39   C     C_R   0.497663 0.596685 0.199616 -0.051655
C40   C     C_R   0.499807 0.301230 0.841453 -0.171586
C41   C     C_R   0.511680 0.273351 0.946981 -0.155869
C42   C     C_R   0.497162 0.346497 0.013034 -0.200657
Cl1   Cl    Cl    0.572815 0.183766 0.611955 -0.696072
H1    H     H_    0.850932 0.321425 0.533729 0.206511
H2    H     H_    0.509051 0.321107 0.094287 0.137356
H3    H     H_    0.537726 0.196894 0.977388 0.151337
H4    H     H_    0.865662 0.387083 0.647423 0.174902
H5    H     H_    0.328678 0.561754 0.757735 0.167557
H6    H     H_    0.308974 0.259819 0.322833 0.159802
H7    H     H_    0.285370 0.882647 0.312053 0.144161
H8    H     H_    0.256170 0.072184 0.278807 0.154980
H9    H     H_    0.724232 0.080446 0.550228 0.191348
H10   H     H_    0.813705 0.945941 0.657579 0.158866
H11   H     H_    0.386552 0.746392 0.405000 0.202318
H12   H     H_    0.150553 0.677981 0.501057 0.188117
H13   H     H_    0.081822 0.398440 0.650874 0.154873
H14   H     H_    0.063340 0.319010 0.548718 0.192470
H15   H     H_    0.863773 0.437150 0.354549 0.184329
H16   H     H_    0.940551 0.678641 0.505058 0.190894
H17   H     H_    0.925519 0.597268 0.630486 0.171551
H18   H     H_    0.138152 0.599286 0.627020 0.182849
H19   H     H_    0.747970 0.815898 0.824272 0.256411
H20   H     H_    0.600273 0.715504 0.815262 0.285933
H21   H     H_    0.747575 0.672065 0.851793 0.247983
H22   H     H_    0.708570 0.647204 0.674958 0.267072
H23   H     H_    0.902943 0.582275 0.342831 0.134163
H24   H     H_    0.840243 0.756406 0.676316 0.171024
H25   H     H_    0.112724 0.275099 0.401547 0.261765
H26   H     H_    0.949472 0.289081 0.373315 0.253049
H27   H     H_    0.050728 0.267086 0.274797 0.234190
H28   H     H_    0.058554 0.455465 0.235783 0.199173
H29   H     H_    0.205464 0.448789 0.300144 0.206851
H30   H     H_    0.114333 0.591937 0.348876 0.092078
H31   H     H_    0.423712 0.739868 0.215676 0.148231
H32   H     H_    0.304945 0.691941 0.870750 0.154854
H33   H     H_    0.349218 0.763808 0.036325 0.137627
H34   H     H_    0.570180 0.464226 0.161475 0.146230
H35   H     H_    0.522234 0.247355 0.791362 0.221028
N1    N     N_R   0.433240 0.222190 0.444680 -0.115671
N2    N     N_R   0.566070 0.776970 0.554790 -0.147239
O1    O     O_R   0.468120 0.366740 0.627160 -0.544760
O2    O     O_R   0.510770 0.544830 0.662520 -0.628006
O3    O     O_R   0.663880 0.410950 0.482330 -0.582564
O4    O     O_R   0.706530 0.589040 0.517700 -0.650799
O5    O     O_R   0.489230 0.455170 0.337480 -0.620050
O6    O     O_R   0.531880 0.633260 0.372840 -0.625093
O7    O     O_R   0.293470 0.410960 0.482300 -0.613080
O8    O     O_R   0.336120 0.589050 0.517670 -0.654719
Zn1   Zn    Zn3+2 0.471520 0.381090 0.476390 0.974303
Zn2   Zn    Zn3+2 0.528480 0.618910 0.523610 0.910297

loop_
_geom_bond_atom_site_label_1
_geom_bond_atom_site_label_2
_ccdc_geom_bond_type
C28   H4    S    
C37   H26   S    
C12   C29   S    
C41   C42   A    
C1    C11   S    
C25   Cl1   S    
C14   C33   S    
C33   H22   S    
C7    C8    A    
C38   H33   S    
C12   C23   S    
C15   H10   S    
C28   C29   S    
C5    C6    A    
C20   C25   A    
C24   H11   S    
C37   H25   S    
C9    C39   A    
C18   C19   A    
C31   H16   S    
C13   H8    S    
C41   H3    S    
C6    C38   A    
C35   H21   S    
C14   N2    A    
C18   C20   A    
C36   H28   S    
C22   H7    S    
O1    Zn1   S    
C34   H12   S    
C21   C22   A    
C16   O6    A    
C11   C40   A    
O4    Zn2   S    
C23   H30   S    
C17   H9    S    
C30   H23   S    
O3    Zn1   S    
C12   C27   S    
C23   C30   S    
C28   C32   S    
C19   N2    A    
C3    C8    A    
O6    Zn2   S    
C26   H6    S    
O5    Zn1   S    
C7    H32   S    
C1    O2    A    
C28   H1    S    
C34   H18   S    
C10   C39   A    
C42   H2    S    
C31   H17   S    
C8    H5    S    
C5    C9    A    
C31   C32   S    
C4    O4    A    
C17   C18   A    
C31   C34   S    
C13   C21   A    
C9    H34   S    
C27   O7    A    
C4    C32   S    
C40   C41   A    
O8    Zn2   S    
O7    Zn1   S    
C16   O5    A    
C40   H35   S    
C13   C26   A    
C2    C5    A    
C12   C34   S    
C33   H24   S    
C15   C17   A    
C36   C37   S    
C25   N1    A    
C29   H14   S    
C6    C7    A    
C29   H13   S    
C26   N1    A    
O2    Zn2   S    
C10   C38   A    
C2    C3    A    
C30   C32   S    
C10   H31   S    
C4    O3    A    
C2    C42   A    
C30   H15   S    
C33   C35   S    
C19   C24   A    
C35   H19   S    
C22   C24   A    
N2    Zn2   S    
C27   O8    A    
N1    Zn1   S    
C3    C11   A    
C16   C39   S    
C20   C21   A    
C23   C36   S    
C14   C15   A    
C35   H20   S    
C37   H27   S    
C1    O1    A    
C36   H29   S    
