data_mof_unit_26260.cif
_audit_creation_date              2012-10-26T21:02:38-0400
_audit_creation_method            fapswitch 2.2
_symmetry_space_group_name_H-M    P1
_symmetry_Int_Tables_number       1
_space_group_crystal_system       triclinic
_cell_length_a                    12.319126
_cell_length_b                    13.195726
_cell_length_c                    15.093133
_cell_angle_alpha                 77.206598
_cell_angle_beta                  101.346685
_cell_angle_gamma                 116.304351
_cell_volume                      2131.18595991

loop_
_atom_site_label
_atom_site_type_symbol
_atom_type_description
_atom_site_fract_x
_atom_site_fract_y
_atom_site_fract_z
_atom_type_partial_charge
Br1   Br    Br    0.978397 0.102940 0.518094 -0.423053
Br2   Br    Br    0.119014 0.266634 0.698769 -0.432140
C1    C     C_R   0.854949 0.286856 0.503511 0.586322
C2    C     C_R   0.064956 0.449218 0.833790 -0.099241
C3    C     C_R   0.998451 0.498982 0.767827 0.005020
C4    C     C_R   0.999719 0.500136 0.671093 0.569966
C5    C     C_R   0.930762 0.546685 0.794719 -0.109430
C6    C     C_R   0.262406 0.034346 0.444944 -0.099409
C7    C     C_R   0.226299 0.835184 0.482391 -0.007428
C8    C     C_R   0.815556 0.078678 0.529393 0.142458
C9    C     C_R   0.738282 0.968874 0.564902 -0.057037
C10   C     C_R   0.615251 0.939459 0.566048 0.196645
C11   C     C_R   0.562625 0.014653 0.515033 0.042438
C12   C     C_R   0.930909 0.542371 0.073841 0.003077
C13   C     C_R   0.642269 0.128871 0.482923 -0.023034
C14   C     C_R   0.434660 0.981579 0.494382 0.064485
C15   C     C_R   0.388402 0.065284 0.458386 0.053727
C16   C     C_R   0.144794 0.713420 0.488477 0.542254
C17   C     C_R   0.467529 0.176176 0.427268 -0.117644
C18   C     C_R   0.590684 0.204053 0.431903 -0.105941
C19   C     C_R   0.351925 0.867007 0.498089 -0.085102
C20   C     C_R   0.181437 0.919496 0.459046 -0.113340
C21   C     C_R   0.771019 0.164084 0.501571 0.006439
C22   C     C_R   0.348161 0.326884 0.644503 -0.067225
C23   C     C_R   0.122304 0.385242 0.084325 -0.092324
C24   C     C_R   0.759062 0.645807 0.376032 0.058155
C25   C     C_R   0.662290 0.677632 0.349288 -0.145446
C26   C     C_R   0.558995 0.622458 0.395736 -0.104704
C27   C     C_R   0.551326 0.534280 0.470072 -0.000136
C28   C     C_R   0.997997 0.495880 0.329200 0.562764
C29   C     C_R   0.653294 0.505175 0.495055 0.131224
C30   C     C_R   0.447278 0.474322 0.520699 -0.040723
C31   C     C_R   0.447917 0.386160 0.594241 0.009259
C32   C     C_R   0.548558 0.358857 0.617220 0.187478
C33   C     C_R   0.648674 0.418503 0.569109 -0.062548
C34   C     C_R   0.125387 0.390817 0.991763 -0.128258
C35   C     C_R   0.341995 0.497709 0.501922 0.070737
C36   C     C_R   0.248727 0.353814 0.623707 0.320533
C37   C     C_R   0.933090 0.542673 0.166238 -0.170790
C38   C     C_R   0.995405 0.489033 0.232979 0.002815
C39   C     C_R   0.054258 0.430727 0.206853 0.215935
C40   C     C_R   0.057547 0.434855 0.113427 0.031853
C41   C     C_R   0.994864 0.490223 0.047122 0.029244
C42   C     C_R   0.062364 0.444233 0.926317 0.016863
C43   C     C_R   0.995717 0.493203 0.953628 0.068643
C44   C     C_R   0.930233 0.545416 0.887390 0.025153
C45   C     C_R   0.865660 0.595513 0.914955 -0.103121
C46   C     C_R   0.866706 0.594703 0.007642 -0.107465
Cl1   Cl    Cl    0.540034 0.816254 0.643782 -0.597723
Cl2   Cl    Cl    0.555238 0.249424 0.707120 -0.578790
Cl3   Cl    Cl    0.117059 0.346304 0.289483 -0.596046
Cu1   Cu    Cu3+1 0.098270 0.475420 0.521130 1.093165
Cu2   Cu    Cu3+1 0.901730 0.524580 0.478870 0.934069
H1    H     H_    0.886689 0.585950 0.186179 0.132118
H2    H     H_    0.486850 0.650472 0.372075 0.110036
H3    H     H_    0.667357 0.745301 0.292337 0.118507
H4    H     H_    0.721474 0.393417 0.592715 0.217805
H5    H     H_    0.172677 0.343109 0.132261 0.181221
H6    H     H_    0.176778 0.352755 0.971346 0.137767
H7    H     H_    0.118026 0.413088 0.813446 0.174562
H8    H     H_    0.879893 0.585991 0.743693 0.142081
H9    H     H_    0.815133 0.635967 0.864869 0.139936
H10   H     H_    0.817078 0.634809 0.027604 0.125704
H11   H     H_    0.084382 0.896699 0.446893 0.158753
H12   H     H_    0.433004 0.238974 0.392354 0.128441
H13   H     H_    0.226676 0.098475 0.420045 0.170531
H14   H     H_    0.384726 0.801887 0.506003 0.179579
H15   H     H_    0.775611 0.907071 0.595810 0.182553
H16   H     H_    0.643061 0.284246 0.392075 0.158631
H17   H     H_    0.346189 0.259401 0.700823 0.200429
H18   H     H_    0.334196 0.562786 0.447054 0.127226
H19   H     H_    0.838821 0.689143 0.339614 0.128527
N1    N     N_R   0.246280 0.438190 0.553160 -0.214875
N2    N     N_R   0.754320 0.561190 0.447410 -0.243102
O1    O     O_R   0.972510 0.318130 0.526570 -0.399992
O2    O     O_R   0.806530 0.359650 0.490890 -0.553775
O3    O     O_R   0.082980 0.479210 0.647590 -0.466103
O4    O     O_R   0.917000 0.520730 0.611900 -0.529699
O5    O     O_R   0.193470 0.640350 0.509110 -0.512672
O6    O     O_R   0.027490 0.681870 0.473430 -0.512252
O7    O     O_R   0.083000 0.479270 0.388100 -0.448429
O8    O     O_R   0.917020 0.520790 0.352410 -0.536131

loop_
_geom_bond_atom_site_label_1
_geom_bond_atom_site_label_2
_ccdc_geom_bond_type
C6    H13   S    
C14   C19   A    
C24   H19   S    
C39   C40   A    
C1    C21   S    
Cu2   N2    S    
Cu1   O1    S    
C45   H9    S    
C10   Cl1   S    
C22   H17   S    
C43   C44   A    
C42   C43   A    
C24   C25   A    
C26   C27   A    
C27   C30   A    
C3    C4    S    
C7    C20   A    
C4    O4    A    
C37   H1    S    
C32   C33   A    
C5    H8    S    
C24   N2    A    
C12   C37   A    
C17   C18   A    
C14   C15   A    
C6    C20   A    
Cu1   O5    S    
C1    O1    A    
C34   H6    S    
C13   C21   A    
C19   H14   S    
C26   H2    S    
C13   C18   A    
C32   Cl2   S    
C5    C44   A    
Cu2   O6    S    
Cu1   N1    S    
C37   C38   A    
C3    C5    A    
C25   H3    S    
C16   O5    A    
C29   N2    A    
C12   C46   A    
C2    C42   A    
C46   H10   S    
Cu2   O8    S    
C28   O8    A    
Br2   C36   S    
C22   C36   A    
C45   C46   A    
C2    H7    S    
C31   C32   A    
C28   C38   S    
C30   C35   A    
C1    O2    A    
C41   C43   A    
C38   C39   A    
C35   H18   S    
C29   C33   A    
C18   H16   S    
C34   C42   A    
Cu2   O2    S    
C40   C41   A    
Cu1   O3    S    
C9    H15   S    
C35   N1    A    
C44   C45   A    
Br1   C8    S    
C6    C15   A    
C2    C3    A    
C4    O3    A    
C23   C40   A    
C9    C10   A    
C8    C21   A    
C22   C31   A    
C33   H4    S    
C30   C31   A    
C28   O7    A    
C11   C13   A    
Cu2   O4    S    
C27   C29   A    
C7    C19   A    
C15   C17   A    
C17   H12   S    
Cu1   O7    S    
C8    C9    A    
C23   C34   A    
C20   H11   S    
C7    C16   S    
C10   C11   A    
C16   O6    A    
C23   H5    S    
C11   C14   A    
C25   C26   A    
C39   Cl3   S    
Cu1   Cu2   S    
C12   C41   A    
C36   N1    A    
