data_mof_unit_64633.cif
_audit_creation_date              2012-10-26T19:53:50-0400
_audit_creation_method            fapswitch 2.2
_symmetry_space_group_name_H-M    P1
_symmetry_Int_Tables_number       1
_space_group_crystal_system       triclinic
_cell_length_a                    15.999321
_cell_length_b                    14.773285
_cell_length_c                    15.906335
_cell_angle_alpha                 89.90169
_cell_angle_beta                  89.761514
_cell_angle_gamma                 89.997476
_cell_volume                      3759.6234613

loop_
_atom_site_label
_atom_site_type_symbol
_atom_type_description
_atom_site_fract_x
_atom_site_fract_y
_atom_site_fract_z
_atom_type_partial_charge
Br1   Br    Br    0.384359 0.887173 0.362858 -0.337079
Br2   Br    Br    0.385561 0.113453 0.361950 -0.344121
Br3   Br    Br    0.361065 0.632952 0.095132 -0.364443
Br4   Br    Br    0.338016 0.403669 0.095848 -0.368009
Br5   Br    Br    0.666448 0.586768 0.911450 -0.486352
Br6   Br    Br    0.645184 0.376942 0.912286 -0.494833
Br7   Br    Br    0.899611 0.693742 0.534886 -0.479347
Br8   Br    Br    0.899918 0.305403 0.473498 -0.483989
C1    C     C_R   0.340851 0.500003 0.500167 0.556118
C2    C     C_R   0.043884 0.418879 0.490349 -0.062394
C3    C     C_R   0.043778 0.580647 0.515902 -0.065516
C4    C     C_R   0.087296 0.499832 0.502709 -0.023223
C5    C     C_1   0.823073 0.499844 0.502494 0.059155
C6    C     C_R   0.500224 0.500076 0.339838 0.560510
C7    C     C_1   0.176731 0.499962 0.501736 -0.016168
C8    C     C_1   0.251757 0.500004 0.500920 0.023488
C9    C     C_1   0.748089 0.499940 0.501460 0.047092
C10   C     C_R   0.549496 0.951398 0.559861 -0.045299
C11   C     C_R   0.550556 0.048221 0.559014 -0.047092
C12   C     C_3   0.593585 0.489329 0.951887 0.310368
C13   C     C_R   0.500003 0.902851 0.501441 -0.038168
C14   C     C_R   0.501577 0.097109 0.500214 -0.038586
C15   C     C_R   0.451723 0.952075 0.442939 0.180906
C16   C     C_R   0.452425 0.048168 0.442397 0.181533
C17   C     C_1   0.499922 0.802545 0.500423 0.201983
C18   C     C_1   0.500513 0.197442 0.500051 0.199239
C19   C     C_R   0.659094 0.499990 0.500319 0.549561
C20   C     C_R   0.500124 0.499951 0.660190 0.547037
C21   C     C_3   0.467445 0.592587 0.047530 0.070444
C22   C     C_3   0.449892 0.418227 0.048027 0.069232
C23   C     C_3   0.591480 0.489747 0.050051 -0.230441
C24   C     C_3   0.446676 0.421889 0.950756 -0.213301
C25   C     C_3   0.463652 0.589607 0.950242 -0.216765
C26   C     C_1   0.500740 0.499916 0.749620 0.025984
C27   C     C_3   0.500392 0.500507 0.082804 0.005561
C28   C     C_3   0.502391 0.500093 0.917076 0.012985
C29   C     C_R   0.601883 0.098720 0.620786 0.022997
C30   C     C_R   0.669726 0.151666 0.593421 -0.085806
C31   C     C_R   0.717400 0.200071 0.651487 -0.086226
C32   C     C_R   0.697844 0.195768 0.737112 -0.068635
C33   C     C_R   0.630497 0.143162 0.764812 -0.085166
C34   C     C_1   0.501444 0.500017 0.824993 0.009408
C35   C     C_R   0.582553 0.094767 0.706925 -0.081178
C36   C     C_R   0.601685 0.900435 0.620788 0.027363
C37   C     C_R   0.563821 0.846837 0.683300 -0.098110
C38   C     C_R   0.612962 0.797267 0.739429 -0.087310
C39   C     C_R   0.700087 0.801116 0.733722 -0.066449
C40   C     C_R   0.738195 0.854559 0.671899 -0.076264
C41   C     C_R   0.689268 0.904030 0.615486 -0.064340
C42   C     C_1   0.500707 0.500445 0.174919 0.026352
C43   C     C_1   0.500596 0.500277 0.250338 0.055204
C44   C     C_R   0.956510 0.581014 0.516378 0.161296
C45   C     C_R   0.956628 0.418372 0.490682 0.154950
C46   C     C_R   0.912662 0.499710 0.503412 0.055998
Cu1   Cu    Cu3+1 0.500000 0.589220 0.500020 1.065506
Cu2   Cu    Cu3+1 0.500000 0.410780 0.500020 1.063533
H1    H     H_    0.397755 0.594996 0.928694 0.173046
H2    H     H_    0.077750 0.356262 0.480328 0.174245
H3    H     H_    0.685583 0.155332 0.527235 0.144182
H4    H     H_    0.769503 0.240908 0.630117 0.168201
H5    H     H_    0.734882 0.233200 0.781976 0.176595
H6    H     H_    0.615342 0.140051 0.831132 0.151854
H7    H     H_    0.530246 0.054603 0.729040 0.126118
H8    H     H_    0.496364 0.843378 0.688325 0.119421
H9    H     H_    0.583501 0.755793 0.787266 0.147292
H10   H     H_    0.738057 0.762652 0.777159 0.173040
H11   H     H_    0.805668 0.857382 0.667488 0.164868
H12   H     H_    0.381244 0.432101 0.929263 0.174104
H13   H     H_    0.719479 0.944608 0.567413 0.140065
H14   H     H_    0.483146 0.355015 0.066323 0.155548
H15   H     H_    0.512463 0.646595 0.065549 0.153631
H16   H     H_    0.467160 0.355762 0.924471 0.157580
H17   H     H_    0.496932 0.649284 0.923623 0.146007
H18   H     H_    0.630859 0.545549 0.075062 0.162192
H19   H     H_    0.618909 0.426191 0.075494 0.162894
H20   H     H_    0.077567 0.643304 0.525673 0.169120
N1    N     N_1   0.499980 0.276710 0.500030 -0.169585
N2    N     N_1   0.499980 0.723290 0.500030 -0.168842
O1    O     O_R   0.380310 0.575320 0.500040 -0.483188
O2    O     O_R   0.380310 0.424680 0.500040 -0.481526
O3    O     O_R   0.500000 0.575380 0.379460 -0.475611
O4    O     O_R   0.500000 0.424620 0.379460 -0.478749
O5    O     O_R   0.619690 0.575360 0.500000 -0.483524
O6    O     O_R   0.619690 0.424640 0.500000 -0.493985
O7    O     O_R   0.500000 0.575310 0.620580 -0.502464
O8    O     O_R   0.500000 0.424690 0.620580 -0.491724

loop_
_geom_bond_atom_site_label_1
_geom_bond_atom_site_label_2
_ccdc_geom_bond_type
C36   C41   A    
Cu1   Cu2   S    
Cu1   O7    S    
C10   C13   A    
C28   C34   S    
C26   C34   T    
C35   H7    S    
C24   H16   S    
Br5   C12   S    
C45   C46   A    
C22   C27   S    
C24   C28   S    
C19   O6    A    
C2    H2    S    
C1    C8    S    
Br7   C44   S    
C3    H20   S    
C30   C31   A    
C7    C8    T    
C21   C25   S    
C25   C28   S    
C10   C11   A    
C1    O1    A    
Br3   C21   S    
C2    C45   A    
C3    C44   A    
C11   C29   S    
C23   H19   S    
C6    C43   S    
C15   C16   A    
Cu1   O3    S    
C39   H10   S    
C24   H12   S    
C20   C26   S    
C41   H13   S    
C33   C35   A    
C33   H6    S    
C22   H14   S    
C44   C46   A    
Cu2   O6    S    
C18   N1    T    
C17   N2    T    
C9    C19   S    
C11   C14   A    
C38   H9    S    
C31   C32   A    
Cu1   N2    S    
C23   H18   S    
C37   C38   A    
C32   H5    S    
C1    O2    A    
C29   C35   A    
C29   C30   A    
C10   C36   S    
Cu1   O1    S    
Cu2   O8    S    
C39   C40   A    
C4    C7    S    
C27   C42   S    
C42   C43   T    
C2    C4    A    
C25   H17   S    
C40   C41   A    
Br1   C15   S    
C13   C15   A    
C20   O8    A    
C14   C16   A    
C6    O4    A    
Cu1   O5    S    
C36   C37   A    
C5    C46   S    
C13   C17   S    
C38   C39   A    
C32   C33   A    
C25   H1    S    
Br8   C45   S    
C3    C4    A    
Cu2   O4    S    
Br6   C12   S    
C21   C27   S    
C37   H8    S    
Cu2   O2    S    
C5    C9    T    
C19   O5    A    
C22   C24   S    
C31   H4    S    
C23   C27   S    
C40   H11   S    
Cu2   N1    S    
C30   H3    S    
C12   C28   S    
C14   C18   S    
C20   O7    A    
Br2   C16   S    
C6    O3    A    
Br4   C22   S    
C21   H15   S    
C12   C23   S    
