data_mof_unit_26290.cif
_audit_creation_date              2012-12-10T18:46:18-0500
_audit_creation_method            fapswitch 2.2
_symmetry_space_group_name_H-M    P1
_symmetry_Int_Tables_number       1
_space_group_crystal_system       triclinic
_cell_length_a                    9.874656
_cell_length_b                    10.711844
_cell_length_c                    13.03247
_cell_angle_alpha                 91.772125
_cell_angle_beta                  69.914193
_cell_angle_gamma                 90.357482
_cell_volume                      1294.04384807

loop_
_atom_site_label
_atom_site_type_symbol
_atom_type_description
_atom_site_fract_x
_atom_site_fract_y
_atom_site_fract_z
_atom_type_partial_charge
Br1   Br    Br    0.219651 0.280943 0.356337 -0.366008
Br2   Br    Br    0.081838 0.686203 0.673548 -0.402646
Br3   Br    Br    0.740568 0.863184 0.845525 -0.293548
Br4   Br    Br    0.489358 0.785502 0.747663 -0.437619
Br5   Br    Br    0.818427 0.861184 0.367691 -0.362409
C1    C     C_R   0.503257 0.739635 0.494114 0.973748
C2    C     C_R   0.363973 0.510907 0.824543 -0.160920
C3    C     C_R   0.633919 0.937815 0.443496 0.313599
C4    C     C_R   0.419430 0.503882 0.704974 0.959288
C5    C     C_R   0.629260 0.065899 0.447791 -0.262534
C6    C     C_R   0.498658 0.127900 0.499880 -0.121461
C7    C     C_R   0.369718 0.063601 0.548731 0.489732
C8    C     C_R   0.374147 0.934818 0.542973 -0.251073
C9    C     C_R   0.504972 0.872356 0.491761 -0.145498
C10   C     C_R   0.955584 0.416319 0.436143 -0.140333
C11   C     C_R   0.098275 0.414567 0.437148 0.347448
C12   C     C_R   0.421364 0.531915 0.989676 -0.001469
C13   C     C_R   0.040763 0.580632 0.567464 0.277636
C14   C     C_R   0.898022 0.581332 0.566225 -0.053222
C15   C     C_R   0.499041 0.260230 0.500997 0.948383
C16   C     C_R   0.580859 0.502866 0.294734 0.976590
C17   C     C_R   0.753441 0.665616 0.028393 0.512468
C18   C     C_R   0.631881 0.527201 0.177086 -0.283667
C19   C     C_R   0.239300 0.444576 0.880038 -0.195135
C20   C     C_R   0.192661 0.436746 0.993142 0.389070
C21   C     C_R   0.285617 0.478868 0.049820 0.372972
C22   C     C_R   0.442624 0.570667 0.883699 -0.088861
C23   C     C_R   0.534787 0.552737 0.031884 -0.121260
C24   C     C_R   0.642339 0.643792 0.984001 -0.170597
C25   C     C_R   0.632785 0.711364 0.894700 0.337374
C26   C     C_R   0.533813 0.673268 0.844263 0.194527
C27   C     C_R   0.547117 0.482460 0.118212 0.468647
C28   C     C_R   0.743014 0.613275 0.128805 0.232356
H1    H     H_    0.727764 0.117231 0.409166 0.202852
H2    H     H_    0.172681 0.411747 0.189556 0.352478
H3    H     H_    0.016191 0.420987 0.117748 0.326317
H4    H     H_    0.276056 0.883672 0.581381 0.215912
H5    H     H_    0.922658 0.348863 0.385877 0.162517
H6    H     H_    0.819135 0.645501 0.619865 0.193840
H7    H     H_    0.175351 0.401556 0.835710 0.216350
H8    H     H_    0.866307 0.580724 0.212392 0.362219
H9    H     H_    0.163510 0.067321 0.632721 0.364751
H10   H     H_    0.947614 0.730563 0.005666 0.396666
H11   H     H_    0.473523 0.327410 0.078153 0.350467
N1    N     N_R   0.142790 0.500030 0.500030 -0.134924
N2    N     N_R   0.857180 0.499940 0.500010 -0.113467
O1    O     O_R   0.385370 0.683250 0.500010 -0.605223
O2    O     O_3   0.243028 0.127765 0.603630 -0.718512
O3    O     O_3   0.871622 0.736703 0.972465 -0.657547
O4    O     O_3   0.483353 0.367236 0.144887 -0.676773
O5    O     O_3   0.243497 0.478949 0.162257 -0.709756
O6    O     O_3   0.059128 0.384256 0.043230 -0.734745
O7    O     O_R   0.614700 0.683220 0.500010 -0.565700
O8    O     O_R   0.328400 0.499990 0.653620 -0.581928
O9    O     O_R   0.557730 0.499960 0.653620 -0.608994
O10   O     O_R   0.385300 0.316780 0.499990 -0.531429
O11   O     O_R   0.614630 0.316750 0.499990 -0.642602
O12   O     O_R   0.442270 0.500040 0.346380 -0.542022
O13   O     O_R   0.671600 0.500010 0.346380 -0.638134
O14   O     O_3   0.838176 0.653281 0.179216 -0.708293
Zn1   Zn    Zn3+2 0.346870 0.500020 0.500000 1.085995
Zn2   Zn    Zn3+2 0.653130 0.499980 0.500000 1.004104

loop_
_geom_bond_atom_site_label_1
_geom_bond_atom_site_label_2
_ccdc_geom_bond_type
C11   N1    A    
O1    Zn1   S    
Br5   C3    S    
C6    C7    A    
O9    Zn2   S    
C10   H5    S    
C24   C25   A    
C4    O9    A    
O8    Zn1   S    
C1    C9    S    
O7    Zn2   S    
C8    H4    S    
H3    O6    S    
C15   O10   A    
C7    O2    S    
C16   O12   A    
C18   C27   A    
O12   Zn1   S    
C15   O11   A    
C20   O6    S    
O11   Zn2   S    
C5    H1    S    
Br1   C11   S    
H9    O2    S    
C8    C9    A    
C19   C20   A    
C27   O4    S    
C17   C24   A    
C14   H6    S    
N2    Zn2   S    
C17   O3    S    
C12   C21   A    
Br3   C25   S    
N1    Zn1   S    
C23   C24   A    
C19   H7    S    
C16   O13   A    
C28   O14   S    
C16   C18   S    
H2    O5    S    
C25   C26   A    
C6    C15   S    
C14   N2    A    
Br4   C26   S    
Br2   C13   S    
C5    C6    A    
C1    O7    A    
C22   C26   A    
C2    C19   A    
C12   C22   A    
C13   N1    A    
C23   C27   A    
C2    C22   A    
C7    C8    A    
C3    C5    A    
C13   C14   A    
C1    O1    A    
H11   O4    S    
C2    C4    S    
C17   C28   A    
O10   Zn1   S    
H10   O3    S    
O13   Zn2   S    
C3    C9    A    
C4    O8    A    
C10   N2    A    
C20   C21   A    
C21   O5    S    
C12   C23   A    
C10   C11   A    
H8    O14   S    
C18   C28   A    
