data_mof_unit_6868.cif
_audit_creation_date              2012-12-11T14:33:52-0500
_audit_creation_method            fapswitch 2.2
_symmetry_space_group_name_H-M    P1
_symmetry_Int_Tables_number       1
_space_group_crystal_system       triclinic
_cell_length_a                    13.963402
_cell_length_b                    13.936367
_cell_length_c                    27.323169
_cell_angle_alpha                 90.144994
_cell_angle_beta                  89.864313
_cell_angle_gamma                 120.11141
_cell_volume                      4599.5158809

loop_
_atom_site_label
_atom_site_type_symbol
_atom_type_description
_atom_site_fract_x
_atom_site_fract_y
_atom_site_fract_z
_atom_type_partial_charge
C1    C     C_R   0.234283 0.787531 0.568772 0.541409
C2    C     C_R   0.212780 0.447385 0.569067 0.540092
C3    C     C_R   0.553205 0.766038 0.568810 0.540510
C4    C     C_3   0.696062 0.750314 0.784688 0.265561
C5    C     C_3   0.259865 0.940124 0.786839 0.268714
C6    C     C_3   0.079652 0.349633 0.790846 0.269535
C7    C     C_3   0.665983 0.734514 0.729632 -0.157026
C8    C     C_3   0.276606 0.922912 0.732018 -0.156180
C9    C     C_3   0.087492 0.369579 0.734771 -0.156740
C10   C     C_1   0.763552 0.885156 0.852977 -0.010831
C11   C     C_1   0.118716 0.883695 0.852757 -0.011720
C12   C     C_1   0.154852 0.293149 0.860264 -0.017967
C13   C     C_1   0.639923 0.822187 0.656650 -0.071924
C14   C     C_1   0.181914 0.821222 0.656743 -0.072164
C15   C     C_1   0.186389 0.372150 0.659140 -0.071574
C16   C     C_1   0.605948 0.800393 0.615380 -0.011211
C17   C     C_1   0.201523 0.807114 0.615412 -0.010440
C18   C     C_1   0.195764 0.399544 0.616836 -0.010856
C19   C     C_R   0.064610 0.150280 0.095747 0.576561
C20   C     C_R   0.777062 0.883522 0.088257 0.559237
C21   C     C_R   0.115844 0.893191 0.088191 0.561494
C22   C     C_R   0.107305 0.220485 0.950835 0.557461
C23   C     C_R   0.838092 0.908659 0.943199 0.536222
C24   C     C_R   0.091425 0.930038 0.943316 0.537577
C25   C     C_R   0.618483 0.896491 0.361397 -0.133114
C26   C     C_R   0.097852 0.732888 0.363040 -0.134385
C27   C     C_R   0.262762 0.356252 0.363793 -0.135033
C28   C     C_R   0.644705 0.911855 0.311733 0.014274
C29   C     C_R   0.081026 0.744126 0.313429 0.014284
C30   C     C_R   0.239442 0.304861 0.317700 0.013885
C31   C     C_R   0.680793 0.928947 0.210198 0.016736
C32   C     C_R   0.059471 0.759718 0.211909 0.016982
C33   C     C_R   0.198617 0.223816 0.220903 0.016294
C34   C     C_R   0.232933 0.788534 0.431745 0.548451
C35   C     C_R   0.211624 0.444494 0.431420 0.548018
C36   C     C_R   0.555695 0.767615 0.431891 0.548568
C37   C     C_R   0.653323 0.000860 0.234243 -0.138215
C38   C     C_R   0.975771 0.671041 0.238391 -0.127546
C39   C     C_R   0.300105 0.254084 0.243488 -0.123435
C40   C     C_R   0.635065 0.992197 0.284754 -0.131363
C41   C     C_R   0.987050 0.662586 0.288799 -0.128935
C42   C     C_R   0.320541 0.294707 0.291499 -0.128103
C43   C     C_R   0.703706 0.939064 0.159924 -0.149912
C44   C     C_R   0.048828 0.770780 0.161610 -0.135541
C45   C     C_R   0.180978 0.193420 0.171369 -0.128913
C46   C     C_R   0.728435 0.864095 0.136990 -0.004227
C47   C     C_R   0.134121 0.860532 0.136254 -0.004817
C48   C     C_R   0.081935 0.171712 0.148480 -0.008320
C49   C     C_R   0.658964 0.745889 0.364177 -0.131210
C50   C     C_R   0.269336 0.910569 0.361213 -0.128423
C51   C     C_R   0.076089 0.327066 0.368162 -0.129699
C52   C     C_R   0.682902 0.758366 0.314603 0.013416
C53   C     C_R   0.257064 0.919915 0.311561 0.013942
C54   C     C_R   0.052354 0.277775 0.322077 0.011597
C55   C     C_R   0.673313 0.839932 0.287955 0.064114
C56   C     C_R   0.163565 0.835591 0.287252 0.063423
C57   C     C_R   0.134959 0.268734 0.296181 0.062656
C58   C     C_R   0.707915 0.684804 0.290672 -0.127017
C59   C     C_R   0.340961 0.008594 0.285390 -0.127573
C60   C     C_R   0.949608 0.244195 0.300222 -0.128814
C61   C     C_R   0.719624 0.689363 0.240180 -0.127245
C62   C     C_R   0.334006 0.012121 0.234854 -0.130107
C63   C     C_R   0.930654 0.207088 0.251966 -0.122326
C64   C     C_R   0.709699 0.769609 0.213537 0.011076
C65   C     C_R   0.241368 0.929029 0.210390 0.014156
C66   C     C_R   0.012997 0.200532 0.225391 0.016284
C67   C     C_3   0.594048 0.867199 0.738432 -0.240195
C68   C     C_3   0.118294 0.726168 0.736725 -0.238842
C69   C     C_3   0.290294 0.430456 0.737393 -0.238754
C70   C     C_R   0.688394 0.846600 0.237248 0.065424
C71   C     C_R   0.154588 0.841407 0.236515 0.063951
C72   C     C_R   0.114887 0.229144 0.247748 0.062053
C73   C     C_R   0.724171 0.775789 0.163528 -0.123451
C74   C     C_R   0.232497 0.934884 0.160292 -0.131866
C75   C     C_R   0.997007 0.171134 0.176110 -0.129504
C76   C     C_R   0.618779 0.808839 0.386712 -0.003298
C77   C     C_R   0.195181 0.813334 0.386170 -0.003175
C78   C     C_R   0.182667 0.371747 0.388191 -0.004705
C79   C     C_3   0.792613 0.937873 0.714244 -0.226147
C80   C     C_3   0.082949 0.880405 0.713459 -0.225641
C81   C     C_3   0.148953 0.229638 0.722855 -0.226284
C82   C     C_3   0.824809 0.956051 0.769082 -0.209808
C83   C     C_3   0.065095 0.895628 0.768145 -0.214160
C84   C     C_3   0.142087 0.209748 0.778895 -0.206355
C85   C     C_1   0.796106 0.896188 0.894486 0.013204
C86   C     C_1   0.105024 0.902438 0.894382 0.009016
C87   C     C_1   0.138283 0.265709 0.902603 0.004876
C88   C     C_3   0.672643 0.840603 0.708339 0.024653
C89   C     C_3   0.164986 0.837185 0.708349 0.025849
C90   C     C_3   0.178422 0.350367 0.712076 0.025353
C91   C     C_3   0.627593 0.884857 0.793388 -0.273770
C92   C     C_3   0.102107 0.743397 0.791627 -0.270516
C93   C     C_3   0.282247 0.410160 0.793513 -0.277093
C94   C     C_3   0.728920 0.869574 0.801453 0.075207
C95   C     C_3   0.136300 0.866115 0.801280 0.075195
C96   C     C_3   0.164869 0.315669 0.807350 0.075814
Cr1   Cr    Cr6+3 0.164410 0.584450 0.499910 1.020115
Cr2   Cr    Cr6+3 0.415550 0.579960 0.499910 1.020821
Cr3   Cr    Cr6+3 0.420040 0.835590 0.499910 1.018451
Cr4   Cr    Cr6+3 0.155170 0.075460 0.019960 1.021116
Cr5   Cr    Cr6+3 0.924540 0.079710 0.019960 1.026887
Cr6   Cr    Cr6+3 0.920290 0.844830 0.019960 1.022997
H1    H     H_    0.647672 0.969555 0.804977 0.152898
H2    H     H_    0.013879 0.688036 0.801998 0.167480
H3    H     H_    0.345272 0.388156 0.804948 0.149492
H4    H     H_    0.507066 0.797997 0.734894 0.111349
H5    H     H_    0.175935 0.693129 0.733351 0.111097
H6    H     H_    0.313479 0.518090 0.730161 0.112137
H7    H     H_    0.556608 0.824578 0.816134 0.105014
H8    H     H_    0.152800 0.719732 0.814529 0.103465
H9    H     H_    0.301007 0.487783 0.813101 0.100889
H10   H     H_    0.705951 0.006409 0.139211 0.107117
H11   H     H_    0.972920 0.713384 0.142855 0.114661
H12   H     H_    0.245661 0.191081 0.150294 0.123952
H13   H     H_    0.588748 0.946416 0.379026 0.127066
H14   H     H_    0.039411 0.658544 0.382528 0.122845
H15   H     H_    0.344813 0.389445 0.379274 0.125253
H16   H     H_    0.646036 0.063684 0.214028 0.099657
H17   H     H_    0.902559 0.607513 0.220015 0.098891
H18   H     H_    0.365031 0.250009 0.223465 0.102037
H19   H     H_    0.612242 0.047384 0.302606 0.099477
H20   H     H_    0.922873 0.591989 0.308415 0.100879
H21   H     H_    0.400884 0.321243 0.307597 0.102509
H22   H     H_    0.741378 0.716147 0.145928 0.129799
H23   H     H_    0.298982 0.003753 0.140630 0.125159
H24   H     H_    0.919577 0.151522 0.158657 0.118981
H25   H     H_    0.736602 0.630361 0.221947 0.098591
H26   H     H_    0.400452 0.080293 0.214958 0.095562
H27   H     H_    0.853311 0.187703 0.234805 0.111445
H28   H     H_    0.714880 0.621626 0.310777 0.101421
H29   H     H_    0.413426 0.073293 0.303815 0.096721
H30   H     H_    0.885655 0.251138 0.319716 0.103561
H31   H     H_    0.597188 0.943190 0.723806 0.140153
H32   H     H_    0.037631 0.663213 0.720704 0.144751
H33   H     H_    0.357219 0.418155 0.721967 0.140458
H34   H     H_    0.661279 0.679725 0.383993 0.128176
H35   H     H_    0.343374 0.974458 0.379078 0.130997
H36   H     H_    0.013029 0.336715 0.387040 0.130950
H37   H     H_    0.850990 0.919955 0.693821 0.116064
H38   H     H_    0.115579 0.961085 0.694093 0.119776
H39   H     H_    0.068180 0.170365 0.705718 0.115768
H40   H     H_    0.800221 0.015128 0.698672 0.129625
H41   H     H_    0.002201 0.820938 0.696352 0.130231
H42   H     H_    0.212713 0.213287 0.706778 0.134619
H43   H     H_    0.845524 0.041323 0.779994 0.172695
H44   H     H_    0.976717 0.840630 0.777409 0.193524
H45   H     H_    0.203521 0.185142 0.789721 0.175419
H46   H     H_    0.900226 0.950622 0.774777 0.124525
H47   H     H_    0.085908 0.982523 0.774787 0.135962
H48   H     H_    0.058694 0.139979 0.788529 0.142179
H49   H     H_    0.580820 0.662494 0.724942 0.075749
H50   H     H_    0.337286 0.893569 0.728793 0.070491
H51   H     H_    0.106646 0.455997 0.727425 0.071806
H52   H     H_    0.723294 0.714961 0.709280 0.162919
H53   H     H_    0.312164 0.003322 0.712190 0.166426
H54   H     H_    0.006236 0.312948 0.717335 0.164253
H55   H     H_    0.622884 0.689187 0.806147 0.127108
H56   H     H_    0.311731 0.917726 0.809612 0.123759
H57   H     H_    0.096916 0.427269 0.810022 0.121355
O1    O     O_R   0.137150 0.468200 0.553200 -0.509430
O2    O     O_R   0.531800 0.668950 0.553200 -0.509872
O3    O     O_R   0.331050 0.862850 0.553200 -0.509665
O4    O     O_R   0.179100 0.982980 0.967000 -0.484413
O5    O     O_R   0.017020 0.196120 0.967000 -0.494175
O6    O     O_R   0.803880 0.820900 0.967000 -0.492492
O7    O     O_R   0.173970 0.688730 0.549930 -0.499485
O8    O     O_R   0.311270 0.485240 0.549930 -0.498486
O9    O     O_R   0.514760 0.826030 0.549930 -0.499301
O10   O     O_R   0.140110 0.470540 0.446010 -0.521025
O11   O     O_R   0.529460 0.669570 0.446010 -0.520807
O12   O     O_R   0.330430 0.859890 0.446010 -0.524899
O13   O     O_R   0.176710 0.690910 0.450560 -0.501349
O14   O     O_R   0.309090 0.485800 0.450560 -0.500897
O15   O     O_R   0.514200 0.823290 0.450560 -0.505081
O16   O     O_3   0.333333 0.666667 0.499990 -0.264763
O17   O     O_R   0.176750 0.985260 0.074180 -0.527301
O18   O     O_R   0.014740 0.191490 0.074180 -0.501850
O19   O     O_R   0.808510 0.823250 0.074180 -0.515794
O20   O     O_R   0.146100 0.172630 0.068980 -0.489110
O21   O     O_R   0.827370 0.973470 0.068980 -0.511385
O22   O     O_R   0.026530 0.853900 0.068980 -0.491700
O23   O     O_3   0.000000 0.000000 0.020040 -0.291719
O24   O     O_R   0.148270 0.170520 0.969620 -0.512614
O25   O     O_R   0.829480 0.977750 0.969620 -0.483932
O26   O     O_R   0.022250 0.851730 0.969620 -0.498502
F1    F     F_    0.780774 0.728310 0.793483 -0.675404
F2    F     F_    0.294749 0.050997 0.795461 -0.662161
F3    F     F_    0.973061 0.267975 0.803211 -0.658575

loop_
_geom_bond_atom_site_label_1
_geom_bond_atom_site_label_2
_ccdc_geom_bond_type
C15   C18   T    
C79   H37   S    
C43   C46   A    
C10   C85   T    
C36   O15   A    
Cr1   O16   S    
C81   C84   S    
C2    C18   S    
C33   C45   A    
C14   C17   T    
C27   C78   A    
C92   H8    S    
C60   H30   S    
C6    C9    S    
C6    H57   S    
C53   C59   A    
C50   H35   S    
C20   O21   A    
C54   C60   A    
C25   C28   A    
C21   O22   A    
C40   H19   S    
C7    H52   S    
C59   H29   S    
C67   C88   S    
C33   C39   A    
Cr1   O13   S    
C31   C43   A    
C60   C63   A    
C82   C94   S    
C67   H31   S    
C37   C40   A    
C69   C93   S    
C25   H13   S    
C34   C77   S    
C53   C56   A    
C79   H40   S    
Cr3   O12   S    
C10   C94   S    
C11   C86   T    
Cr1   O7    S    
C83   H44   S    
C30   C57   A    
C6    F3    S    
Cr2   O11   S    
Cr1   O10   S    
C84   C96   S    
C4    F1    S    
C80   C89   S    
Cr4   O24   S    
C8    H53   S    
C36   C76   S    
C33   C72   A    
C93   H3    S    
C23   O6    A    
C45   H12   S    
C28   C55   A    
C31   C70   A    
C66   C72   A    
C37   H16   S    
C7    C88   S    
C9    H54   S    
Cr4   O17   S    
Cr6   O23   S    
C64   C73   A    
C68   H5    S    
C32   C38   A    
C39   C42   A    
Cr4   O23   S    
C19   O18   A    
Cr2   O8    S    
C12   C87   T    
C44   C47   A    
C29   C41   A    
C56   C71   A    
C58   C61   A    
C81   H39   S    
C63   C66   A    
C9    H51   S    
C69   H33   S    
C27   C30   A    
C48   C75   A    
C80   C83   S    
C79   C88   S    
C5    C95   S    
C69   H6    S    
C42   H21   S    
C32   C71   A    
C81   H42   S    
C26   C77   A    
C50   C53   A    
Cr1   O1    S    
C83   H47   S    
C47   C74   A    
C38   C41   A    
Cr2   O14   S    
C92   H2    S    
C19   C48   S    
C20   O19   A    
C4    C7    S    
C65   C71   A    
C92   C95   S    
C65   C74   A    
C31   C37   A    
C24   O26   A    
C35   O14   A    
C41   H20   S    
C61   C64   A    
Cr5   O23   S    
C64   C70   A    
C14   C89   S    
C22   O24   A    
C80   H41   S    
C5    C8    S    
Cr3   O3    S    
C22   O5    A    
C4    H55   S    
C73   H22   S    
C83   C95   S    
C67   C91   S    
C68   C89   S    
C32   C44   A    
C49   C76   A    
C61   H25   S    
C22   C87   S    
Cr5   O25   S    
C52   C58   A    
C93   H9    S    
C7    H49   S    
C81   C90   S    
Cr2   O2    S    
C49   H34   S    
C1    O3    A    
C93   C96   S    
C6    C96   S    
C35   O10   A    
C4    C94   S    
C24   O4    A    
C43   H10   S    
C5    F2    S    
C69   C90   S    
C50   C77   A    
C19   O20   A    
C82   H43   S    
C34   O13   A    
C38   H17   S    
Cr3   O9    S    
C45   C48   A    
C11   C95   S    
C34   O12   A    
C59   C62   A    
C62   C65   A    
C8    H50   S    
Cr6   O22   S    
C1    C17   S    
Cr5   O5    S    
C30   C42   A    
C49   C52   A    
C91   H1    S    
C9    C90   S    
C44   H11   S    
C79   C82   S    
C82   H46   S    
C52   C55   A    
C67   H4    S    
C29   C56   A    
C84   H45   S    
Cr6   O26   S    
C35   C78   S    
C36   O11   A    
C51   C54   A    
C25   C76   A    
C75   H24   S    
C68   H32   S    
C51   C78   A    
C23   O25   A    
Cr5   O21   S    
C80   H38   S    
C91   C94   S    
C62   H26   S    
Cr2   O16   S    
C91   H7    S    
Cr3   O15   S    
C1    O7    A    
C58   H28   S    
Cr6   O19   S    
C66   C75   A    
C13   C88   S    
Cr6   O6    S    
C68   C92   S    
Cr4   O4    S    
C63   H27   S    
C57   C72   A    
C21   O17   A    
C26   H14   S    
C55   C70   A    
Cr5   O18   S    
C3    O2    A    
C74   H23   S    
C51   H36   S    
Cr3   O16   S    
C26   C29   A    
C2    O1    A    
C5    H56   S    
C23   C85   S    
C13   C16   T    
C28   C40   A    
C12   C96   S    
C8    C89   S    
C27   H15   S    
C21   C47   S    
Cr4   O20   S    
C24   C86   S    
C2    O8    A    
C46   C73   A    
C20   C46   S    
C3    C16   S    
C39   H18   S    
C3    O9    A    
C15   C90   S    
C54   C57   A    
C84   H48   S    
