data_mof_unit_14499.cif
_audit_creation_date              2012-12-10T19:00:14-0500
_audit_creation_method            fapswitch 2.2
_symmetry_space_group_name_H-M    P1
_symmetry_Int_Tables_number       1
_space_group_crystal_system       triclinic
_cell_length_a                    9.588261
_cell_length_b                    10.793871
_cell_length_c                    13.407556
_cell_angle_alpha                 91.454665
_cell_angle_beta                  72.433732
_cell_angle_gamma                 89.598544
_cell_volume                      1322.31848399

loop_
_atom_site_label
_atom_site_type_symbol
_atom_type_description
_atom_site_fract_x
_atom_site_fract_y
_atom_site_fract_z
_atom_type_partial_charge
C1    C     C_R   0.499186 0.737251 0.500911 0.832370
C2    C     C_R   0.435715 0.489784 0.979049 0.097933
C3    C     C_R   0.457594 0.533057 0.876487 0.025594
C4    C     C_R   0.535638 0.525459 0.034099 0.098690
C5    C     C_R   0.647189 0.611374 0.989589 0.149823
C6    C     C_R   0.655236 0.663712 0.894266 -0.155260
C7    C     C_R   0.561723 0.625750 0.838631 -0.159227
C8    C     C_R   0.527531 0.479574 0.132683 -0.227775
C9    C     C_R   0.733504 0.603033 0.141652 -0.203657
C10   C     C_R   0.373408 0.484140 0.814488 -0.152493
C11   C     C_R   0.409225 0.936164 0.460526 0.169588
C12   C     C_R   0.420992 0.499311 0.700232 0.866543
C13   C     C_R   0.493334 0.870232 0.509505 -0.134207
C14   C     C_R   0.564770 0.933305 0.571975 -0.279859
C15   C     C_R   0.564284 0.063136 0.576961 0.346074
C16   C     C_R   0.494319 0.129233 0.514227 -0.235203
C17   C     C_R   0.411074 0.063641 0.461841 0.070395
C18   C     C_3   0.416527 0.067537 0.349192 -0.467497
C19   C     C_3   0.413062 0.927244 0.348536 -0.463954
C20   C     C_R   0.962582 0.452730 0.415979 0.230603
C21   C     C_R   0.890598 0.561465 0.575213 -0.062877
C22   C     C_R   0.038144 0.565989 0.575455 0.484630
C23   C     C_R   0.498618 0.262689 0.504953 0.841294
C24   C     C_R   0.108862 0.450607 0.417028 0.181574
C25   C     C_3   0.131665 0.320823 0.374629 -0.484076
C26   C     C_3   0.975579 0.324944 0.369226 -0.456660
C27   C     C_R   0.578298 0.502136 0.300262 0.766884
C28   C     C_R   0.746974 0.647185 0.042579 -0.170237
C29   C     C_R   0.620525 0.522375 0.188054 -0.043895
C30   C     C_R   0.255893 0.404629 0.859353 0.476267
C31   C     C_R   0.223311 0.375784 0.964696 -0.230366
C32   C     C_R   0.313608 0.414299 0.022913 -0.248741
Cu1   Cu    Cu3+1 0.359330 0.500020 0.500010 1.020337
Cu2   Cu    Cu3+1 0.640670 0.499980 0.499990 0.994251
H1    H     H_    0.805157 0.637885 0.184456 0.150756
H2    H     H_    0.316484 0.108973 0.338059 0.200470
H3    H     H_    0.521079 0.104870 0.298519 0.194298
H4    H     H_    0.310137 0.889117 0.339261 0.205945
H5    H     H_    0.515320 0.882566 0.297094 0.190294
H6    H     H_    0.805128 0.607905 0.636593 0.182019
H7    H     H_    0.215135 0.313667 0.296445 0.178825
H8    H     H_    0.146348 0.255317 0.433407 0.220236
H9    H     H_    0.969625 0.324742 0.287685 0.179940
H10   H     H_    0.733957 0.734857 0.862832 0.206190
H11   H     H_    0.902483 0.258070 0.420377 0.256059
H12   H     H_    0.831959 0.713028 0.009049 0.141069
H13   H     H_    0.446790 0.413197 0.170582 0.130935
H14   H     H_    0.282083 0.385834 0.102923 0.143297
H15   H     H_    0.128879 0.320335 0.001249 0.154723
H16   H     H_    0.570135 0.671807 0.766392 0.151173
H17   H     H_    0.622698 0.881081 0.615503 0.195219
N1    N     N_R   0.852320 0.499070 0.499340 -0.209603
N2    N     N_R   0.148230 0.499110 0.499340 -0.254670
O1    O     O_R   0.381190 0.680360 0.500000 -0.531733
O2    O     O_R   0.618780 0.680320 0.499990 -0.608598
O3    O     O_R   0.323230 0.500000 0.650990 -0.482389
O4    O     O_R   0.560820 0.499960 0.650980 -0.566138
O5    O     O_R   0.381220 0.319680 0.500010 -0.598169
O6    O     O_R   0.618810 0.319640 0.500000 -0.523769
O7    O     O_R   0.439180 0.500040 0.349020 -0.587499
O8    O     O_R   0.676770 0.500000 0.349010 -0.590244
S1    S     S_3+6 0.653094 0.134097 0.661707 0.000671
O9    O     O_2   0.577833 0.253296 0.708870 -0.289784
O10   O     O_2   0.651968 0.048884 0.748942 -0.290195
O11   O     O_3   0.827580 0.163274 0.594826 -0.532733
H18   H     H_    0.873465 0.080747 0.571605 0.341598
S2    S     S_3+6 0.056617 0.658945 0.683286 0.003260
O12   O     O_2   0.203427 0.712719 0.672812 -0.293302
O13   O     O_2   0.950209 0.766147 0.700544 -0.357555
O14   O     O_3   0.007194 0.572431 0.790347 -0.495836
H19   H     H_    0.026640 0.624543 0.846414 0.357572
O15   O     O_3   0.166565 0.362382 0.801935 -0.532275
C33   C     C_3   0.189262 0.233792 0.780821 0.047600
H20   H     H_    0.155420 0.180797 0.854168 0.146258
H21   H     H_    0.305916 0.212451 0.738216 0.167368
C34   C     C_3   0.097677 0.190884 0.711841 -0.627620
H22   H     H_    0.126779 0.243463 0.638469 0.253416
H23   H     H_    0.118092 0.090589 0.691663 0.207399
H24   H     H_    0.979619 0.206209 0.753821 0.288656

loop_
_geom_bond_atom_site_label_1
_geom_bond_atom_site_label_2
_ccdc_geom_bond_type
C23   O5    A    
Cu1   O5    S    
C27   C29   S    
C32   H14   S    
C33   H20   S    
C34   H24   S    
C4    C8    A    
C23   O6    A    
C11   C19   S    
C8    C29   A    
C19   H5    S    
C18   H3    S    
C34   H23   S    
C3    C7    A    
C27   O7    A    
C5    C6    A    
C15   C16   A    
C2    C32   A    
C18   C19   S    
S1    O10   D    
C27   O8    A    
C26   H11   S    
C14   H17   S    
C16   C17   A    
Cu2   O4    S    
O14   H19   S    
C9    C29   A    
Cu1   O3    S    
Cu2   O2    S    
C6    H10   S    
C21   C22   A    
C33   H21   S    
C31   H15   S    
C26   H9    S    
Cu1   Cu2   S    
C22   N2    A    
Cu1   N2    S    
S2    O12   D    
C20   C24   A    
C34   H22   S    
C24   N2    A    
C25   H7    S    
O15   C33   S    
C25   C26   S    
Cu2   O8    S    
S2    O13   D    
C2    C4    A    
C1    O1    A    
S1    O9    D    
C19   H4    S    
C5    C28   A    
C10   C30   A    
C31   C32   A    
C28   H12   S    
C17   C18   S    
C24   C25   S    
C12   O3    A    
C10   C12   S    
C12   O4    A    
C16   C23   S    
Cu2   O6    S    
C33   C34   S    
C1    C13   S    
Cu1   O1    S    
C11   C17   A    
S1    O11   S    
C7    H16   S    
C4    C5    A    
C25   H8    S    
C30   O15   S    
C6    C7    A    
Cu1   O7    S    
Cu2   N1    S    
S2    O14   S    
C2    C3    A    
C1    O2    A    
C8    H13   S    
C20   N1    A    
C3    C10   A    
C11   C13   A    
C30   C31   A    
C21   H6    S    
C20   C26   S    
C15   S1    S    
C22   S2    S    
O11   H18   S    
C9    H1    S    
C14   C15   A    
C13   C14   A    
C18   H2    S    
C21   N1    A    
C9    C28   A    
