data_mof_unit_52678.cif
_audit_creation_date              2012-12-10T18:33:41-0500
_audit_creation_method            fapswitch 2.2
_symmetry_space_group_name_H-M    P1
_symmetry_Int_Tables_number       1
_space_group_crystal_system       triclinic
_cell_length_a                    10.527377
_cell_length_b                    14.891324
_cell_length_c                    15.523035
_cell_angle_alpha                 80.447021
_cell_angle_beta                  93.182192
_cell_angle_gamma                 102.707741
_cell_volume                      2340.50780172

loop_
_atom_site_label
_atom_site_type_symbol
_atom_type_description
_atom_site_fract_x
_atom_site_fract_y
_atom_site_fract_z
_atom_type_partial_charge
C1    C     C_R   0.482187 0.441078 0.662633 0.883218
C2    C     C_R   0.527958 0.558089 0.338328 0.909046
C3    C     C_R   0.492026 0.464726 0.818453 -0.087143
C4    C     C_R   0.560421 0.528616 0.188267 -0.049036
C5    C     C_R   0.450264 0.433288 0.904386 0.020450
C6    C     C_R   0.505785 0.543554 0.103121 0.032169
C7    C     C_R   0.423416 0.336854 0.936140 0.085031
C8    C     C_R   0.486367 0.635013 0.068821 0.068981
C9    C     C_R   0.449929 0.497491 0.961202 0.025845
C10   C     C_R   0.472222 0.471803 0.050459 0.101183
C11   C     C_R   0.456361 0.375495 0.083265 -0.163322
C12   C     C_R   0.423489 0.585670 0.929612 -0.241782
C13   C     C_R   0.426020 0.307439 0.027731 -0.056422
C14   C     C_R   0.437725 0.654017 0.982725 -0.047652
C15   C     C_R   0.683433 0.837939 0.648332 0.352156
C16   C     C_R   0.275611 0.154527 0.376561 0.336166
C17   C     C_R   0.677294 0.759858 0.607089 -0.053898
C18   C     C_R   0.328329 0.247423 0.386761 -0.091328
C19   C     C_R   0.488406 0.788699 0.525262 0.517599
C20   C     C_R   0.472039 0.198957 0.500467 0.508787
C21   C     C_R   0.491004 0.869808 0.564133 -0.152344
C22   C     C_R   0.409034 0.103293 0.501369 -0.162496
C23   C     C_R   0.742287 0.500905 0.498416 0.926972
C24   C     C_R   0.258103 0.500132 0.499534 0.898822
C25   C     C_R   0.588951 0.891802 0.628062 0.000700
C26   C     C_R   0.311899 0.082376 0.436424 -0.006434
C27   C     C_R   0.410465 0.935743 0.535579 0.114938
C28   C     C_R   0.447889 0.026978 0.557568 0.104810
C29   C     C_R   0.524968 0.037467 0.633394 -0.197352
C30   C     C_R   0.297893 0.916737 0.483324 -0.180728
C31   C     C_R   0.595477 0.970784 0.667891 -0.143167
C32   C     C_R   0.251921 0.989093 0.432374 -0.174700
C33   C     C_3   0.936014 0.438633 0.448649 -0.157400
C34   C     C_3   0.065924 0.564909 0.546303 -0.162009
C35   C     C_3   0.018280 0.415828 0.532143 -0.265753
C36   C     C_3   0.983334 0.587759 0.462917 -0.228738
C37   C     C_3   0.123412 0.501183 0.498444 -0.043683
C38   C     C_3   0.877895 0.501999 0.496782 -0.088899
C39   C     C_3   0.043285 0.523925 0.416215 0.045563
C40   C     C_3   0.958685 0.479579 0.578868 -0.023655
C41   C     C_R   0.463756 0.403957 0.756428 -0.121601
C42   C     C_R   0.551525 0.591753 0.244871 -0.126072
C43   C     C_R   0.397410 0.274902 0.874572 -0.136306
C44   C     C_R   0.521275 0.705805 0.120786 -0.149582
C45   C     C_R   0.412134 0.308909 0.785143 -0.174453
C46   C     C_R   0.549912 0.683454 0.208873 -0.246878
H1    H     H_    0.037474 0.346997 0.562148 0.164214
H2    H     H_    0.965351 0.657370 0.434175 0.173233
H3    H     H_    0.536183 0.098334 0.664730 0.210342
H4    H     H_    0.246797 0.846569 0.478117 0.212003
H5    H     H_    0.882413 0.388869 0.406600 0.197859
H6    H     H_    0.122845 0.615562 0.586487 0.184508
H7    H     H_    0.570359 0.737527 0.248480 0.154264
H8    H     H_    0.388079 0.260292 0.738984 0.172723
H9    H     H_    0.363402 0.200761 0.894215 0.179338
H10   H     H_    0.522865 0.778002 0.094903 0.173515
H11   H     H_    0.466916 0.351887 0.152232 0.209724
H12   H     H_    0.385989 0.599867 0.863470 0.208595
H13   H     H_    0.662508 0.985241 0.721790 0.178385
H14   H     H_    0.172823 0.970650 0.386771 0.172546
N1    N     N_R   0.574200 0.731700 0.552740 -0.205271
N2    N     N_R   0.425800 0.268300 0.447260 -0.202897
O1    O     O_R   0.462600 0.383110 0.605620 -0.591036
O2    O     O_R   0.537400 0.616890 0.394380 -0.644895
O3    O     O_R   0.510210 0.531900 0.639510 -0.571075
O4    O     O_R   0.489790 0.468100 0.360490 -0.571102
O5    O     O_R   0.662240 0.425610 0.483080 -0.598520
O6    O     O_R   0.337760 0.574390 0.516920 -0.573003
O7    O     O_R   0.709860 0.574400 0.516970 -0.616556
O8    O     O_R   0.290140 0.425600 0.483030 -0.614121
Zn1   Zn    Zn3+2 0.468210 0.400660 0.477370 1.018807
Zn2   Zn    Zn3+2 0.531790 0.599340 0.522630 1.015573
O9    O     O_3   0.579858 0.223400 0.553180 -0.631883
C47   C     C_3   0.694395 0.239384 0.504071 0.141087
H15   H     H_    0.769238 0.289336 0.535084 0.201192
H16   H     H_    0.682031 0.271165 0.434539 0.157254
C48   C     C_3   0.747266 0.150932 0.508299 -0.425242
H17   H     H_    0.766862 0.123321 0.577499 0.256205
H18   H     H_    0.675902 0.097675 0.478405 0.229735
C49   C     C_3   0.873598 0.170227 0.459209 -0.947316
H19   H     H_    0.856947 0.195942 0.389094 0.272751
H20   H     H_    0.908290 0.104354 0.465868 0.268118
H21   H     H_    0.949401 0.222360 0.487074 0.281127
O10   O     O_3   0.403040 0.768563 0.456947 -0.631162
C50   C     C_3   0.469314 0.795486 0.376727 0.115799
H22   H     H_    0.416595 0.747899 0.332622 0.223109
H23   H     H_    0.572994 0.788555 0.382775 0.129776
C51   C     C_3   0.463856 0.894943 0.333270 -0.408425
H24   H     H_    0.360766 0.901061 0.323621 0.259330
H25   H     H_    0.516140 0.945660 0.374976 0.227387
C52   C     C_3   0.526459 0.919541 0.243776 -0.942924
H26   H     H_    0.627336 0.907881 0.248702 0.258152
H27   H     H_    0.529741 0.994087 0.217647 0.291223
H28   H     H_    0.468202 0.876443 0.197613 0.276449
C53   C     C_2   0.267344 0.320564 0.337068 1.045789
O11   O     O_2   0.166508 0.333941 0.362829 -0.664101
O12   O     O_R   0.318478 0.369398 0.257804 -0.810715
H29   H     H_    0.266288 0.416427 0.229233 0.348828
C54   C     C_2   0.790519 0.715889 0.616881 1.015241
O13   O     O_2   0.783975 0.639038 0.660518 -0.599503
O14   O     O_R   0.908126 0.765498 0.579400 -0.810178
H30   H     H_    0.980667 0.730128 0.592644 0.337361
O15   O     O_3   0.789149 0.867381 0.701818 -0.637230
C55   C     C_3   0.762355 0.822444 0.788436 0.103441
H31   H     H_    0.781345 0.751353 0.795998 0.178461
H32   H     H_    0.659729 0.818085 0.806444 0.192488
C56   C     C_3   0.852718 0.876230 0.851649 -0.352736
H33   H     H_    0.955694 0.879018 0.836681 0.247439
H34   H     H_    0.837591 0.948746 0.843474 0.227934
C57   C     C_3   0.826412 0.829999 0.946263 -0.904582
H35   H     H_    0.724645 0.828342 0.963193 0.260647
H36   H     H_    0.893751 0.870189 0.990706 0.270491
H37   H     H_    0.842203 0.757601 0.956201 0.278289
O16   O     O_3   0.207818 0.135135 0.300192 -0.584454
C58   C     C_3   0.072688 0.122157 0.311515 0.063328
H38   H     H_    0.046664 0.189818 0.313640 0.189933
H39   H     H_    0.040033 0.072954 0.372020 0.124867
C59   C     C_3   0.000668 0.082039 0.233652 -0.283760
H40   H     H_    0.035531 0.128655 0.172095 0.255573
H41   H     H_    0.021735 0.012397 0.231998 0.222838
C60   C     C_3   0.853896 0.072386 0.239185 -0.968492
H42   H     H_    0.816731 0.026195 0.300383 0.269279
H43   H     H_    0.804500 0.041743 0.182449 0.276635
H44   H     H_    0.830354 0.141785 0.237678 0.278911
C61   C     C_2   0.095225 0.549084 0.325466 0.922910
O17   O     O_2   0.047389 0.502580 0.269238 -0.599510
O18   O     O_R   0.198408 0.625636 0.305813 -0.825711
H45   H     H_    0.226390 0.635078 0.242910 0.347110
C62   C     C_2   0.909898 0.453431 0.670342 0.949730
O19   O     O_2   0.818722 0.387183 0.688213 -0.622190
O20   O     O_R   0.970392 0.504154 0.734941 -0.778814
H46   H     H_    0.931823 0.478089 0.794622 0.377071
C63   C     C_2   0.410986 0.208073 0.067901 0.891491
O21   O     O_2   0.353116 0.179643 0.136553 -0.576971
O22   O     O_R   0.467869 0.147949 0.030047 -0.810233
H47   H     H_    0.451814 0.082517 0.064455 0.344140
C64   C     C_2   0.397925 0.742855 0.946354 0.892142
O23   O     O_2   0.415292 0.775758 0.869243 -0.631303
O24   O     O_R   0.334941 0.786630 0.998888 -0.811135
H48   H     H_    0.311533 0.845810 0.966209 0.349279
C65   C     C_2   0.657957 0.467857 0.208886 0.906390
O25   O     O_2   0.692381 0.444481 0.284222 -0.639103
O26   O     O_R   0.718175 0.443119 0.140862 -0.781721
H49   H     H_    0.784000 0.403609 0.162680 0.365763
C66   C     C_2   0.600330 0.547576 0.805073 0.992469
O27   O     O_2   0.580225 0.623388 0.771205 -0.655105
O28   O     O_R   0.723685 0.538623 0.838606 -0.766824
H50   H     H_    0.790226 0.599588 0.831405 0.349607

loop_
_geom_bond_atom_site_label_1
_geom_bond_atom_site_label_2
_ccdc_geom_bond_type
C25   C31   A    
C38   C40   S    
C40   C62   S    
C26   C32   A    
O14   H30   S    
C39   C61   S    
C34   C37   S    
O9    C47   S    
C23   O7    A    
C53   O11   D    
C35   H1    S    
C55   H32   S    
O16   C58   S    
C24   O8    A    
O22   H47   S    
C29   H3    S    
C48   H17   S    
C64   O24   S    
C33   C39   S    
C47   H16   S    
C34   C40   S    
C28   C29   A    
C35   C37   S    
C19   N1    A    
C65   O26   S    
O26   H49   S    
C48   C49   S    
C31   H13   S    
C58   H38   S    
O12   H29   S    
C42   C46   A    
C23   O5    A    
C57   H35   S    
C60   H44   S    
O15   C55   S    
C17   N1    A    
C59   H40   S    
O28   H50   S    
C44   C46   A    
C58   H39   S    
C47   C48   S    
C20   O9    S    
C1    O3    A    
C56   H33   S    
C14   C64   S    
O8    Zn1   S    
C7    C43   A    
C9    C10   A    
O5    Zn1   S    
C12   H12   S    
C50   H23   S    
C30   H4    S    
C22   C28   A    
C27   C30   A    
C20   N2    A    
C18   C53   S    
C56   H34   S    
C49   H21   S    
C1    O1    A    
C55   H31   S    
C66   O28   S    
C2    O2    A    
C66   O27   D    
C59   H41   S    
C48   H18   S    
C16   C26   A    
C47   H15   S    
O10   C50   S    
C4    C6    A    
C4    C65   S    
C5    C7    A    
C18   N2    A    
C6    C8    A    
C3    C5    A    
C50   H22   S    
C59   C60   S    
O7    Zn2   S    
C5    C9    A    
C52   H27   S    
C43   C45   A    
C44   H10   S    
O4    Zn1   S    
C51   C52   S    
O6    Zn2   S    
C58   C59   S    
C24   C37   S    
C16   C18   A    
C17   C54   S    
C57   H37   S    
C60   H42   S    
N1    Zn2   S    
C43   H9    S    
C54   O14   S    
O1    Zn1   S    
C45   H8    S    
C3    C66   S    
C61   O17   D    
C56   C57   S    
C20   C22   A    
C19   O10   S    
O3    Zn2   S    
C52   H26   S    
C63   O22   S    
C62   O19   D    
C50   C51   S    
C1    C41   S    
C15   C17   A    
C21   C25   A    
C3    C41   A    
C8    C14   A    
C19   C21   A    
C13   C63   S    
C36   C39   S    
C8    C44   A    
C51   H25   S    
C49   H19   S    
C2    O4    A    
C16   O16   S    
C6    C10   A    
O24   H48   S    
C53   O12   S    
C33   H5    S    
C23   C38   S    
C64   O23   D    
C34   H6    S    
C33   C38   S    
C54   O13   D    
C36   C38   S    
C35   C40   S    
C12   C14   A    
C37   C39   S    
C41   C45   A    
C65   O25   D    
C52   H28   S    
C30   C32   A    
C11   C13   A    
C63   O21   D    
C4    C42   A    
C2    C42   S    
C46   H7    S    
C33   C35   S    
C49   H20   S    
N2    Zn1   S    
C36   H2    S    
C34   C36   S    
O2    Zn2   S    
C21   C27   A    
O20   H46   S    
C9    C12   A    
C57   H36   S    
C60   H43   S    
C15   C25   A    
C10   C11   A    
C24   O6    A    
C7    C13   A    
C51   H24   S    
C29   C31   A    
C22   C26   A    
C27   C28   A    
C61   O18   S    
C32   H14   S    
C15   O15   S    
C11   H11   S    
C55   C56   S    
O18   H45   S    
C62   O20   S    
