data_mof_unit_44957.cif
_audit_creation_date              2013-03-05T15:44:59-0500
_audit_creation_method            fapswitch 2.2
_symmetry_space_group_name_H-M    P1
_symmetry_Int_Tables_number       1
_space_group_crystal_system       triclinic
_cell_length_a                    10.993744
_cell_length_b                    11.028738
_cell_length_c                    18.824281
_cell_angle_alpha                 90.393216
_cell_angle_beta                  90.190208
_cell_angle_gamma                 120.520625
_cell_volume                      1966.04891906

loop_
_atom_site_label
_atom_site_type_symbol
_atom_site_description
_atom_site_fract_x
_atom_site_fract_y
_atom_site_fract_z
_atom_type_partial_charge
O1    O     O_R   0.766500 0.250040 0.579790 -0.532179
O2    O     O_R   0.798570 0.516780 0.574780 -0.512676
C1    C     C_R   0.872500 0.636549 0.606832 0.562283
O3    O     O_R   0.984000 0.732950 0.581090 -0.418342
O4    O     O_R   0.218600 0.700890 0.574760 -0.498546
C2    C     C_R   0.274597 0.634682 0.602444 0.533027
O5    O     O_R   0.249390 0.515350 0.579940 -0.502790
O6    O     O_R   0.982790 0.280900 0.573700 -0.454219
C3    C     C_R   0.860832 0.223662 0.602380 0.561187
O7    O     O_R   0.766600 0.251130 0.419260 -0.488634
O8    O     O_R   0.798660 0.517790 0.425980 -0.438506
C4    C     C_R   0.862030 0.638888 0.398701 0.558706
O9    O     O_R   0.984100 0.734040 0.420570 -0.521016
O10   O     O_R   0.218690 0.701900 0.425960 -0.513888
C5    C     C_R   0.266091 0.631426 0.395481 0.530643
O11   O     O_R   0.249490 0.516440 0.419420 -0.489896
O12   O     O_R   0.982880 0.281910 0.424890 -0.495109
C6    C     C_R   0.861906 0.228332 0.396197 0.546610
Cr1   Cr    Cr6+3 0.791660 0.390250 0.499930 1.096612
Cr2   Cr    Cr6+3 0.098520 0.708290 0.500540 1.099902
Cr3   Cr    Cr6+3 0.109770 0.401430 0.499480 1.123062
O13   O     O_3   0.999980 0.499990 0.499980 -0.293193
C7    C     C_R   0.333994 0.782550 0.710533 -0.108367
H1    H     H_    0.309606 0.853313 0.683636 0.199688
C8    C     C_R   0.353307 0.792499 0.783888 -0.093060
H2    H     H_    0.351665 0.876188 0.813341 0.187774
C9    C     C_R   0.372306 0.692129 0.818871 0.019971
C10   C     C_R   0.386972 0.592394 0.779386 -0.130822
H3    H     H_    0.409186 0.518506 0.804641 0.129602
C11   C     C_R   0.375844 0.587660 0.706718 -0.124870
H4    H     H_    0.385502 0.507263 0.678305 0.143147
C12   C     C_R   0.339304 0.676419 0.672264 0.008028
C13   C     C_R   0.847468 0.171682 0.824022 -0.027008
C14   C     C_R   0.088469 0.220538 0.824917 -0.101785
C15   C     C_R   0.207206 0.241534 0.789397 -0.148341
C16   C     C_R   0.202108 0.217396 0.716655 -0.061966
C17   C     C_R   0.076801 0.171605 0.677973 0.259691
C18   C     C_R   0.959350 0.168404 0.711872 -0.022533
C19   C     C_R   0.963683 0.183117 0.787437 -0.044514
H5    H     H_    0.303332 0.277711 0.819233 0.100138
H6    H     H_    0.295458 0.231345 0.690512 0.136519
H7    H     H_    0.097940 0.243094 0.881392 0.142895
C20   C     C_R   0.723268 0.138643 0.712340 0.006899
C21   C     C_R   0.741119 0.177090 0.784356 0.024444
C22   C     C_R   0.592395 0.098747 0.679552 -0.082684
C23   C     C_R   0.496880 0.127768 0.712357 -0.121582
C24   C     C_R   0.527485 0.190693 0.779174 -0.129309
C25   C     C_R   0.649011 0.216501 0.814959 -0.070788
C26   C     C_R   0.840889 0.156613 0.673541 -0.007091
H8    H     H_    0.670158 0.266699 0.866786 0.140483
H9    H     H_    0.400484 0.102827 0.685205 0.179312
H10   H     H_    0.566014 0.049857 0.627317 0.140532
H11   H     H_    0.455690 0.215469 0.804600 0.113648
C27   C     C_R   0.710495 0.564627 0.709414 -0.178932
H12   H     H_    0.640234 0.465394 0.682970 0.146934
C28   C     C_R   0.685188 0.582656 0.780116 -0.154112
H13   H     H_    0.601267 0.494987 0.808146 0.123687
C29   C     C_R   0.773365 0.711357 0.814675 -0.017309
C30   C     C_R   0.881378 0.821000 0.777810 -0.098753
H14   H     H_    0.948752 0.920309 0.804860 0.174452
C31   C     C_R   0.928694 0.793858 0.715339 0.244318
C32   C     C_R   0.834651 0.667619 0.676464 0.011369
C33   C     C_R   0.414251 0.642452 0.296167 -0.141672
H15   H     H_    0.471792 0.610733 0.330604 0.178195
C34   C     C_R   0.442739 0.658131 0.224475 -0.128438
H16   H     H_    0.523590 0.638940 0.204239 0.144057
C35   C     C_R   0.366998 0.696928 0.178909 0.025875
C36   C     C_R   0.266845 0.726555 0.205553 -0.153690
H17   H     H_    0.209059 0.757253 0.170537 0.117155
C37   C     C_R   0.237505 0.710072 0.277789 -0.138543
H18   H     H_    0.155105 0.726978 0.298037 0.148097
C38   C     C_R   0.310746 0.666733 0.322910 0.008911
C39   C     C_R   0.714813 0.080676 0.294793 0.005966
C40   C     C_R   0.704979 0.061191 0.221725 -0.092482
H19   H     H_    0.602773 0.990524 0.197838 0.143866
C41   C     C_R   0.825039 0.130861 0.178856 0.013044
C42   C     C_R   0.958200 0.213372 0.208903 -0.169228
H20   H     H_    0.051594 0.263774 0.176090 0.125583
C43   C     C_R   0.969779 0.234696 0.281780 -0.139293
H21   H     H_    0.073420 0.306425 0.303885 0.159926
C44   C     C_R   0.848059 0.173064 0.324714 0.050458
C45   C     C_R   0.901363 0.782744 0.296595 -0.166448
H22   H     H_    0.972455 0.873821 0.328761 0.165508
C46   C     C_R   0.913677 0.791400 0.223988 -0.035838
C47   C     C_R   0.817494 0.673023 0.180918 0.006341
C48   C     C_R   0.723185 0.542995 0.213589 -0.058572
C49   C     C_R   0.715148 0.537440 0.288522 0.199935
C50   C     C_R   0.813823 0.655687 0.329066 -0.016046
O14   O     O_R   0.895110 0.806860 0.920430 -0.494716
O15   O     O_R   0.872260 0.046970 0.925000 -0.523578
C51   C     C_R   0.809224 0.107226 0.895987 0.524707
O16   O     O_R   0.691430 0.085060 0.918550 -0.519663
O17   O     O_R   0.451490 0.822460 0.925250 -0.498606
C52   C     C_R   0.404013 0.703415 0.894176 0.544853
O18   O     O_R   0.413330 0.603360 0.920440 -0.537106
O19   O     O_R   0.676110 0.626250 0.926750 -0.509281
C53   C     C_R   0.770724 0.732193 0.890930 0.569957
O20   O     O_R   0.895350 0.809870 0.080950 -0.522403
O21   O     O_R   0.872490 0.049760 0.073800 -0.514076
C54   C     C_R   0.805065 0.102161 0.103697 0.537875
O22   O     O_R   0.691680 0.088070 0.079070 -0.522670
O23   O     O_R   0.451720 0.825250 0.074050 -0.503512
C55   C     C_R   0.399100 0.705731 0.104359 0.543593
O24   O     O_R   0.413580 0.606370 0.080960 -0.517662
O25   O     O_R   0.676340 0.629040 0.075550 -0.506163
C56   C     C_R   0.798207 0.697656 0.106046 0.556379
Cr4   Cr    Cr6+3 0.874790 0.925890 0.000070 1.007945
Cr5   Cr    Cr6+3 0.574120 0.948670 0.999300 1.013535
Cr6   Cr    Cr6+3 0.551420 0.625320 0.000920 0.999003
O26   O     O_3   0.666780 0.833290 0.000090 -0.273807
N1    N     N_R   0.080457 0.872582 0.707199 0.055094
O27   O     O_R   0.140693 0.936368 0.648884 -0.305028
O28   O     O_R   0.158686 0.909663 0.764326 -0.425322
C57   C     C_3   0.583607 0.000482 0.338890 -0.350263
H23   H     H_    0.491397 0.935031 0.304500 0.137065
H24   H     H_    0.597414 0.931813 0.376921 0.120928
H25   H     H_    0.556528 0.070680 0.368111 0.217928
C58   C     C_3   0.036575 0.927993 0.196544 -0.354796
H26   H     H_    0.997833 0.991292 0.170214 0.183212
H27   H     H_    0.109556 0.995658 0.239550 0.123190
H28   H     H_    0.101491 0.905581 0.159702 0.147163
C59   C     C_3   0.636536 0.409272 0.170186 -0.336156
H29   H     H_    0.664006 0.420914 0.113205 0.134799
H30   H     H_    0.659283 0.327176 0.188055 0.179766
H31   H     H_    0.522227 0.371337 0.175805 0.159772
N2    N     N_R   0.605149 0.415164 0.323598 0.087287
O29   O     O_R   0.533835 0.430122 0.374475 -0.341060
O30   O     O_R   0.581376 0.289772 0.308542 -0.370545
N3    N     N_R   0.067438 0.117814 0.606971 0.122568
O31   O     O_R   0.949931 0.010580 0.583734 -0.338363
O32   O     O_R   0.178830 0.169619 0.566925 -0.317254

loop_
_geom_bond_atom_site_label_1
_geom_bond_atom_site_label_2
_geom_bond_distance
_ccdc_geom_bond_type
C2    C12   1.448530 S    
C49   C50   1.415614 A    
C33   C34   1.378495 A    
N2    O29   1.301270 A    
C39   C40   1.386020 A    
C15   C16   1.388648 A    
C14   H7    1.082698 S    
C57   H23   1.101719 S    
C35   C55   1.440052 S    
O4    Cr2   1.949397 S    
C47   C48   1.419815 A    
C5    C38   1.440986 S    
O8    Cr1   1.959571 S    
C13   C19   1.402115 A    
C40   C41   1.403306 A    
C10   H3    1.075350 S    
O15   Cr4   1.960683 S    
C13   C51   1.493557 S    
O17   Cr5   1.937258 S    
O24   Cr6   2.075569 S    
C5    O11   1.271958 A    
C6    C44   1.448630 S    
C28   H13   1.081043 S    
C14   C15   1.380431 A    
C23   C24   1.387389 A    
C58   H26   1.104438 S    
C36   H17   1.082335 S    
O16   Cr5   2.076173 S    
C24   C25   1.387406 A    
Cr5   O26   1.993477 S    
O6    C3    1.279631 A    
C34   C35   1.405120 A    
C48   C59   1.517015 S    
C7    H1    1.074416 S    
O23   Cr5   1.954982 S    
C37   H18   1.083312 S    
C28   C29   1.401161 A    
C31   C32   1.435891 A    
O9    Cr2   2.070091 S    
C24   H11   1.070755 S    
O22   Cr5   2.055743 S    
C25   H8    1.082924 S    
C30   H14   1.083219 S    
Cr3   O13   1.992744 S    
C16   H6    1.078465 S    
C52   O18   1.262755 A    
C29   C53   1.454881 S    
C39   C44   1.404252 A    
O12   C6    1.265827 A    
C42   C43   1.384748 A    
C18   C19   1.428469 A    
C27   C28   1.394019 A    
O1    Cr1   2.080347 S    
C30   C31   1.378582 A    
C40   H19   1.083755 S    
C4    C50   1.460101 S    
C14   C19   1.401657 A    
O10   Cr2   1.956226 S    
Cr1   O13   1.973457 S    
O1    C3    1.283026 A    
C46   C47   1.434410 A    
O18   Cr6   2.065133 S    
C51   O16   1.265195 A    
C43   C44   1.413062 A    
C48   C49   1.413414 A    
C20   C26   1.411642 A    
C27   C32   1.406609 A    
C22   H10   1.083368 S    
C29   C30   1.382906 A    
C42   H20   1.083500 S    
C23   H9    1.076275 S    
O12   Cr3   1.936223 S    
C39   C57   1.508042 S    
C35   C36   1.391934 A    
O14   C53   1.304373 A    
C58   H28   1.109734 S    
C20   C21   1.400687 A    
C17   C18   1.426601 A    
O21   C54   1.278113 A    
O7    Cr1   2.066867 S    
O19   C53   1.297246 A    
O14   Cr4   2.072146 S    
O6    Cr3   1.954848 S    
C3    C26   1.496724 S    
N1    O28   1.301511 A    
O17   C52   1.276618 A    
C41   C42   1.387616 A    
C20   C22   1.411392 A    
C36   C37   1.390261 A    
Cr2   O13   1.980669 S    
C34   H16   1.082679 S    
C45   C46   1.373092 A    
Cr4   O26   1.974941 S    
C43   H21   1.083513 S    
C8    C9    1.395200 A    
C59   H30   1.108630 S    
C1    O3    1.247026 A    
C31   N1    1.446783 S    
C55   O24   1.261434 A    
C18   C26   1.433203 A    
N3    O31   1.302388 A    
O19   Cr6   1.956326 S    
C1    C32   1.466598 S    
O25   Cr6   1.946929 S    
C27   H12   1.083294 S    
C16   C17   1.401678 A    
N2    O30   1.299275 A    
N1    O27   1.296427 A    
O2    Cr1   1.950128 S    
C13   C21   1.411988 A    
C57   H24   1.110207 S    
O8    C4    1.264716 A    
O11   Cr3   2.074191 S    
C2    O5    1.268642 A    
C41   C54   1.439200 S    
O21   Cr4   1.950013 S    
O25   C56   1.286989 A    
O20   C56   1.250703 A    
C7    C12   1.396608 A    
C59   H31   1.110377 S    
C10   C11   1.371254 A    
O2    C1    1.290268 A    
C8    H2    1.081466 S    
C21   C25   1.411963 A    
O5    Cr3   2.056278 S    
Cr6   O26   1.978777 S    
C11   C12   1.395228 A    
C11   H4    1.083067 S    
O15   C51   1.300144 A    
O4    C2    1.281948 A    
O7    C6    1.272257 A    
C45   C50   1.381777 A    
C54   O22   1.261473 A    
C17   N3    1.440539 S    
C15   H5    1.075237 S    
C7    C8    1.391480 A    
O23   C55   1.278932 A    
C58   H27   1.111436 S    
C57   H25   1.104495 S    
O20   Cr4   2.079566 S    
C33   H15   1.080714 S    
O3    Cr2   2.076779 S    
C22   C23   1.389023 A    
C33   C38   1.389762 A    
C46   C58   1.519787 S    
C45   H22   1.085163 S    
C9    C10   1.399314 A    
O10   C5    1.269685 A    
C9    C52   1.447986 S    
C37   C38   1.410732 A    
C4    O9    1.277375 A    
C59   H29   1.105838 S    
C49   N2    1.441567 S    
C47   C56   1.472075 S    
N3    O32   1.302210 A    
