data_mof_unit_65074.cif
_audit_creation_date              2012-12-10T21:18:29-0500
_audit_creation_method            fapswitch 2.2
_symmetry_space_group_name_H-M    P1
_symmetry_Int_Tables_number       1
_space_group_crystal_system       triclinic
_cell_length_a                    17.561532
_cell_length_b                    16.758598
_cell_length_c                    10.516578
_cell_angle_alpha                 89.792207
_cell_angle_beta                  90.107528
_cell_angle_gamma                 90.044866
_cell_volume                      3095.07215621

loop_
_atom_site_label
_atom_site_type_symbol
_atom_type_description
_atom_site_fract_x
_atom_site_fract_y
_atom_site_fract_z
_atom_type_partial_charge
Br1   Br    Br    0.717290 0.583086 0.256422 -0.524770
Br2   Br    Br    0.278906 0.382838 0.294093 -0.563401
Br3   Br    Br    0.281797 0.618802 0.705943 -0.527010
Br4   Br    Br    0.715364 0.417084 0.745954 -0.553908
C1    C     C_R   0.353366 0.500002 0.500029 0.957980
C2    C     C_R   0.539799 0.251802 0.590812 0.029904
C3    C     C_R   0.546018 0.747883 0.582169 0.051674
C4    C     C_R   0.460386 0.251973 0.409187 0.046044
C5    C     C_R   0.500025 0.875543 0.500213 0.149266
C6    C     C_R   0.500092 0.124420 0.500259 0.145457
C7    C     C_1   0.500067 0.963410 0.500300 -0.024806
C8    C     C_1   0.500097 0.036553 0.500335 -0.025506
C9    C     C_R   0.500440 0.500201 0.256804 0.919072
C10   C     C_R   0.500528 0.499793 0.743206 0.919632
C11   C     C_3   0.500636 0.576105 0.039920 -0.140285
C12   C     C_R   0.646303 0.500027 0.500179 0.970169
C13   C     C_3   0.501890 0.423844 0.960113 -0.141990
C14   C     C_3   0.563633 0.538262 0.957734 -0.117359
C15   C     C_3   0.438890 0.461684 0.042159 -0.178996
C16   C     C_3   0.438288 0.537034 0.957467 -0.168706
C17   C     C_3   0.564233 0.462911 0.042739 -0.111410
C18   C     C_3   0.501207 0.499299 0.877955 -0.004026
C19   C     C_3   0.501158 0.500659 0.122076 -0.006322
C20   C     C_R   0.847005 0.536099 0.402441 -0.162512
C21   C     C_R   0.151387 0.450096 0.419839 -0.160033
C22   C     C_R   0.152550 0.549906 0.586356 -0.165671
C23   C     C_1   0.965524 0.500280 0.504611 -0.001436
C24   C     C_R   0.846214 0.464668 0.603992 -0.157823
C25   C     C_R   0.768039 0.536202 0.400531 0.216627
C26   C     C_R   0.230339 0.449799 0.417633 0.225245
C27   C     C_R   0.231518 0.550497 0.585680 0.224275
C28   C     C_R   0.767238 0.464225 0.603423 0.212677
C29   C     C_R   0.728149 0.500103 0.501325 -0.168804
C30   C     C_R   0.270929 0.500080 0.501107 -0.177394
C31   C     C_R   0.885381 0.500456 0.503811 0.028073
C32   C     C_R   0.113234 0.499883 0.503870 0.028065
C33   C     C_1   0.033085 0.500093 0.504634 -0.000508
C34   C     C_R   0.453161 0.832456 0.416540 -0.249061
C35   C     C_R   0.540543 0.167611 0.592630 -0.252419
C36   C     C_R   0.546867 0.832059 0.583782 -0.251536
C37   C     C_R   0.459676 0.167805 0.407688 -0.249028
C38   C     C_R   0.453984 0.748269 0.417942 0.053020
H1    H     H_    0.386990 0.567188 0.918927 0.199078
H2    H     H_    0.876954 0.437492 0.682422 0.181401
H3    H     H_    0.416158 0.863599 0.350520 0.149406
H4    H     H_    0.572532 0.136550 0.665698 0.152640
H5    H     H_    0.583882 0.862884 0.649877 0.148745
H6    H     H_    0.427785 0.136907 0.334624 0.154678
H7    H     H_    0.417655 0.715699 0.353109 0.130009
H8    H     H_    0.571241 0.284406 0.662340 0.160484
H9    H     H_    0.582335 0.715010 0.646934 0.129824
H10   H     H_    0.429188 0.284672 0.337247 0.168602
H11   H     H_    0.615443 0.432920 0.082359 0.178306
H12   H     H_    0.500126 0.638173 0.076493 0.165049
H13   H     H_    0.502459 0.361782 0.923512 0.162570
H14   H     H_    0.614349 0.569254 0.918445 0.174069
H15   H     H_    0.388131 0.430504 0.080562 0.196447
H16   H     H_    0.878363 0.563300 0.324868 0.180730
H17   H     H_    0.119783 0.412010 0.355426 0.181754
H18   H     H_    0.121854 0.588174 0.651436 0.181048
N1    N     N_R   0.500000 0.707230 0.500000 -0.090265
N2    N     N_R   0.500000 0.292770 0.500000 -0.100360
O1    O     O_R   0.389110 0.566570 0.499990 -0.594269
O2    O     O_R   0.610890 0.433430 0.500010 -0.598129
O3    O     O_R   0.610890 0.566570 0.500010 -0.602395
O4    O     O_R   0.389110 0.433430 0.499990 -0.590884
O5    O     O_R   0.499980 0.566530 0.313950 -0.623741
O6    O     O_R   0.500020 0.433470 0.686050 -0.626934
O7    O     O_R   0.500020 0.566530 0.686050 -0.620889
O8    O     O_R   0.499980 0.433470 0.313950 -0.628000
Zn1   Zn    Zn3+2 0.500000 0.588860 0.500000 0.997730
Zn2   Zn    Zn3+2 0.500000 0.411140 0.500000 0.990834

loop_
_geom_bond_atom_site_label_1
_geom_bond_atom_site_label_2
_ccdc_geom_bond_type
C36   H5    S    
C11   C14   S    
C14   C17   S    
C15   C16   S    
C15   H15   S    
C9    C19   S    
C32   C33   S    
C34   C38   A    
C9    O8    A    
C25   C29   A    
C1    O1    A    
O7    Zn1   S    
C20   C25   A    
C3    N1    A    
C34   H3    S    
O4    Zn2   S    
C24   C31   A    
C3    C36   A    
C4    H10   S    
C14   H14   S    
N1    Zn1   S    
C11   C19   S    
C22   C27   A    
C6    C37   A    
C11   C16   S    
C20   C31   A    
C26   C30   A    
C11   H12   S    
C24   C28   A    
C4    C37   A    
C21   C32   A    
C23   C31   S    
O3    Zn1   S    
C24   H2    S    
C5    C36   A    
C13   C17   S    
C6    C35   A    
C15   C19   S    
C12   C29   S    
O6    Zn2   S    
C1    C30   S    
Br1   C25   S    
C27   C30   A    
N2    Zn2   S    
C2    H8    S    
Br3   C27   S    
C5    C7    S    
C38   N1    A    
Br4   C28   S    
C6    C8    S    
C35   H4    S    
C22   C32   A    
C16   C18   S    
C17   C19   S    
C10   O7    A    
C16   H1    S    
C9    O5    A    
C21   C26   A    
C13   H13   S    
C14   C18   S    
O1    Zn1   S    
C1    O4    A    
C7    C8    T    
C12   O2    A    
C13   C18   S    
Br2   C26   S    
C28   C29   A    
C2    N2    A    
C3    H9    S    
C17   H11   S    
C10   C18   S    
C23   C33   T    
C5    C34   A    
C13   C15   S    
C37   H6    S    
O5    Zn1   S    
O2    Zn2   S    
C38   H7    S    
C20   H16   S    
C10   O6    A    
C2    C35   A    
O8    Zn2   S    
C12   O3    A    
C21   H17   S    
C22   H18   S    
C4    N2    A    
