data_mof_unit_23681.cif
_audit_creation_date              2012-12-11T14:15:41-0500
_audit_creation_method            fapswitch 2.2
_symmetry_space_group_name_H-M    P1
_symmetry_Int_Tables_number       1
_space_group_crystal_system       triclinic
_cell_length_a                    11.162567
_cell_length_b                    12.72074
_cell_length_c                    23.552949
_cell_angle_alpha                 90.527594
_cell_angle_beta                  96.46827
_cell_angle_gamma                 68.513397
_cell_volume                      3090.33163503

loop_
_atom_site_label
_atom_site_type_symbol
_atom_type_description
_atom_site_fract_x
_atom_site_fract_y
_atom_site_fract_z
_atom_type_partial_charge
C1    C     C_R   0.149597 0.616596 0.428811 0.543523
C2    C     C_R   0.660447 0.558577 0.311166 -0.128752
C3    C     C_R   0.714161 0.727708 0.317992 -0.126810
C4    C     C_R   0.703642 0.736133 0.258480 0.040124
C5    C     C_R   0.680257 0.650234 0.226199 0.040675
C6    C     C_R   0.674499 0.654629 0.167528 -0.117480
C7    C     C_R   0.694192 0.838209 0.170621 -0.131234
C8    C     C_R   0.716187 0.827825 0.230358 -0.139511
C9    C     C_1   0.234984 0.162557 0.122906 0.000797
C10   C     C_2   0.179954 0.233191 0.226446 -0.119773
C11   C     C_2   0.156685 0.164782 0.263127 -0.120406
C12   C     C_R   0.749971 0.604000 0.403979 0.544027
C13   C     C_1   0.133611 0.198659 0.320822 -0.044718
C14   C     C_1   0.209432 0.197527 0.169604 -0.044211
C15   C     C_1   0.116992 0.231998 0.368533 0.000219
C16   C     C_1   0.167319 0.750536 0.123871 -0.000994
C17   C     C_2   0.142288 0.689980 0.228183 -0.124197
C18   C     C_2   0.236783 0.676023 0.271400 -0.126582
C19   C     C_1   0.218122 0.652238 0.329032 -0.047296
C20   C     C_1   0.155069 0.721685 0.170975 -0.045603
C21   C     C_1   0.194176 0.634588 0.376029 -0.002101
C22   C     C_1   0.625381 0.754969 0.864269 0.049316
C23   C     C_R   0.101397 0.282386 0.423384 0.543566
C24   C     C_2   0.696664 0.697424 0.761483 -0.111487
C25   C     C_2   0.606891 0.709695 0.716606 -0.130717
C26   C     C_1   0.646505 0.672946 0.661260 -0.052928
C27   C     C_1   0.659864 0.730718 0.817574 0.001108
C28   C     C_1   0.687431 0.641226 0.616371 -0.008274
C29   C     C_R   0.203851 0.178578 0.853434 -0.020932
C30   C     C_R   0.110476 0.223570 0.640413 -0.001518
C31   C     C_R   0.006246 0.179651 0.716527 -0.122670
C32   C     C_R   0.006494 0.201342 0.658636 -0.127637
C33   C     C_R   0.215491 0.218957 0.679754 -0.099226
C34   C     C_R   0.147957 0.616098 0.590957 0.541725
C35   C     C_R   0.207099 0.215857 0.737897 0.019550
C36   C     C_R   0.104242 0.189698 0.756538 0.022585
C37   C     C_R   0.104827 0.168789 0.814546 -0.131190
C38   C     C_R   0.290926 0.224029 0.835552 -0.116407
C39   C     C_R   0.298752 0.237499 0.777964 0.050410
C40   C     C_R   0.131534 0.745339 0.852674 0.019728
C41   C     C_R   0.178357 0.633781 0.650392 0.034063
C42   C     C_R   0.323958 0.601962 0.737241 -0.099361
C43   C     C_R   0.304204 0.589714 0.678510 -0.099531
C44   C     C_R   0.072735 0.690109 0.680343 -0.112800
C45   C     C_R   0.749389 0.602450 0.565881 0.545111
C46   C     C_R   0.091470 0.704490 0.737988 0.004798
C47   C     C_R   0.217601 0.658990 0.766971 0.035478
C48   C     C_R   0.235888 0.676254 0.824615 -0.154917
C49   C     C_R   0.004854 0.788329 0.823779 0.150804
C50   C     C_R   0.985718 0.766343 0.766472 -0.117818
C51   C     C_R   0.265569 0.110021 0.069417 0.539624
C52   C     C_R   0.600263 0.774646 0.081128 0.545768
C53   C     C_R   0.189549 0.788007 0.069867 0.547339
C54   C     C_R   0.241386 0.115451 0.907791 0.543617
C55   C     C_R   0.572921 0.776465 0.917900 0.555115
C56   C     C_R   0.100203 0.277609 0.584835 0.544020
C57   C     C_R   0.164445 0.786337 0.907437 0.568177
C58   C     C_R   0.668042 0.753115 0.139181 0.007607
C59   C     C_R   0.697986 0.635915 0.344460 0.008760
C60   C     C_R   0.655240 0.563890 0.252448 -0.143652
Cr1   Cr    Cr6+3 0.189770 0.415650 0.511620 1.043438
Cr2   Cr    Cr6+3 0.930400 0.667320 0.496770 1.023605
Cr3   Cr    Cr6+3 0.879870 0.417010 0.491650 1.027069
Cr4   Cr    Cr6+3 0.149500 0.973980 0.985330 1.068485
Cr5   Cr    Cr6+3 0.457000 0.976510 0.994660 1.063602
Cr6   Cr    Cr6+3 0.411170 0.724270 0.995270 1.027448
H1    H     H_    0.658254 0.586427 0.143958 0.136564
H2    H     H_    0.052178 0.681210 0.235940 0.142726
H3    H     H_    0.504165 0.747081 0.721234 0.135251
H4    H     H_    0.799064 0.657860 0.756717 0.140348
H5    H     H_    0.035158 0.136609 0.828632 0.152000
H6    H     H_    0.362574 0.238067 0.866617 0.170632
H7    H     H_    0.926884 0.160356 0.730240 0.135955
H8    H     H_    0.924486 0.203922 0.628568 0.133032
H9    H     H_    0.299633 0.226618 0.664629 0.188277
H10   H     H_    0.334060 0.643580 0.846209 0.143140
H11   H     H_    0.690168 0.914855 0.149472 0.137790
H12   H     H_    0.421626 0.567996 0.759206 0.120274
H13   H     H_    0.889150 0.802176 0.743541 0.138938
H14   H     H_    0.385725 0.545734 0.655307 0.120664
H15   H     H_    0.974356 0.722150 0.658830 0.134124
H16   H     H_    0.632475 0.500029 0.227613 0.111957
H17   H     H_    0.734526 0.894432 0.254447 0.113745
H18   H     H_    0.645311 0.488184 0.330507 0.144124
H19   H     H_    0.741082 0.788814 0.343427 0.125706
H20   H     H_    0.157811 0.082123 0.250402 0.138331
H21   H     H_    0.179667 0.315518 0.239362 0.138722
H22   H     H_    0.326568 0.685769 0.264003 0.141590
O1    O     O_R   0.196340 0.303200 0.448500 -0.507117
O2    O     O_R   0.811960 0.658090 0.547150 -0.498783
O3    O     O_R   0.757930 0.506140 0.547110 -0.506652
O4    O     O_R   0.988670 0.321620 0.556040 -0.500423
O5    O     O_3   0.000020 0.499990 0.500010 -0.250600
O6    O     O_R   0.113660 0.883270 0.047820 -0.498605
O7    O     O_R   0.186930 0.068530 0.043990 -0.496681
O8    O     O_R   0.377770 0.089040 0.054220 -0.509576
O9    O     O_R   0.562800 0.872960 0.056970 -0.497061
O10   O     O_R   0.555390 0.700940 0.062700 -0.521365
O11   O     O_R   0.295020 0.731920 0.049950 -0.496082
O12   O     O_R   0.199310 0.519670 0.454880 -0.494889
O13   O     O_R   0.094290 0.884230 0.921550 -0.456066
O14   O     O_R   0.168980 0.069410 0.926940 -0.497171
O15   O     O_R   0.358400 0.089990 0.927950 -0.506378
O16   O     O_R   0.544850 0.873850 0.939920 -0.465599
O17   O     O_R   0.536020 0.701900 0.936430 -0.522528
O18   O     O_R   0.277070 0.732810 0.932890 -0.520276
O19   O     O_3   0.339220 0.891590 0.991750 -0.262894
O20   O     O_R   0.045660 0.691380 0.441680 -0.509307
O21   O     O_R   0.811930 0.659460 0.430950 -0.504016
O22   O     O_R   0.757900 0.507620 0.421760 -0.518488
O23   O     O_R   0.988630 0.322990 0.439840 -0.496297
O24   O     O_R   0.196380 0.301720 0.573850 -0.509761
O25   O     O_R   0.199350 0.518300 0.571080 -0.484732
O26   O     O_R   0.045700 0.689900 0.567030 -0.525487
C61   C     C_2   0.406742 0.269676 0.762351 0.553604
O27   O     O_2   0.512641 0.232508 0.791172 -0.498934
O28   O     O_R   0.387662 0.344294 0.716172 -0.716429
H23   H     H_    0.470038 0.356272 0.709582 0.332350
Br1   Br    Br    0.855732 0.881601 0.858653 -0.488196

loop_
_geom_bond_atom_site_label_1
_geom_bond_atom_site_label_2
_ccdc_geom_bond_type
C1    C21   S    
C3    H19   S    
C8    H17   S    
C6    C58   A    
C2    H18   S    
C35   C36   A    
C9    C51   S    
C24   C27   S    
Cr6   O19   S    
C4    C8    A    
C50   H13   S    
C12   O22   A    
C24   H4    S    
C7    C8    A    
C49   Br1   S    
C53   O11   A    
C34   O25   A    
Cr4   O14   S    
C55   O17   A    
C36   C37   A    
C19   C21   T    
Cr2   O26   S    
C32   H8    S    
C38   C39   A    
Cr1   O5    S    
C31   H7    S    
Cr2   O20   S    
C29   C54   S    
C11   H20   S    
C40   C49   A    
C52   O9    A    
C17   C20   S    
C18   C19   S    
C48   H10   S    
C16   C53   S    
C12   C59   S    
C60   H16   S    
C33   H9    S    
Cr5   O8    S    
C31   C32   A    
C44   C46   A    
C61   O28   S    
C29   C38   A    
C23   O1    A    
C7    C58   A    
C5    C60   A    
C51   O8    A    
C7    H11   S    
C15   C23   S    
C57   O18   A    
C41   C43   A    
C34   C41   S    
Cr6   O18   S    
C1    O12   A    
C12   O21   A    
Cr1   O1    S    
Cr4   O13   S    
C28   C45   S    
C38   H6    S    
C10   H21   S    
C54   O15   A    
C24   C25   D    
C44   H15   S    
C10   C14   S    
C2    C59   A    
C43   H14   S    
C30   C56   S    
C55   O16   A    
C18   H22   S    
Cr6   O11   S    
Cr3   O4    S    
C35   C39   A    
C9    C14   T    
C47   C48   A    
C16   C20   T    
C17   C18   D    
C45   O2    A    
C52   C58   S    
C6    H1    S    
C42   H12   S    
C39   C61   S    
C22   C27   T    
C37   H5    S    
Cr1   O25   S    
C41   C44   A    
Cr1   O12   S    
C25   H3    S    
C42   C43   A    
Cr5   O15   S    
Cr6   O17   S    
C29   C37   A    
C3    C4    A    
C23   O23   A    
Cr4   O19   S    
C40   C48   A    
C46   C50   A    
C46   C47   A    
C17   H2    S    
C40   C57   S    
C30   C33   A    
C53   O6    A    
C54   O14   A    
Cr4   O7    S    
C4    C5    A    
C22   C55   S    
C34   O26   A    
C57   O13   A    
Cr3   O5    S    
C26   C28   T    
Cr6   O10   S    
Cr3   O22   S    
C13   C15   T    
C25   C26   S    
Cr4   O6    S    
O28   H23   S    
C30   C32   A    
C11   C13   S    
C5    C6    A    
Cr2   O21   S    
Cr2   O2    S    
C52   O10   A    
C33   C35   A    
Cr5   O19   S    
C2    C60   A    
C42   C47   A    
Cr3   O23   S    
C45   O3    A    
C10   C11   D    
C1    O20   A    
Cr5   O9    S    
C56   O4    A    
C49   C50   A    
Cr2   O5    S    
Cr3   O3    S    
C31   C36   A    
Cr5   O16   S    
Cr1   O24   S    
C56   O24   A    
C61   O27   D    
C51   O7    A    
C3    C59   A    
