data_mof_unit_65862.cif
_audit_creation_date              2013-03-05T16:12:32-0500
_audit_creation_method            fapswitch 2.2
_symmetry_space_group_name_H-M    P1
_symmetry_Int_Tables_number       1
_space_group_crystal_system       triclinic
_cell_length_a                    30.386505
_cell_length_b                    30.375148
_cell_length_c                    55.92442
_cell_angle_alpha                 90.00009
_cell_angle_beta                  89.999649
_cell_angle_gamma                 90.000686
_cell_volume                      51617.9369128

loop_
_atom_site_label
_atom_site_type_symbol
_atom_site_description
_atom_site_fract_x
_atom_site_fract_y
_atom_site_fract_z
_atom_type_partial_charge
O1    O     O_R   0.537190 0.935730 0.500010 -0.553171
O2    O     O_R   0.064270 0.537190 0.500010 -0.559172
O3    O     O_R   0.462810 0.064270 0.500010 -0.553170
O4    O     O_R   0.935730 0.462810 0.500010 -0.559173
O5    O     O_R   0.537190 0.064270 0.499990 -0.557149
O6    O     O_R   0.064270 0.462810 0.499990 -0.559056
O7    O     O_R   0.462810 0.935730 0.499990 -0.557149
O8    O     O_R   0.935730 0.537190 0.499990 -0.559058
O9    O     O_R   0.037190 0.435730 0.000010 -0.552114
O10   O     O_R   0.564270 0.037190 0.000010 -0.552574
O11   O     O_R   0.962810 0.564270 0.000010 -0.552114
O12   O     O_R   0.435730 0.962810 0.000010 -0.552560
O13   O     O_R   0.037190 0.564270 0.999990 -0.552116
O14   O     O_R   0.564270 0.962810 0.999990 -0.556734
O15   O     O_R   0.962810 0.435730 0.999990 -0.552116
O16   O     O_R   0.435730 0.037190 0.999990 -0.556704
C1    C     C_R   0.500013 0.915006 0.499918 0.907443
C2    C     C_R   0.084974 0.500000 0.500000 0.919832
C3    C     C_R   0.499987 0.084993 0.499918 0.907443
C4    C     C_R   0.915025 0.500000 0.500000 0.919838
C5    C     C_R   1.000000 0.414992 1.000000 0.896321
C6    C     C_R   0.585003 0.000013 0.999922 0.906330
C7    C     C_R   0.000000 0.585008 1.000000 0.896321
C8    C     C_R   0.414997 0.999987 0.999922 0.906207
O17   O     O_R   0.537190 0.999980 0.534870 -0.579249
O18   O     O_R   0.000020 0.537190 0.534870 -0.580085
O19   O     O_R   0.462810 0.000020 0.534870 -0.579251
O20   O     O_R   0.999980 0.462810 0.534870 -0.580081
O21   O     O_R   0.537190 0.000020 0.465130 -0.566519
O22   O     O_R   0.000020 0.462810 0.465130 -0.580064
O23   O     O_R   0.462810 0.999980 0.465130 -0.566518
O24   O     O_R   0.999980 0.537190 0.465130 -0.580060
O25   O     O_R   0.037190 0.499980 0.034870 -0.565568
O26   O     O_R   0.500020 0.037190 0.034870 -0.579075
O27   O     O_R   0.962810 0.500020 0.034870 -0.565569
O28   O     O_R   0.499980 0.962810 0.034870 -0.579105
O29   O     O_R   0.037190 0.500020 0.965130 -0.565492
O30   O     O_R   0.500020 0.962810 0.965130 -0.566135
O31   O     O_R   0.962810 0.499980 0.965130 -0.565491
O32   O     O_R   0.499980 0.037190 0.965130 -0.566126
C9    C     C_R   0.500000 1.000000 0.546402 0.839185
C10   C     C_R   1.000000 0.500000 0.546399 0.851459
C11   C     C_R   0.500000 1.000000 0.453789 0.838441
C12   C     C_R   0.000000 0.500000 0.453601 0.851453
C13   C     C_R   1.000000 0.500000 0.046202 0.828767
C14   C     C_R   0.500000 0.000000 0.046405 0.837903
C15   C     C_R   0.000000 0.500000 0.953798 0.828721
C16   C     C_R   0.499998 1.000000 0.953788 0.836612
Cu1   Cu    Cu3+1 0.544040 0.000000 0.500000 1.129852
Cu2   Cu    Cu3+1 0.000000 0.544040 0.500000 1.114655
Cu3   Cu    Cu3+1 0.455960 0.000000 0.500000 1.129851
Cu4   Cu    Cu3+1 0.000000 0.455960 0.500000 1.114654
Cu5   Cu    Cu3+1 0.044040 0.500000 0.000000 1.146538
Cu6   Cu    Cu3+1 0.500000 0.044040 0.000000 1.132891
Cu7   Cu    Cu3+1 0.955960 0.500000 0.000000 1.146537
Cu8   Cu    Cu3+1 0.500000 0.955960 0.000000 1.132882
O33   O     O_R   0.435730 0.499970 0.520190 -0.544554
O34   O     O_R   0.500030 0.435730 0.520190 -0.544157
O35   O     O_R   0.564270 0.500030 0.520190 -0.544554
O36   O     O_R   0.499970 0.564270 0.520190 -0.544157
O37   O     O_R   0.435730 0.500030 0.479810 -0.544983
O38   O     O_R   0.500030 0.564270 0.479810 -0.545245
O39   O     O_R   0.564270 0.499970 0.479810 -0.544984
O40   O     O_R   0.499970 0.435730 0.479810 -0.545244
O41   O     O_R   0.935730 0.999970 0.020190 -0.544506
O42   O     O_R   0.000030 0.935730 0.020190 -0.544992
O43   O     O_R   0.064270 0.000030 0.020190 -0.544504
O44   O     O_R   0.999970 0.064270 0.020190 -0.544993
O45   O     O_R   0.935730 0.000030 0.979810 -0.545626
O46   O     O_R   0.000030 0.064270 0.979810 -0.545503
O47   O     O_R   0.064270 0.999970 0.979810 -0.545628
O48   O     O_R   0.999970 0.935730 0.979810 -0.545501
C17   C     C_R   0.492210 0.960346 0.737677 0.023292
C18   C     C_R   0.039826 0.493219 0.737680 0.023316
C19   C     C_R   0.507770 0.039658 0.737678 0.023292
C20   C     C_R   0.960174 0.506782 0.737680 0.023316
C21   C     C_R   0.461065 0.010766 0.263129 0.023627
C22   C     C_R   0.039828 0.506767 0.262320 0.023594
C23   C     C_R   0.538938 0.989231 0.263129 0.023626
C24   C     C_R   0.960171 0.493233 0.262320 0.023593
C25   C     C_R   0.960756 0.490406 0.236863 0.023636
C26   C     C_R   0.539617 0.992088 0.237677 0.023620
C27   C     C_R   0.039243 0.509595 0.236863 0.023637
C28   C     C_R   0.460386 0.007909 0.237678 0.023620
C29   C     C_R   0.960761 0.509610 0.763138 0.023397
C30   C     C_R   0.510618 0.038991 0.763130 0.023386
C31   C     C_R   0.039240 0.490391 0.763137 0.023397
C32   C     C_R   0.489358 0.961014 0.763130 0.023386
C33   C     C_R   0.499991 0.000002 0.724999 0.083698
C34   C     C_R   0.000000 0.500001 0.725000 0.083697
C35   C     C_R   0.500002 0.999998 0.275807 0.084088
C36   C     C_R   1.000000 0.500000 0.275000 0.083876
C37   C     C_R   0.999999 0.500000 0.224183 0.084063
C38   C     C_R   0.500002 0.999998 0.224999 0.083936
C39   C     C_R   0.000000 0.500001 0.775817 0.083932
C40   C     C_R   0.499987 0.000003 0.775808 0.083961
C41   C     C_R   0.487577 0.921066 0.724449 -0.229038
C42   C     C_R   0.079187 0.489530 0.724445 -0.228936
C43   C     C_R   0.512405 0.078938 0.724448 -0.229036
C44   C     C_R   0.920813 0.510472 0.724446 -0.228937
C45   C     C_R   0.423874 0.024190 0.276357 -0.228851
C46   C     C_R   0.079190 0.510442 0.275555 -0.228807
C47   C     C_R   0.576129 0.975807 0.276357 -0.228850
C48   C     C_R   0.920809 0.489557 0.275555 -0.228806
C49   C     C_R   0.923166 0.478159 0.223628 -0.228702
C50   C     C_R   0.578869 0.987334 0.224449 -0.228842
C51   C     C_R   0.076833 0.521842 0.223628 -0.228703
C52   C     C_R   0.421135 0.012662 0.224450 -0.228844
C53   C     C_R   0.923176 0.521873 0.776373 -0.228707
C54   C     C_R   0.523898 0.076245 0.776359 -0.228774
C55   C     C_R   0.076825 0.478128 0.776372 -0.228707
C56   C     C_R   0.476075 0.923760 0.776358 -0.228776
C57   C     C_R   0.487607 0.920570 0.699560 0.349813
C58   C     C_R   0.079676 0.489552 0.699555 0.349674
C59   C     C_R   0.512379 0.079433 0.699560 0.349814
C60   C     C_R   0.920324 0.510450 0.699556 0.349675
C61   C     C_R   0.423444 0.024441 0.301245 0.351167
C62   C     C_R   0.079680 0.510421 0.300444 0.350294
C63   C     C_R   0.576559 0.975556 0.301245 0.351168
C64   C     C_R   0.920320 0.489579 0.300445 0.350293
C65   C     C_R   0.922725 0.477945 0.198739 0.350906
C66   C     C_R   0.579366 0.987366 0.199561 0.350495
C67   C     C_R   0.077273 0.522055 0.198738 0.350905
C68   C     C_R   0.420638 0.012630 0.199561 0.350497
C69   C     C_R   0.922735 0.522087 0.801262 0.350265
C70   C     C_R   0.524141 0.076677 0.801247 0.350299
C71   C     C_R   0.077265 0.477915 0.801261 0.350265
C72   C     C_R   0.475830 0.923329 0.801247 0.350300
C73   C     C_R   0.494272 0.960068 0.686702 -0.121980
C74   C     C_R   0.040043 0.495250 0.686697 -0.122151
C75   C     C_R   0.505717 0.039935 0.686702 -0.121979
C76   C     C_R   0.959957 0.504751 0.686697 -0.122152
C77   C     C_R   0.461738 0.012738 0.314103 -0.121914
C78   C     C_R   0.040044 0.504737 0.313303 -0.121953
C79   C     C_R   0.538264 0.987260 0.314103 -0.121915
C80   C     C_R   0.959955 0.495263 0.313303 -0.121953
C81   C     C_R   0.961362 0.488458 0.185880 -0.121916
C82   C     C_R   0.539903 0.994154 0.186703 -0.121699
C83   C     C_R   0.038637 0.511543 0.185879 -0.121916
C84   C     C_R   0.460101 0.005843 0.186703 -0.121695
C85   C     C_R   0.961367 0.511558 0.814121 -0.122098
C86   C     C_R   0.512580 0.038326 0.814105 -0.122107
C87   C     C_R   0.038633 0.488443 0.814121 -0.122097
C88   C     C_R   0.487392 0.961679 0.814105 -0.122107
C89   C     C_R   0.499993 0.000002 0.699472 -0.116062
C90   C     C_R   1.000000 0.500001 0.699470 -0.115921
C91   C     C_R   0.500001 0.999999 0.301333 -0.115785
C92   C     C_R   1.000000 0.500000 0.300531 -0.115802
C93   C     C_R   0.999999 0.500000 0.198652 -0.115655
C94   C     C_R   0.500002 0.999998 0.199473 -0.115870
C95   C     C_R   0.000000 0.500001 0.801348 -0.115612
C96   C     C_R   0.499986 0.000003 0.801335 -0.115633
C97   C     C_R   0.496837 0.960925 0.661474 0.591307
C98   C     C_R   0.039124 0.497786 0.661465 0.591425
C99   C     C_R   0.503155 0.039077 0.661474 0.591309
C100  C     C_R   0.960875 0.502216 0.661465 0.591425
C101  C     C_R   0.463652 0.014649 0.339332 0.593503
C102  C     C_R   0.039125 0.502203 0.338535 0.591856
C103  C     C_R   0.536351 0.985349 0.339331 0.593503
C104  C     C_R   0.960874 0.497797 0.338535 0.591856
C105  C     C_R   0.963210 0.486498 0.160647 0.593587
C106  C     C_R   0.539055 0.996725 0.161475 0.591961
C107  C     C_R   0.036789 0.513502 0.160647 0.593588
C108  C     C_R   0.460950 0.003271 0.161475 0.591956
C109  C     C_R   0.963216 0.513516 0.839353 0.593352
C110  C     C_R   0.514494 0.036420 0.839334 0.593349
C111  C     C_R   0.036785 0.486485 0.839353 0.593351
C112  C     C_R   0.485477 0.963584 0.839334 0.593345
N1    N     N_R   0.499997 0.000001 0.649554 -0.475464
N2    N     N_R   1.000000 0.500001 0.649542 -0.475534
N3    N     N_R   0.500001 0.999999 0.351251 -0.475391
N4    N     N_R   1.000000 0.500000 0.350458 -0.475541
N5    N     N_R   0.999999 0.500000 0.148724 -0.475410
N6    N     N_R   0.500003 0.999999 0.149556 -0.475485
N7    N     N_R   0.000001 0.500000 0.851276 -0.475389
N8    N     N_R   0.499986 0.000002 0.851254 -0.475427
H1    H     H_    0.483884 0.889460 0.732893 0.186259
H2    H     H_    0.110865 0.486598 0.732882 0.186225
H3    H     H_    0.516098 0.110544 0.732893 0.186258
H4    H     H_    0.889135 0.513404 0.732883 0.186225
H5    H     H_    0.393966 0.035022 0.267910 0.185744
H6    H     H_    0.110870 0.513363 0.267117 0.185843
H7    H     H_    0.606038 0.964974 0.267910 0.185743
H8    H     H_    0.889129 0.486636 0.267118 0.185843
H9    H     H_    0.892927 0.468267 0.232066 0.185732
H10   H     H_    0.610451 0.983544 0.232896 0.185817
H11   H     H_    0.107071 0.531734 0.232065 0.185733
H12   H     H_    0.389553 0.016452 0.232896 0.185817
H13   H     H_    0.892942 0.531777 0.767935 0.186020
H14   H     H_    0.534618 0.106205 0.767914 0.186042
H15   H     H_    0.107059 0.468224 0.767934 0.186020
H16   H     H_    0.465355 0.893801 0.767913 0.186042
O49   O     O_2   0.497127 0.923159 0.648799 -0.439105
O50   O     O_2   0.076859 0.498981 0.648791 -0.438135
O51   O     O_2   0.502868 0.076843 0.648798 -0.439107
O52   O     O_2   0.923141 0.501020 0.648791 -0.438134
O53   O     O_2   0.430018 0.031804 0.352006 -0.437245
O54   O     O_2   0.076859 0.500997 0.351209 -0.438097
O55   O     O_2   0.569985 0.968194 0.352005 -0.437245
O56   O     O_2   0.923140 0.499002 0.351210 -0.438095
O57   O     O_2   0.929050 0.470414 0.147974 -0.437024
O58   O     O_2   0.576808 0.996910 0.148801 -0.438933
O59   O     O_2   0.070948 0.529586 0.147974 -0.437024
O60   O     O_2   0.423197 0.003087 0.148801 -0.438945
O61   O     O_2   0.929062 0.529610 0.852027 -0.436962
O62   O     O_2   0.531514 0.070132 0.852009 -0.436799
O63   O     O_2   0.070939 0.470391 0.852026 -0.436962
O64   O     O_2   0.468458 0.929872 0.852008 -0.436803
C113  C     C_R   0.537575 0.012805 0.611305 -0.111798
C114  C     C_R   0.986301 0.537278 0.611284 -0.110880
C115  C     C_R   0.462421 0.987196 0.611305 -0.111802
C116  C     C_R   0.013698 0.462723 0.611284 -0.110881
C117  C     C_R   0.528458 0.027865 0.389517 -0.100647
C118  C     C_R   0.986299 0.462723 0.388716 -0.110502
C119  C     C_R   0.471543 0.972133 0.389517 -0.100647
C120  C     C_R   0.013701 0.537277 0.388716 -0.110503
C121  C     C_R   0.027554 0.471233 0.110447 -0.099640
C122  C     C_R   0.487280 0.037616 0.111308 -0.110958
C123  C     C_R   0.972444 0.528767 0.110447 -0.099640
C124  C     C_R   0.512726 0.962383 0.111307 -0.110961
C125  C     C_R   0.027559 0.528764 0.889552 -0.099597
C126  C     C_R   0.527969 0.971653 0.889519 -0.100082
C127  C     C_R   0.972442 0.471236 0.889552 -0.099598
C128  C     C_R   0.472010 0.028347 0.889522 -0.100055
H17   H     H_    0.566605 0.022695 0.621230 0.162951
H18   H     H_    0.975713 0.566075 0.621203 0.162963
H19   H     H_    0.433391 0.977306 0.621229 0.162950
H20   H     H_    0.024286 0.433926 0.621203 0.162962
H21   H     H_    0.550155 0.049636 0.379662 0.164531
H22   H     H_    0.975708 0.433927 0.378797 0.163298
H23   H     H_    0.449847 0.950363 0.379662 0.164531
H24   H     H_    0.024292 0.566073 0.378796 0.163298
H25   H     H_    0.048547 0.448777 0.120297 0.164922
H26   H     H_    0.477455 0.066678 0.121232 0.163585
H27   H     H_    0.951451 0.551223 0.120297 0.164922
H28   H     H_    0.522552 0.933321 0.121231 0.163585
H29   H     H_    0.048555 0.551218 0.879703 0.164940
H30   H     H_    0.549824 0.950043 0.879664 0.164738
H31   H     H_    0.951446 0.448782 0.879703 0.164940
H32   H     H_    0.450152 0.049957 0.879669 0.164740
C129  C     C_R   0.538072 0.012992 0.586306 -0.079260
C130  C     C_R   0.986110 0.537762 0.586283 -0.076966
C131  C     C_R   0.461926 0.987008 0.586306 -0.079259
C132  C     C_R   0.013889 0.462239 0.586283 -0.076966
C133  C     C_R   0.528715 0.028119 0.414514 -0.065663
C134  C     C_R   0.986108 0.462239 0.413717 -0.077161
C135  C     C_R   0.471286 0.971880 0.414514 -0.065662
C136  C     C_R   0.013892 0.537761 0.413717 -0.077164
C137  C     C_R   0.027794 0.470978 0.085446 -0.066568
C138  C     C_R   0.487091 0.038113 0.086309 -0.079964
C139  C     C_R   0.972205 0.529022 0.085447 -0.066569
C140  C     C_R   0.512914 0.961887 0.086308 -0.079931
C141  C     C_R   0.027799 0.529019 0.914553 -0.066586
C142  C     C_R   0.528225 0.971398 0.914517 -0.065902
C143  C     C_R   0.972202 0.470981 0.914553 -0.066586
C144  C     C_R   0.471759 0.028600 0.914520 -0.065929
C145  C     C_R   0.499999 1.000000 0.573184 -0.095647
C146  C     C_R   1.000000 0.500000 0.573172 -0.089550
C147  C     C_R   0.500000 1.000000 0.427345 -0.072257
C148  C     C_R   0.000000 0.500000 0.426828 -0.089585
C149  C     C_R   1.000000 0.500000 0.072631 -0.073785
C150  C     C_R   0.500002 0.000000 0.073186 -0.096117
C151  C     C_R   0.000000 0.500000 0.927369 -0.073773
C152  C     C_R   0.499995 1.000000 0.927347 -0.072533
C153  C     C_R   0.414914 0.499999 0.500000 0.914164
C154  C     C_R   0.500027 0.414912 0.499994 0.914220
C155  C     C_R   0.585086 0.500001 0.500000 0.914164
C156  C     C_R   0.499973 0.585088 0.499994 0.914219
C157  C     C_R   0.914911 0.999977 0.999994 0.915067
C158  C     C_R   0.000001 0.914915 0.000000 0.914866
C159  C     C_R   0.085089 0.000022 0.999994 0.915067
C160  C     C_R   0.999999 0.085085 0.000000 0.914863
C161  C     C_R   0.499998 0.000000 0.623827 0.306854
C162  C     C_R   1.000000 0.500001 0.623811 0.306294
C163  C     C_R   0.500001 0.999999 0.376976 0.299683
C164  C     C_R   1.000000 0.500000 0.376189 0.306088
C165  C     C_R   0.999999 0.500000 0.122994 0.298958
C166  C     C_R   0.500003 0.999999 0.123829 0.306436
C167  C     C_R   0.000001 0.500000 0.877006 0.298906
C168  C     C_R   0.499988 0.000001 0.876979 0.299377
Cu9   Cu    Cu3+1 0.500000 0.500000 0.523900 1.222951
Cu10  Cu    Cu3+1 0.500000 0.500000 0.476100 1.219480
Cu11  Cu    Cu3+1 1.000000 0.000000 0.023900 1.219388
Cu12  Cu    Cu3+1 0.000000 0.000000 0.976100 1.215669
C169  C     C_R   0.474358 0.797289 0.516572 -0.120118
C170  C     C_R   0.202564 0.522508 0.481885 -0.119214
C171  C     C_R   0.525642 0.202711 0.516572 -0.120119
C172  C     C_R   0.797436 0.477494 0.481884 -0.119214
C173  C     C_R   0.474417 0.202647 0.482883 -0.118882
C174  C     C_R   0.202563 0.477486 0.518112 -0.119390
C175  C     C_R   0.525583 0.797353 0.482883 -0.118882
C176  C     C_R   0.797437 0.522511 0.518113 -0.119389
C177  C     C_R   0.972785 0.297256 0.016082 -0.119374
C178  C     C_R   0.702647 0.025840 0.982991 -0.118648
C179  C     C_R   0.027214 0.702744 0.016082 -0.119374
C180  C     C_R   0.297356 0.974120 0.983006 -0.118651
C181  C     C_R   0.972796 0.702744 0.983913 -0.119185
C182  C     C_R   0.702728 0.974177 0.016485 -0.119963
C183  C     C_R   0.027204 0.297256 0.983913 -0.119185
C184  C     C_R   0.297267 0.025844 0.016472 -0.119972
C185  C     C_R   0.474473 0.843535 0.516725 0.260462
C186  C     C_R   0.156307 0.522446 0.481806 0.259201
C187  C     C_R   0.525527 0.156465 0.516725 0.260461
C188  C     C_R   0.843693 0.477557 0.481805 0.259202
C189  C     C_R   0.474263 0.156364 0.482876 0.250340
C190  C     C_R   0.156306 0.477553 0.518192 0.259212
C191  C     C_R   0.525737 0.843635 0.482876 0.250341
C192  C     C_R   0.843693 0.522445 0.518193 0.259209
C193  C     C_R   0.972729 0.343521 0.016168 0.252557
C194  C     C_R   0.656377 0.025967 0.982981 0.250429
C195  C     C_R   0.027270 0.656479 0.016168 0.252558
C196  C     C_R   0.343625 0.974000 0.982995 0.250447
C197  C     C_R   0.972735 0.656478 0.983829 0.252461
C198  C     C_R   0.656491 0.974276 0.016641 0.260710
C199  C     C_R   0.027265 0.343522 0.983829 0.252461
C200  C     C_R   0.343504 0.025749 0.016629 0.260715
C201  C     C_R   0.500046 0.866681 0.499807 -0.253117
C202  C     C_R   0.133259 0.500000 0.499999 -0.253497
C203  C     C_R   0.499954 0.133319 0.499807 -0.253117
C204  C     C_R   0.866741 0.500000 0.499999 -0.253495
C205  C     C_R   0.999998 0.366646 0.999999 -0.250802
C206  C     C_R   0.633333 0.000054 0.999815 -0.252874
C207  C     C_R   0.000002 0.633354 0.999999 -0.250802
C208  C     C_R   0.366666 0.999945 0.999816 -0.252884
C209  C     C_R   0.499911 0.774270 0.499694 -0.062236
C210  C     C_R   0.225662 0.499997 0.499998 -0.062872
C211  C     C_R   0.500089 0.225729 0.499694 -0.062235
C212  C     C_R   0.774338 0.500004 0.499998 -0.062872
C213  C     C_R   0.999994 0.274228 0.999997 -0.061262
C214  C     C_R   0.725739 0.999955 0.999703 -0.062086
C215  C     C_R   0.000006 0.725772 0.999997 -0.061261
C216  C     C_R   0.274260 0.000034 0.999703 -0.062092
C217  C     C_R   0.525393 0.703126 0.516427 -0.176755
C218  C     C_R   0.296993 0.525773 0.516474 -0.177744
C219  C     C_R   0.474607 0.296874 0.516427 -0.176754
C220  C     C_R   0.703007 0.474227 0.516473 -0.177745
C221  C     C_R   0.525447 0.297074 0.483156 -0.178693
C222  C     C_R   0.296995 0.474219 0.483526 -0.177716
C223  C     C_R   0.474553 0.702926 0.483156 -0.178692
C224  C     C_R   0.703005 0.525781 0.483526 -0.177717
C225  C     C_R   0.025593 0.203018 0.016554 -0.177531
C226  C     C_R   0.796891 0.025490 0.016404 -0.176374
C227  C     C_R   0.974407 0.796982 0.016555 -0.177533
C228  C     C_R   0.203107 0.974500 0.016403 -0.176375
C229  C     C_R   0.025605 0.796987 0.983443 -0.177677
C230  C     C_R   0.797075 0.974534 0.983181 -0.178375
C231  C     C_R   0.974395 0.203013 0.983444 -0.177676
C232  C     C_R   0.202927 0.025454 0.983179 -0.178363
H33   H     H_    0.545467 0.721438 0.528984 0.196646
H34   H     H_    0.278787 0.546145 0.528935 0.195739
H35   H     H_    0.454532 0.278562 0.528984 0.196646
H36   H     H_    0.721213 0.453854 0.528934 0.195738
H37   H     H_    0.545531 0.278919 0.470536 0.195590
H38   H     H_    0.278791 0.453843 0.471065 0.195772
H39   H     H_    0.454469 0.721081 0.470536 0.195590
H40   H     H_    0.721209 0.546157 0.471065 0.195771
H41   H     H_    0.045793 0.221263 0.029081 0.196520
H42   H     H_    0.778594 0.045612 0.028946 0.197044
H43   H     H_    0.954208 0.778737 0.029082 0.196519
H44   H     H_    0.221403 0.954378 0.028946 0.197052
H45   H     H_    0.045808 0.778746 0.970916 0.196491
H46   H     H_    0.778921 0.954407 0.970580 0.195945
H47   H     H_    0.954192 0.221254 0.970917 0.196491
H48   H     H_    0.221083 0.045579 0.970578 0.195956
C233  C     C_R   0.526327 0.657120 0.516526 0.305993
C234  C     C_R   0.342991 0.526703 0.516481 0.306233
C235  C     C_R   0.473672 0.342880 0.516526 0.305992
C236  C     C_R   0.657009 0.473296 0.516481 0.306234
C237  C     C_R   0.526460 0.343077 0.483270 0.306878
C238  C     C_R   0.342993 0.473286 0.483523 0.306461
C239  C     C_R   0.473540 0.656923 0.483270 0.306878
C240  C     C_R   0.657007 0.526714 0.483522 0.306464
C241  C     C_R   0.026566 0.157012 0.016547 0.306082
C242  C     C_R   0.842889 0.026414 0.016501 0.306036
C243  C     C_R   0.973435 0.842988 0.016547 0.306085
C244  C     C_R   0.157109 0.973580 0.016501 0.306036
C245  C     C_R   0.026578 0.842993 0.983455 0.306387
C246  C     C_R   0.843069 0.973504 0.983297 0.306942
C247  C     C_R   0.973422 0.157006 0.983456 0.306385
C248  C     C_R   0.156933 0.026488 0.983295 0.306934
C249  C     C_R   0.499919 0.633519 0.499951 -0.229415
C250  C     C_R   0.366488 0.499997 0.500001 -0.229857
C251  C     C_R   0.500081 0.366481 0.499951 -0.229414
C252  C     C_R   0.633511 0.500003 0.500001 -0.229858
C253  C     C_R   0.999996 0.133511 0.000001 -0.230070
C254  C     C_R   0.866480 0.999937 0.999951 -0.229941
C255  C     C_R   0.000004 0.866489 0.000001 -0.230063
C256  C     C_R   0.133520 0.000058 0.999951 -0.229939
C257  C     C_R   0.499995 0.725835 0.499737 -0.023716
C258  C     C_R   0.274145 0.499997 0.499999 -0.022595
C259  C     C_R   0.500005 0.274165 0.499737 -0.023716
C260  C     C_R   0.725854 0.500003 0.499998 -0.022593
C261  C     C_R   0.999995 0.225809 0.999998 -0.024498
C262  C     C_R   0.774173 0.000041 0.999738 -0.024180
C263  C     C_R   0.000005 0.774191 0.999998 -0.024496
C264  C     C_R   0.225827 0.999947 0.999737 -0.024195
N9    N     N_R   0.478484 0.879547 0.687861 0.173744
O65   O     O_R   0.501274 0.844714 0.693337 -0.273139
O66   O     O_R   0.441954 0.874894 0.675981 -0.257968
N10   N     N_R   0.120891 0.481413 0.687855 0.173790
O67   O     O_R   0.155150 0.505055 0.693324 -0.272958
O68   O     O_R   0.126422 0.444986 0.675982 -0.257601
N11   N     N_R   0.521505 0.120456 0.687861 0.173743
O69   O     O_R   0.498714 0.155289 0.693336 -0.273139
O70   O     O_R   0.558037 0.125107 0.675982 -0.257967
N12   N     N_R   0.879109 0.518589 0.687857 0.173790
O71   O     O_R   0.844850 0.494948 0.693326 -0.272957
O72   O     O_R   0.873578 0.555016 0.675983 -0.257601
N13   N     N_R   0.382687 0.034629 0.312944 0.173777
O73   O     O_R   0.361740 0.070601 0.307467 -0.274253
O74   O     O_R   0.362185 0.004026 0.324823 -0.260398
N14   N     N_R   0.120898 0.518544 0.312144 0.173587
O75   O     O_R   0.155146 0.494888 0.306676 -0.274525
O76   O     O_R   0.126445 0.554971 0.324016 -0.257803
N15   N     N_R   0.617316 0.965368 0.312944 0.173776
O77   O     O_R   0.638263 0.929395 0.307467 -0.274253
O78   O     O_R   0.637817 0.995972 0.324823 -0.260398
N16   N     N_R   0.879101 0.481455 0.312145 0.173587
O79   O     O_R   0.844853 0.505111 0.306677 -0.274525
O80   O     O_R   0.873555 0.445028 0.324017 -0.257802
N17   N     N_R   0.881667 0.469044 0.187039 0.173901
O81   O     O_R   0.859611 0.433736 0.192507 -0.273819
O82   O     O_R   0.862128 0.500283 0.175170 -0.259305
N18   N     N_R   0.620346 0.978115 0.187862 0.173564
O83   O     O_R   0.655237 0.000803 0.193341 -0.274727
O84   O     O_R   0.624882 0.941561 0.175977 -0.257738
N19   N     N_R   0.118331 0.530957 0.187039 0.173902
O85   O     O_R   0.140387 0.566265 0.192506 -0.273820
O86   O     O_R   0.137870 0.499718 0.175169 -0.259304
N20   N     N_R   0.379658 0.021881 0.187862 0.173563
O87   O     O_R   0.344767 0.999193 0.193341 -0.274730
O88   O     O_R   0.375122 0.058435 0.175978 -0.257741
N21   N     N_R   0.881682 0.531007 0.812961 0.174200
O89   O     O_R   0.859645 0.566327 0.807496 -0.273035
O90   O     O_R   0.862126 0.499776 0.824829 -0.257597
N22   N     N_R   0.534174 0.117487 0.812947 0.174216
O91   O     O_R   0.570058 0.138573 0.807473 -0.273010
O92   O     O_R   0.503504 0.137884 0.824823 -0.257718
N23   N     N_R   0.118318 0.468994 0.812960 0.174199
O93   O     O_R   0.140356 0.433674 0.807494 -0.273034
O94   O     O_R   0.137875 0.500225 0.824828 -0.257596
N24   N     N_R   0.465795 0.882519 0.812946 0.174215
O95   O     O_R   0.429909 0.861436 0.807472 -0.273012
O96   O     O_R   0.496463 0.862119 0.824821 -0.257719
C265  C     C_1   0.578206 0.027639 0.574956 0.397965
N25   N     N_1   0.610425 0.039403 0.565951 -0.162260
C266  C     C_1   0.970480 0.577500 0.574898 0.399050
N26   N     N_1   0.957940 0.609403 0.565860 -0.164719
C267  C     C_1   0.421792 0.972360 0.574956 0.397966
N27   N     N_1   0.389574 0.960596 0.565950 -0.162260
C268  C     C_1   0.029518 0.422500 0.574898 0.399053
N28   N     N_1   0.042058 0.390597 0.565860 -0.164716
C269  C     C_1   0.557652 0.058721 0.426520 0.353062
N29   N     N_1   0.580782 0.083270 0.436141 -0.205746
C270  C     C_1   0.970477 0.422501 0.425102 0.399592
N30   N     N_1   0.957935 0.390598 0.434140 -0.163898
C271  C     C_1   0.442349 0.941278 0.426520 0.353062
N31   N     N_1   0.419218 0.916730 0.436141 -0.205746
C272  C     C_1   0.029523 0.577499 0.425102 0.399592
N32   N     N_1   0.042065 0.609402 0.434140 -0.163895
C273  C     C_1   0.055708 0.439492 0.073401 0.349624
N33   N     N_1   0.078014 0.414240 0.063743 -0.204133
C274  C     C_1   0.472533 0.078294 0.074961 0.398900
N34   N     N_1   0.460840 0.110550 0.065957 -0.159119
C275  C     C_1   0.944291 0.560508 0.073401 0.349624
N35   N     N_1   0.921985 0.585759 0.063743 -0.204134
C276  C     C_1   0.527475 0.921708 0.074959 0.398910
N36   N     N_1   0.539171 0.889453 0.065954 -0.159140
C277  C     C_1   0.055716 0.560503 0.926599 0.349820
N37   N     N_1   0.078025 0.585753 0.936257 -0.203708
C278  C     C_1   0.558939 0.942588 0.926527 0.353341
N38   N     N_1   0.583576 0.919560 0.936152 -0.203801
C279  C     C_1   0.944284 0.439497 0.926599 0.349819
N39   N     N_1   0.921976 0.414247 0.936257 -0.203708
C280  C     C_1   0.441046 0.057407 0.926533 0.353240
N40   N     N_1   0.416409 0.080432 0.936160 -0.203810
C281  C     C_1   0.448904 0.773391 0.534229 0.405447
N41   N     N_1   0.428615 0.754237 0.548318 -0.159363
C282  C     C_1   0.226364 0.544916 0.463015 0.405009
N42   N     N_1   0.245436 0.562776 0.447956 -0.159631
C283  C     C_1   0.551095 0.226609 0.534229 0.405448
N43   N     N_1   0.571384 0.245763 0.548318 -0.159364
C284  C     C_1   0.773637 0.455090 0.463013 0.405008
N44   N     N_1   0.754565 0.437231 0.447953 -0.159629
C285  C     C_1   0.448995 0.226528 0.465209 0.401403
N45   N     N_1   0.428733 0.245672 0.451105 -0.163516
C286  C     C_1   0.226361 0.455077 0.536982 0.405200
N46   N     N_1   0.245433 0.437215 0.552040 -0.158350
C287  C     C_1   0.551006 0.773472 0.465209 0.401402
N47   N     N_1   0.571268 0.754328 0.451105 -0.163516
C288  C     C_1   0.773638 0.544918 0.536983 0.405197
N48   N     N_1   0.754566 0.562778 0.552042 -0.158347
C289  C     C_1   0.945777 0.273318 0.033026 0.402283
N49   N     N_1   0.924250 0.254128 0.046546 -0.162775
C290  C     C_1   0.726503 0.051513 0.965416 0.401761
N50   N     N_1   0.745627 0.071980 0.951390 -0.163977
C291  C     C_1   0.054222 0.726682 0.033026 0.402283
N51   N     N_1   0.075749 0.745872 0.046546 -0.162774
C292  C     C_1   0.273505 0.948408 0.965446 0.401751
N52   N     N_1   0.254386 0.927909 0.951432 -0.163982
C293  C     C_1   0.945790 0.726680 0.966968 0.401959
N53   N     N_1   0.924265 0.745870 0.953447 -0.164141
C294  C     C_1   0.726630 0.948517 0.034051 0.406012
N54   N     N_1   0.745787 0.928062 0.048068 -0.159596
C295  C     C_1   0.054211 0.273319 0.966968 0.401960
N55   N     N_1   0.075736 0.254130 0.953447 -0.164140
C296  C     C_1   0.273362 0.051532 0.034025 0.406019
N56   N     N_1   0.254201 0.072008 0.048030 -0.159604
N57   N     N_R   0.450490 0.867004 0.534834 0.133898
O97   O     O_R   0.408610 0.860043 0.537858 -0.297456
O98   O     O_R   0.471043 0.893834 0.549113 -0.376476
N58   N     N_R   0.132705 0.543490 0.462698 0.129910
O99   O     O_R   0.140023 0.584606 0.457529 -0.300585
O100  O     O_R   0.105331 0.520900 0.449692 -0.380933
N59   N     N_R   0.549509 0.132996 0.534834 0.133899
O101  O     O_R   0.591389 0.139958 0.537858 -0.297457
O102  O     O_R   0.528956 0.106166 0.549113 -0.376476
N60   N     N_R   0.867296 0.456515 0.462696 0.129907
O103  O     O_R   0.859978 0.415400 0.457525 -0.300587
O104  O     O_R   0.894671 0.479106 0.449692 -0.380936
N61   N     N_R   0.449119 0.132811 0.465235 0.138111
O105  O     O_R   0.407355 0.140811 0.462506 -0.289737
O106  O     O_R   0.468213 0.104218 0.451370 -0.371615
N62   N     N_R   0.132703 0.456510 0.537301 0.129952
O107  O     O_R   0.140017 0.415393 0.542470 -0.300568
O108  O     O_R   0.105330 0.479101 0.550307 -0.380917
N63   N     N_R   0.550881 0.867188 0.465235 0.138110
O109  O     O_R   0.592646 0.859188 0.462506 -0.289737
O110  O     O_R   0.531788 0.895782 0.451370 -0.371615
N64   N     N_R   0.867296 0.543485 0.537303 0.129949
O111  O     O_R   0.859981 0.584601 0.542474 -0.300569
O112  O     O_R   0.894669 0.520893 0.550307 -0.380917
N65   N     N_R   0.946252 0.366968 0.033267 0.139461
O113  O     O_R   0.904228 0.359289 0.034854 -0.286713
O114  O     O_R   0.964378 0.395002 0.047839 -0.366352
N66   N     N_R   0.632835 0.051306 0.965421 0.138243
O115  O     O_R   0.640679 0.093160 0.962904 -0.287700
O116  O     O_R   0.604391 0.032313 0.951427 -0.370855
N67   N     N_R   0.053747 0.633032 0.033267 0.139461
O117  O     O_R   0.095771 0.640712 0.034854 -0.286712
O118  O     O_R   0.035621 0.604998 0.047839 -0.366353
N68   N     N_R   0.367170 0.948639 0.965446 0.138252
O119  O     O_R   0.359364 0.906771 0.962966 -0.287703
O120  O     O_R   0.395580 0.967624 0.951429 -0.370759
N69   N     N_R   0.946257 0.633031 0.966731 0.139440
O121  O     O_R   0.904234 0.640712 0.965143 -0.286650
O122  O     O_R   0.964382 0.604994 0.952160 -0.366449
N70   N     N_R   0.633046 0.950065 0.034670 0.134121
O123  O     O_R   0.640024 0.908138 0.037550 -0.295616
O124  O     O_R   0.606210 0.970445 0.049015 -0.376095
N71   N     N_R   0.053744 0.366969 0.966731 0.139440
O125  O     O_R   0.095767 0.359288 0.965143 -0.286648
O126  O     O_R   0.035619 0.395006 0.952160 -0.366447
N72   N     N_R   0.366946 0.049989 0.034647 0.134164
O127  O     O_R   0.359964 0.091920 0.037509 -0.295596
O128  O     O_R   0.393782 0.029632 0.049003 -0.376057
N73   N     N_R   0.555399 0.635192 0.532956 0.150556
O129  O     O_R   0.581235 0.603916 0.525500 -0.319428
O130  O     O_R   0.561380 0.651177 0.554299 -0.282398
N74   N     N_R   0.365016 0.556054 0.532730 0.150488
O131  O     O_R   0.396379 0.581628 0.525121 -0.320540
O132  O     O_R   0.349099 0.562495 0.554048 -0.282385
N75   N     N_R   0.444601 0.364808 0.532956 0.150556
O133  O     O_R   0.418765 0.396084 0.525500 -0.319428
O134  O     O_R   0.438620 0.348823 0.554299 -0.282397
N76   N     N_R   0.634983 0.443945 0.532729 0.150487
O135  O     O_R   0.603621 0.418372 0.525120 -0.320541
O136  O     O_R   0.650900 0.437504 0.554047 -0.282385
N77   N     N_R   0.555582 0.365200 0.466943 0.150176
O137  O     O_R   0.581421 0.396363 0.474535 -0.320136
O138  O     O_R   0.561580 0.349508 0.445537 -0.287498
N78   N     N_R   0.365023 0.443919 0.467285 0.150168
O139  O     O_R   0.396379 0.418350 0.474905 -0.321158
O140  O     O_R   0.349112 0.437457 0.445967 -0.284330
N79   N     N_R   0.444418 0.634799 0.466943 0.150176
O141  O     O_R   0.418579 0.603637 0.474535 -0.320137
O142  O     O_R   0.438420 0.650492 0.445537 -0.287498
N80   N     N_R   0.634977 0.556081 0.467284 0.150168
O143  O     O_R   0.603621 0.581650 0.474905 -0.321159
O144  O     O_R   0.650889 0.562543 0.445967 -0.284330
N81   N     N_R   0.055825 0.134981 0.032839 0.150315
O145  O     O_R   0.081504 0.103683 0.025252 -0.320108
O146  O     O_R   0.062101 0.150867 0.054179 -0.286873
N82   N     N_R   0.864820 0.055547 0.032900 0.150393
O147  O     O_R   0.896118 0.081330 0.025421 -0.319812
O148  O     O_R   0.848827 0.061635 0.054232 -0.283938
N83   N     N_R   0.944176 0.865019 0.032839 0.150315
O149  O     O_R   0.918497 0.896316 0.025253 -0.320110
O150  O     O_R   0.937901 0.849133 0.054180 -0.286873
N84   N     N_R   0.135176 0.944449 0.032900 0.150393
O151  O     O_R   0.103877 0.918668 0.025421 -0.319819
O152  O     O_R   0.151168 0.938361 0.054232 -0.283940
N85   N     N_R   0.055849 0.865030 0.967172 0.149970
O153  O     O_R   0.081525 0.896324 0.974769 -0.320804
O154  O     O_R   0.062143 0.849153 0.945832 -0.289098
N86   N     N_R   0.865176 0.944307 0.967001 0.149988
O155  O     O_R   0.896348 0.918507 0.974615 -0.320492
O156  O     O_R   0.849470 0.938206 0.945607 -0.289270
N87   N     N_R   0.944150 0.134970 0.967173 0.149971
O157  O     O_R   0.918475 0.103676 0.974770 -0.320799
O158  O     O_R   0.937856 0.150847 0.945833 -0.289098
N88   N     N_R   0.134828 0.055687 0.967000 0.149989
O159  O     O_R   0.103659 0.081489 0.974614 -0.320484
O160  O     O_R   0.150534 0.061785 0.945606 -0.289267

loop_
_geom_bond_atom_site_label_1
_geom_bond_atom_site_label_2
_geom_bond_distance
_ccdc_geom_bond_type
C272  N32   1.157462 T    
N79   O142  1.301355 A    
C119  C135  1.398008 A    
C189  C203  1.412786 A    
C59   N11   1.434460 S    
C74   C90   1.418298 A    
O25   C13   1.295630 A    
C271  N31   1.157355 T    
C21   C45   1.410906 A    
C290  N50   1.157340 T    
N87   O157  1.301040 A    
C61   C77   1.413338 A    
C197  N69   1.438367 S    
C86   C110  1.413292 A    
N73   O129  1.301044 A    
C55   H15   1.075728 S    
C107  O59   1.348492 S    
C121  C137  1.398201 A    
C47   H7    1.075797 S    
O47   Cu12  1.963933 S    
C30   C54   1.410920 A    
O44   C160  1.294063 A    
C191  N63   1.438372 S    
O18   Cu2   1.961154 S    
C211  C259  1.471249 S    
N68   O119  1.301089 A    
C42   C58   1.392010 A    
C36   C92   1.427795 A    
C173  C189  1.405839 A    
C27   C37   1.417663 A    
C98   N2    1.364740 A    
N78   O140  1.301360 A    
N64   O111  1.301065 A    
C108  O60   1.348506 S    
C178  C290  1.449011 S    
C231  C261  1.393433 A    
O33   Cu9   1.963936 S    
C21   C35   1.417580 A    
C117  C163  1.398605 A    
Cu1   Cu3   2.676440 S    
C118  C164  1.395050 A    
C227  C243  1.397764 A    
Cu2   Cu4   2.675440 S    
C112  O64   1.348504 S    
O3    C3    1.293233 A    
O48   Cu12  1.963209 S    
C220  H36   1.083821 S    
C65   N17   1.434458 S    
C174  C210  1.409368 A    
C73   C89   1.418302 A    
O44   Cu11  1.963206 S    
C242  N82   1.438132 S    
C87   C95   1.418292 A    
C247  C253  1.420416 A    
O25   Cu5   1.961160 S    
C230  C246  1.397962 A    
O5    Cu1   1.963278 S    
N72   O128  1.300696 A    
C52   C68   1.391946 A    
C57   N9    1.434462 S    
C125  C141  1.398201 A    
C126  C142  1.398031 A    
C182  C214  1.408129 A    
C79   C103  1.413268 A    
C8    C208  1.468626 S    
C274  N34   1.157505 T    
C46   H6    1.075725 S    
C132  C146  1.425275 A    
N86   O155  1.301039 A    
C50   H10   1.075795 S    
O43   Cu11  1.963931 S    
C192  C204  1.410858 A    
O17   C9    1.301163 A    
N57   O98   1.300697 A    
C278  N38   1.157360 T    
C228  C244  1.398011 A    
C277  N37   1.157351 T    
C54   H14   1.075785 S    
C125  H29   1.084257 S    
N19   O85   1.301107 A    
C24   C36   1.417668 A    
O29   Cu5   1.961168 S    
C17   C32   1.426168 A    
O42   C158  1.294061 A    
C245  N85   1.438185 S    
C71   N23   1.434453 S    
C99   N1    1.364696 A    
C19   C30   1.426173 A    
N88   O160  1.301357 A    
C122  C166  1.394778 A    
N58   O99   1.301069 A    
C104  N4    1.364742 A    
C226  C242  1.398010 A    
C71   C87   1.413319 A    
C72   C88   1.413335 A    
C199  N71   1.438365 S    
C122  H26   1.084634 S    
C119  C163  1.398604 A    
O5    C3    1.293914 A    
N10   O68   1.301359 A    
N74   O131  1.301022 A    
C229  C245  1.397770 A    
C143  C151  1.415677 A    
O26   Cu6   1.961154 S    
C116  C162  1.395049 A    
N65   O114  1.301004 A    
N12   O72   1.301356 A    
C212  C260  1.473235 S    
C120  C136  1.398278 A    
C26   C38   1.417580 A    
C232  C264  1.393538 A    
C225  C261  1.393433 A    
N71   O125  1.301109 A    
C117  H21   1.084284 S    
N22   O91   1.301108 A    
C128  C144  1.398035 A    
O31   C15   1.295630 A    
O32   C16   1.295541 A    
C177  C213  1.407824 A    
C224  C260  1.394221 A    
C116  H20   1.084611 S    
C236  N76   1.438219 S    
N11   O70   1.301354 A    
C52   H12   1.075794 S    
N7    C167  1.438924 S    
N82   O147  1.301048 A    
C239  C249  1.420596 A    
C195  C207  1.413386 A    
N60   O103  1.301064 A    
C237  C251  1.420595 A    
C219  C235  1.397751 A    
C20   C44   1.411000 A    
C58   C74   1.413310 A    
C135  C271  1.445004 S    
O35   C155  1.294191 A    
C22   C36   1.417667 A    
C18   C34   1.417665 A    
N9    O66   1.301354 A    
Cu9   Cu10  2.673187 S    
C237  N77   1.438176 S    
C127  H31   1.084254 S    
C101  N3    1.364685 A    
C81   C105  1.413467 A    
C102  N4    1.364738 A    
C221  H37   1.083824 S    
N70   O124  1.300701 A    
C184  C200  1.405020 A    
C100  N2    1.364741 A    
C102  O54   1.348495 S    
C126  H30   1.084269 S    
O8    Cu2   1.963994 S    
N81   O145  1.301031 A    
N20   O88   1.301361 A    
C223  C257  1.393443 A    
C66   N18   1.434464 S    
C17   C33   1.417596 A    
O4    C4    1.293034 A    
O40   Cu10  1.963209 S    
C38   C94   1.427538 A    
C241  N81   1.438187 S    
C200  C208  1.412006 A    
C240  C252  1.420302 A    
O36   Cu9   1.963206 S    
C196  N68   1.438220 S    
O6    Cu4   1.963991 S    
N13   O73   1.301107 A    
C109  O61   1.348488 S    
C20   C29   1.426374 A    
C246  C254  1.420630 A    
C58   N10   1.434463 S    
N80   O144  1.301356 A    
N17   O81   1.301107 A    
C191  C201  1.412790 A    
C116  C132  1.398278 A    
O9    C5    1.293777 A    
C35   C91   1.427544 A    
C18   C42   1.410998 A    
O21   Cu1   1.961168 S    
C273  N33   1.157349 T    
C242  C254  1.420333 A    
C33   C89   1.427566 A    
N19   O86   1.301353 A    
O23   C11   1.295879 A    
C186  C202  1.410863 A    
C134  C270  1.444979 S    
N14   O75   1.301103 A    
N66   O116  1.300893 A    
N23   O94   1.301357 A    
C190  N62   1.437015 S    
C69   N21   1.434455 S    
N84   O152  1.301347 A    
C127  C167  1.398915 A    
C40   C96   1.427566 A    
C67   C83   1.413319 A    
C129  C265  1.445022 S    
C76   C90   1.418294 A    
O13   C7    1.293771 A    
O11   C7    1.293777 A    
C68   C84   1.413331 A    
C138  C150  1.425743 A    
O2    Cu2   1.963996 S    
C5    C205  1.468517 S    
C198  C206  1.412001 A    
C159  C256  1.471645 S    
N15   O77   1.301104 A    
C69   C85   1.413319 A    
O7    C1    1.293914 A    
C31   C39   1.417663 A    
C157  C254  1.471642 S    
N15   O78   1.301360 A    
O28   C14   1.300868 A    
O26   C14   1.300867 A    
C18   C31   1.426380 A    
C42   H2    1.075729 S    
C23   C35   1.417581 A    
C62   C78   1.413312 A    
C140  C150  1.425742 A    
C198  N70   1.436989 S    
C141  C151  1.415681 A    
C142  C152  1.416145 A    
C293  N53   1.157309 T    
C222  H38   1.083818 S    
C144  C280  1.444994 S    
C23   C47   1.410905 A    
C265  N25   1.157499 T    
C217  C257  1.393786 A    
C60   N12   1.434462 S    
C193  C205  1.413387 A    
N85   O154  1.301357 A    
O19   Cu3   1.961163 S    
C275  N35   1.157347 T    
C169  C209  1.408110 A    
C216  C264  1.471728 S    
C25   C49   1.410994 A    
C182  C294  1.449166 S    
C174  C190  1.405591 A    
C123  H27   1.084260 S    
C133  C269  1.445004 S    
C218  C234  1.398001 A    
C113  C129  1.398148 A    
C21   C28   1.426148 A    
C229  C263  1.393429 A    
C67   N19   1.434460 S    
C180  C216  1.408582 A    
C169  C185  1.404741 A    
N75   O134  1.301356 A    
O15   Cu7   1.963281 S    
C222  C258  1.394222 A    
C117  C133  1.398008 A    
C285  N45   1.157315 T    
C12   C148  1.497237 S    
N61   O106  1.300834 A    
C13   C149  1.478026 S    
C284  N44   1.157327 T    
C60   C76   1.413312 A    
C172  C284  1.449107 S    
C244  N84   1.438129 S    
C220  C236  1.398001 A    
C19   C43   1.410931 A    
C283  N43   1.157313 T    
C74   C98   1.413455 A    
C9    C145  1.497734 S    
C128  H32   1.084267 S    
C87   C111  1.413471 A    
C80   C92   1.418301 A    
C54   C70   1.391940 A    
C227  H43   1.083818 S    
C233  C249  1.420256 A    
N18   O83   1.301108 A    
C78   C102  1.413453 A    
N62   O108  1.300645 A    
O32   Cu6   1.961158 S    
C235  C251  1.420255 A    
C190  C202  1.410863 A    
C142  C278  1.444996 S    
C97   N1    1.364696 A    
N59   O101  1.301072 A    
C44   H4    1.075728 S    
C225  H41   1.083816 S    
O18   C10   1.300706 A    
C111  N7    1.364730 A    
C112  N8    1.364683 A    
C136  C272  1.444982 S    
O22   Cu4   1.961159 S    
N76   O135  1.301019 A    
C6    C206  1.468614 S    
C209  C257  1.471246 S    
C1    C201  1.467917 S    
C244  C256  1.420330 A    
C3    C203  1.467917 S    
N10   O67   1.301108 A    
C188  N60   1.437010 S    
C23   C26   1.426147 A    
C294  N54   1.157295 T    
C233  N73   1.438131 S    
C70   N22   1.434456 S    
C247  N87   1.438193 S    
C84   C108  1.413262 A    
O30   Cu8   1.961159 S    
O12   C8    1.293111 A    
C79   C91   1.418290 A    
C153  C250  1.471491 S    
O14   C6    1.293800 A    
C83   C107  1.413468 A    
C155  C252  1.471491 S    
C177  C193  1.405337 A    
C10   C146  1.497237 S    
O40   C154  1.293847 A    
N9    O65   1.301104 A    
C73   C97   1.413275 A    
C29   C39   1.417663 A    
C213  C261  1.470710 S    
N74   O132  1.301357 A    
C114  C162  1.395048 A    
C75   C89   1.418298 A    
C77   C101  1.413269 A    
C26   C50   1.410913 A    
O42   Cu11  1.963209 S    
C76   C100  1.413455 A    
C226  C262  1.393855 A    
N79   O141  1.301036 A    
C80   C104  1.413453 A    
C97   O49   1.348510 S    
C267  N27   1.157498 T    
N67   O117  1.301108 A    
C171  C283  1.449195 S    
C231  C247  1.397767 A    
C179  C291  1.449184 S    
N24   O95   1.301108 A    
C289  N49   1.157309 T    
C141  C277  1.444990 S    
O41   Cu11  1.963936 S    
C154  C251  1.471117 S    
O39   Cu10  1.963933 S    
C185  N57   1.437008 S    
C107  N5    1.364732 A    
C4    C204  1.467185 S    
C32   C40   1.417597 A    
C183  C295  1.449180 S    
C234  N74   1.438220 S    
C22   C46   1.410998 A    
C122  C138  1.398126 A    
C37   C93   1.427806 A    
C282  N42   1.157324 T    
C44   C60   1.392011 A    
C51   C67   1.392005 A    
C239  N79   1.438176 S    
C182  C198  1.405014 A    
C131  C267  1.445022 S    
C286  N46   1.157320 T    
C45   H5    1.075793 S    
N71   O126  1.301006 A    
C77   C91   1.418289 A    
O10   C6    1.293109 A    
C176  C288  1.449107 S    
C235  N75   1.438132 S    
C103  N3    1.364688 A    
C24   C48   1.411000 A    
C100  O52   1.348499 S    
C197  C207  1.413382 A    
C29   C53   1.410992 A    
N8    C168  1.438661 S    
N76   O136  1.301362 A    
C43   C59   1.391945 A    
N57   O97   1.301072 A    
C238  C250  1.420301 A    
N77   O138  1.301355 A    
O45   Cu12  1.963933 S    
C31   C55   1.410987 A    
C224  C240  1.398009 A    
C243  N83   1.438185 S    
C248  C256  1.420632 A    
C86   C96   1.418297 A    
C228  C264  1.393852 A    
C230  C262  1.393536 A    
C136  C148  1.425275 A    
C22   C27   1.426379 A    
O31   Cu7   1.961166 S    
N11   O69   1.301108 A    
C187  N59   1.437008 S    
N21   O90   1.301356 A    
N58   O100  1.300650 A    
C78   C92   1.418302 A    
C108  N6    1.364699 A    
C179  C215  1.407825 A    
N5    C165  1.438930 S    
O43   C159  1.294528 A    
C103  O55   1.348498 S    
O35   Cu9   1.963931 S    
C240  N80   1.438204 S    
C270  N30   1.157464 T    
C123  C139  1.398201 A    
N65   O113  1.301109 A    
O21   C11   1.295878 A    
C195  N67   1.438367 S    
O22   C12   1.300706 A    
C113  H17   1.084633 S    
O36   C156  1.294397 A    
C61   N13   1.434453 S    
N4    C164  1.439002 S    
N22   O92   1.301355 A    
O13   Cu5   1.963278 S    
N73   O130  1.301352 A    
C223  H39   1.083825 S    
C266  N26   1.157463 T    
C224  H40   1.083820 S    
C115  C131  1.398147 A    
N1    C161  1.438768 S    
C66   C82   1.413332 A    
C232  C248  1.397962 A    
C63   N15   1.434452 S    
O23   Cu3   1.961166 S    
O3    Cu3   1.963273 S    
C24   C25   1.426378 A    
N60   O104  1.300650 A    
C130  C266  1.444981 S    
C196  C208  1.412853 A    
C114  C130  1.398278 A    
C138  C274  1.445021 S    
C83   C93   1.418290 A    
C63   C79   1.413335 A    
N75   O133  1.301043 A    
N78   O139  1.301027 A    
C217  H33   1.083823 S    
O39   C155  1.294222 A    
C101  O53   1.348498 S    
C169  C281  1.449192 S    
N23   O93   1.301109 A    
C43   H3    1.075785 S    
C281  N41   1.157316 T    
O28   Cu8   1.961153 S    
C223  C239  1.397698 A    
C56   H16   1.075784 S    
C105  N5    1.364732 A    
C41   H1    1.075783 S    
C200  N72   1.436993 S    
C144  C152  1.416141 A    
C28   C38   1.417578 A    
C225  C241  1.397764 A    
C160  C253  1.470950 S    
C218  C258  1.394215 A    
C222  C238  1.398006 A    
C30   C40   1.417595 A    
C139  C275  1.444989 S    
N82   O148  1.301348 A    
C48   H8    1.075726 S    
C106  O58   1.348505 S    
N87   O158  1.301352 A    
C175  C191  1.405839 A    
O9    Cu5   1.963276 S    
N72   O127  1.301063 A    
C121  H25   1.084256 S    
C118  H22   1.084608 S    
O11   Cu7   1.963273 S    
C178  C214  1.408575 A    
N63   O110  1.300833 A    
C85   C109  1.413471 A    
C170  C186  1.405591 A    
N16   O80   1.301359 A    
O38   Cu10  1.963205 S    
N59   O102  1.300696 A    
C245  C255  1.420418 A    
C192  N64   1.437017 S    
C62   N14   1.434464 S    
C170  C282  1.449113 S    
C194  C206  1.412873 A    
O34   Cu9   1.963209 S    
C189  N61   1.438376 S    
C50   C66   1.391946 A    
C75   C99   1.413281 A    
C139  C149  1.415676 A    
C137  C273  1.444988 S    
C45   C61   1.391946 A    
O37   Cu10  1.963933 S    
N14   O76   1.301359 A    
C114  H18   1.084610 S    
O7    Cu3   1.963281 S    
N88   O159  1.301041 A    
C218  H34   1.083822 S    
C28   C52   1.410912 A    
C70   C86   1.413333 A    
O29   C15   1.295629 A    
C248  N88   1.438178 S    
C133  C147  1.416228 A    
O17   Cu1   1.961160 S    
C121  C165  1.398919 A    
C56   C72   1.391940 A    
C134  C148  1.425274 A    
C173  C211  1.408532 A    
O45   C157  1.293977 A    
C32   C56   1.410920 A    
C175  C209  1.408533 A    
C88   C96   1.418302 A    
C229  H45   1.083819 S    
C210  C258  1.473235 S    
N12   O71   1.301108 A    
C2    C202  1.467188 S    
C110  O62   1.348507 S    
C64   C80   1.413313 A    
C132  C268  1.444981 S    
N63   O109  1.301114 A    
C20   C34   1.417665 A    
C48   C64   1.392005 A    
C128  C168  1.398640 A    
C183  C213  1.407825 A    
N68   O120  1.300891 A    
N67   O118  1.301003 A    
O16   C8    1.293807 A    
C174  C286  1.449112 S    
C175  C287  1.449107 S    
N83   O149  1.301033 A    
C11   C147  1.478882 S    
N85   O153  1.301040 A    
C296  N56   1.157294 T    
C104  O56   1.348497 S    
C59   C75   1.413328 A    
C82   C94   1.418291 A    
C17   C41   1.410929 A    
C214  C262  1.471747 S    
C295  N55   1.157310 T    
O8    C4    1.293029 A    
C57   C73   1.413332 A    
C88   C112  1.413290 A    
C119  H23   1.084282 S    
C105  O57   1.348496 S    
N70   O123  1.301065 A    
C185  C201  1.411834 A    
C187  C203  1.411837 A    
N86   O156  1.301360 A    
C188  C204  1.410861 A    
C65   C81   1.413315 A    
C292  N52   1.157342 T    
C51   H11   1.075726 S    
C221  C259  1.393445 A    
N81   O146  1.301356 A    
C291  N51   1.157307 T    
C131  C145  1.425728 A    
C49   H9    1.075728 S    
C184  C216  1.408130 A    
N20   O87   1.301104 A    
N69   O122  1.301002 A    
C143  C279  1.444992 S    
C177  C289  1.449184 S    
C232  H48   1.083818 S    
C179  C195  1.405337 A    
N24   O96   1.301355 A    
C53   H13   1.075726 S    
C180  C196  1.405958 A    
C243  C255  1.420427 A    
C288  N48   1.157329 T    
N13   O74   1.301359 A    
C241  C253  1.420426 A    
C287  N47   1.157319 T    
C130  C146  1.425275 A    
N64   O112  1.300650 A    
C176  C192  1.405588 A    
C183  C199  1.405340 A    
O38   C156  1.293845 A    
N18   O84   1.301359 A    
N80   O143  1.301025 A    
O33   C153  1.294193 A    
N17   O82   1.301354 A    
C115  H19   1.084629 S    
O48   C158  1.294088 A    
C172  C188  1.405594 A    
C81   C93   1.418292 A    
C173  C285  1.449107 S    
C186  N58   1.437009 S    
C170  C210  1.409360 A    
O4    Cu4   1.963999 S    
C158  C255  1.470950 S    
Cu5   Cu7   2.676440 S    
C120  C164  1.395047 A    
O6    C2    1.293032 A    
Cu6   Cu8   2.675440 S    
O27   Cu7   1.961163 S    
C180  C292  1.448993 S    
C238  N78   1.438207 S    
N66   O115  1.301094 A    
C230  H46   1.083821 S    
C82   C106  1.413263 A    
C193  N65   1.438367 S    
C280  N40   1.157360 T    
C19   C33   1.417600 A    
N84   O151  1.301051 A    
C156  C249  1.471117 S    
C15   C151  1.478032 S    
C279  N39   1.157352 T    
C129  C145  1.425729 A    
C16   C152  1.478737 S    
C268  N28   1.157463 T    
C111  O63   1.348490 S    
C219  H35   1.083825 S    
C140  C276  1.445023 S    
C181  C215  1.407821 A    
C25   C37   1.417664 A    
O19   C9    1.301161 A    
C184  C296  1.449161 S    
O46   C160  1.294086 A    
C276  N36   1.157503 T    
C178  C194  1.405980 A    
O34   C154  1.294395 A    
N69   O121  1.301110 A    
O24   C12   1.300707 A    
C49   C65   1.392005 A    
C118  C134  1.398278 A    
N62   O107  1.301065 A    
C217  C233  1.397754 A    
N83   O150  1.301359 A    
O24   Cu2   1.961158 S    
O12   Cu8   1.963999 S    
C234  C250  1.420317 A    
C72   N24   1.434455 S    
C53   C69   1.392005 A    
N6    C166  1.438751 S    
O37   C153  1.294220 A    
C113  C161  1.394787 A    
C55   C71   1.392005 A    
C125  C167  1.398915 A    
C68   N20   1.434463 S    
C41   C57   1.391946 A    
C226  H42   1.083811 S    
N3    C163  1.438645 S    
C84   C94   1.418291 A    
Cu11  Cu12  2.673187 S    
O41   C157  1.294525 A    
C85   C95   1.418292 A    
N16   O79   1.301105 A    
N61   O105  1.301111 A    
C7    C207  1.468517 S    
C64   N16   1.434465 S    
C194  N66   1.438239 S    
C109  N7    1.364732 A    
C181  C293  1.449179 S    
C115  C161  1.394788 A    
O30   C16   1.295535 A    
C124  H28   1.084632 S    
C47   C63   1.391946 A    
C227  C263  1.393433 A    
O2    C2    1.293032 A    
C46   C62   1.392011 A    
C135  C147  1.416229 A    
C106  N6    1.364702 A    
C14   C150  1.497729 S    
C219  C259  1.393785 A    
O14   Cu8   1.963991 S    
C124  C166  1.394780 A    
C110  N8    1.364683 A    
C220  C260  1.394217 A    
O16   Cu6   1.963994 S    
C124  C140  1.398125 A    
C181  C197  1.405340 A    
C34   C90   1.427801 A    
C215  C263  1.470713 S    
C199  C205  1.413383 A    
O20   Cu4   1.961153 S    
N77   O137  1.301037 A    
O1    Cu1   1.963276 S    
N2    C162  1.439014 S    
O46   Cu12  1.963205 S    
O20   C10   1.300707 A    
C120  H24   1.084611 S    
C27   C51   1.410993 A    
C269  N29   1.157356 T    
O10   Cu6   1.963996 S    
C246  N86   1.438174 S    
C171  C211  1.408105 A    
C236  C252  1.420320 A    
C231  H47   1.083817 S    
C228  H44   1.083809 S    
C98   O50   1.348498 S    
C127  C143  1.398201 A    
O15   C5    1.293771 A    
C39   C95   1.427806 A    
O1    C1    1.293233 A    
O47   C159  1.293974 A    
N21   O89   1.301107 A    
C221  C237  1.397698 A    
C123  C165  1.398915 A    
C171  C187  1.404744 A    
C137  C149  1.415676 A    
C126  C168  1.398639 A    
C99   O51   1.348505 S    
C176  C212  1.409371 A    
C172  C212  1.409364 A    
O27   C13   1.295629 A    
