data_mof_unit_34549.cif
_audit_creation_date              2012-12-10T20:43:37-0500
_audit_creation_method            fapswitch 2.2
_symmetry_space_group_name_H-M    P1
_symmetry_Int_Tables_number       1
_space_group_crystal_system       triclinic
_cell_length_a                    18.71744
_cell_length_b                    18.735581
_cell_length_c                    18.961589
_cell_angle_alpha                 109.700378
_cell_angle_beta                  109.682592
_cell_angle_gamma                 109.206574
_cell_volume                      5107.54735704

loop_
_atom_site_label
_atom_site_type_symbol
_atom_type_description
_atom_site_fract_x
_atom_site_fract_y
_atom_site_fract_z
_atom_type_partial_charge
C1    C     C_R   0.382052 0.502793 0.380608 0.863302
C2    C     C_R   0.872197 0.768827 0.828420 -0.167665
C3    C     C_R   0.027470 0.760311 0.995887 -0.076437
C4    C     C_R   0.993213 0.747770 0.048362 -0.132828
C5    C     C_R   0.047571 0.796406 0.138846 0.129692
C6    C     C_R   0.284874 0.538826 0.975071 -0.123121
C7    C     C_R   0.202204 0.471345 0.905041 -0.139207
C8    C     C_R   0.166297 0.388200 0.896758 0.009664
C9    C     C_R   0.218322 0.371707 0.955973 0.370890
C10   C     C_R   0.300902 0.439913 0.026212 -0.161318
C11   C     C_R   0.333699 0.523420 0.036205 -0.189338
C12   C     C_R   0.075571 0.251822 0.757240 -0.175841
C13   C     C_R   0.824938 0.826505 0.584392 0.042912
C14   C     C_R   0.996209 0.184092 0.684431 -0.131055
C15   C     C_R   0.916199 0.179163 0.673562 -0.041815
C16   C     C_R   0.915934 0.240841 0.740370 0.025757
C17   C     C_R   0.998239 0.311802 0.813423 -0.129134
C18   C     C_R   0.078256 0.317189 0.821447 0.010987
C19   C     C_R   0.798088 0.130583 0.527658 -0.135799
C20   C     C_R   0.725641 0.064176 0.446360 -0.135568
C21   C     C_R   0.688916 0.977668 0.428288 -0.106205
C22   C     C_R   0.723605 0.957850 0.492122 -0.106623
C23   C     C_R   0.795203 0.024022 0.573582 -0.160644
C24   C     C_R   0.810571 0.818501 0.502817 -0.125910
C25   C     C_R   0.833492 0.110511 0.591419 0.148592
C26   C     C_R   0.730857 0.751164 0.424757 -0.010360
C27   C     C_R   0.671300 0.687165 0.428217 -0.255353
C28   C     C_R   0.689531 0.688167 0.505839 -0.104421
C29   C     C_R   0.766619 0.755994 0.584326 0.016856
C30   C     C_R   0.624618 0.749343 0.300513 -0.234024
C31   C     C_R   0.600632 0.756640 0.226226 -0.164167
C32   C     C_R   0.655482 0.765287 0.190240 0.192094
C33   C     C_R   0.623160 0.620317 0.503636 0.878453
C34   C     C_R   0.731930 0.761754 0.227954 -0.197275
C35   C     C_R   0.754226 0.751626 0.300763 -0.115845
C36   C     C_R   0.702942 0.749537 0.340289 0.154148
C37   C     C_R   0.471353 0.794675 0.540146 0.072306
C38   C     C_R   0.402057 0.709187 0.474305 0.403541
C39   C     C_R   0.394704 0.670982 0.392144 0.019274
C40   C     C_R   0.449773 0.722248 0.373050 -0.258029
C41   C     C_R   0.513046 0.808809 0.435131 -0.180353
C42   C     C_R   0.526336 0.844301 0.518927 -0.168178
C43   C     C_R   0.258204 0.577896 0.252163 -0.224701
C44   C     C_R   0.616737 0.496713 0.620019 0.870074
C45   C     C_R   0.185643 0.497407 0.184735 -0.092179
C46   C     C_R   0.174343 0.419227 0.185457 0.023022
C47   C     C_R   0.241408 0.423378 0.250117 -0.245508
C48   C     C_R   0.314996 0.503863 0.316424 -0.053761
C49   C     C_R   0.321659 0.582664 0.320615 0.069624
C50   C     C_R   0.046955 0.285256 0.149716 -0.236118
C51   C     C_R   0.968286 0.206340 0.089396 -0.159540
C52   C     C_R   0.936251 0.174208 0.000624 0.423700
C53   C     C_R   0.984010 0.220539 0.972569 -0.184288
C54   C     C_R   0.061922 0.299550 0.032546 -0.067311
C55   C     C_R   0.378609 0.379114 0.498405 0.901644
C56   C     C_R   0.093683 0.333158 0.121534 0.125088
C57   C     C_R   0.192059 0.505231 0.562959 -0.122302
C58   C     C_R   0.222941 0.448342 0.571310 -0.107407
C59   C     C_R   0.226643 0.393346 0.502388 0.155614
C60   C     C_R   0.200613 0.397163 0.425734 -0.155359
C61   C     C_R   0.168825 0.453433 0.417287 -0.074142
C62   C     C_R   0.163678 0.506722 0.485508 -0.032461
C63   C     C_R   0.181047 0.257498 0.505724 -0.255710
C64   C     C_R   0.187636 0.184621 0.500849 -0.123616
C65   C     C_R   0.255612 0.172953 0.493452 -0.096414
C66   C     C_R   0.791531 0.765430 0.794733 -0.194937
C67   C     C_R   0.313472 0.232856 0.483749 0.320320
C68   C     C_R   0.310694 0.310509 0.495182 -0.159649
C69   C     C_R   0.242924 0.321900 0.504715 -0.036857
C70   C     C_R   0.320263 0.110600 0.577197 -0.108498
C71   C     C_R   0.330639 0.041432 0.581677 -0.142217
C72   C     C_R   0.287119 0.960329 0.506354 -0.096855
C73   C     C_R   0.233315 0.948439 0.426544 -0.126732
C74   C     C_R   0.223296 0.017836 0.421764 -0.103020
C75   C     C_R   0.267089 0.099371 0.497074 0.191080
C76   C     C_R   0.495112 0.531405 0.779456 0.439154
C77   C     C_R   0.753793 0.757744 0.713297 -0.119065
C78   C     C_R   0.574046 0.546049 0.781295 -0.195159
C79   C     C_R   0.594971 0.478897 0.764033 -0.002243
C80   C     C_R   0.539475 0.398828 0.754518 0.143773
C81   C     C_R   0.461530 0.386386 0.755449 -0.241037
C82   C     C_R   0.438787 0.451505 0.766100 -0.190972
C83   C     C_R   0.743501 0.497497 0.820658 -0.250537
C84   C     C_R   0.814203 0.497753 0.810865 -0.087443
C85   C     C_R   0.821332 0.500183 0.739510 0.008620
C86   C     C_R   0.754608 0.500106 0.678396 -0.234102
C87   C     C_R   0.682534 0.496671 0.686695 -0.076276
C88   C     C_R   0.793895 0.747278 0.662592 0.029530
C89   C     C_R   0.675336 0.493774 0.757697 0.041603
C90   C     C_R   0.934715 0.558664 0.700492 -0.113030
C91   C     C_R   0.001022 0.557105 0.682695 -0.098739
C92   C     C_R   0.026693 0.495829 0.686330 -0.143151
C93   C     C_R   0.985452 0.435671 0.706949 -0.138308
C94   C     C_R   0.919702 0.437845 0.725603 -0.093258
C95   C     C_R   0.894620 0.500377 0.724292 0.110381
C96   C     C_R   0.994834 0.874712 0.380403 0.867317
C97   C     C_R   0.879013 0.880274 0.499922 0.852971
C98   C     C_R   0.998952 0.119432 0.619582 0.871411
C99   C     C_R   0.871584 0.744490 0.694650 -0.247930
C100  C     C_R   0.120391 0.119644 0.500237 0.897461
C101  C     C_R   0.000531 0.379420 0.880723 0.856899
C102  C     C_R   0.120091 0.498564 0.118831 0.862816
C103  C     C_R   0.001027 0.620686 0.120937 0.867550
C104  C     C_R   0.879967 0.498142 0.877953 0.846627
C105  C     C_R   0.953122 0.717316 0.497192 -0.136053
C106  C     C_R   0.987976 0.738293 0.447863 -0.143001
C107  C     C_R   0.937381 0.693158 0.356826 0.029211
C108  C     C_R   0.852477 0.618253 0.314776 0.120930
C109  C     C_R   0.818545 0.599290 0.366281 -0.161938
C110  C     C_R   0.913027 0.760046 0.778756 0.413543
C111  C     C_R   0.867932 0.649221 0.456498 -0.147393
C112  C     C_R   0.984358 0.668098 0.247379 -0.207454
C113  C     C_R   0.002360 0.687726 0.188369 -0.092584
C114  C     C_R   0.019860 0.769474 0.194387 -0.005368
C115  C     C_R   0.015860 0.828696 0.258163 -0.261954
C116  C     C_R   0.994343 0.807489 0.314786 -0.085418
C117  C     C_R   0.974653 0.724736 0.307836 0.002221
C118  C     C_R   0.133427 0.863564 0.175750 -0.143532
C119  C     C_R   0.165822 0.879065 0.122899 -0.148026
C120  C     C_R   0.113527 0.826243 0.033020 -0.074692
H1    H     H_    0.904061 0.782353 0.894234 0.155919
H2    H     H_    0.775165 0.768126 0.201448 0.136538
H3    H     H_    0.814111 0.750481 0.329193 0.126889
H4    H     H_    0.578014 0.911253 0.565450 0.146307
H5    H     H_    0.440827 0.695953 0.308408 0.147863
H6    H     H_    0.550648 0.848742 0.417268 0.145420
H7    H     H_    0.263800 0.637810 0.253132 0.160145
H8    H     H_    0.235484 0.363651 0.249816 0.159058
H9    H     H_    0.761265 0.774764 0.834125 0.164636
H10   H     H_    0.070304 0.309937 0.218216 0.140419
H11   H     H_    0.931973 0.170733 0.111713 0.167511
H12   H     H_    0.961205 0.196120 0.904433 0.156263
H13   H     H_    0.096252 0.336002 0.009723 0.144332
H14   H     H_    0.138600 0.549910 0.478656 0.146017
H15   H     H_    0.188545 0.546925 0.615884 0.133693
H16   H     H_    0.241579 0.445224 0.630376 0.139859
H17   H     H_    0.201460 0.354009 0.371416 0.108203
H18   H     H_    0.147567 0.455384 0.357686 0.146786
H19   H     H_    0.697816 0.767046 0.693610 0.171731
H20   H     H_    0.126847 0.263931 0.509999 0.154767
H21   H     H_    0.353140 0.172719 0.636103 0.108614
H22   H     H_    0.372047 0.050595 0.643572 0.126661
H23   H     H_    0.294830 0.906622 0.509850 0.134911
H24   H     H_    0.199330 0.885240 0.368674 0.137823
H25   H     H_    0.181492 0.008531 0.360016 0.115775
H26   H     H_    0.377560 0.439970 0.764638 0.165388
H27   H     H_    0.618171 0.609297 0.794023 0.174245
H28   H     H_    0.904486 0.739099 0.657397 0.154419
H29   H     H_    0.417487 0.325609 0.746962 0.149893
H30   H     H_    0.740502 0.498280 0.877086 0.148236
H31   H     H_    0.757992 0.501459 0.622804 0.147160
H32   H     H_    0.913745 0.604535 0.694433 0.158186
H33   H     H_    0.031716 0.602745 0.665068 0.146066
H34   H     H_    0.077550 0.494086 0.671921 0.124251
H35   H     H_    0.003893 0.386821 0.707504 0.134096
H36   H     H_    0.887022 0.389832 0.739213 0.087109
H37   H     H_    0.840775 0.633481 0.494918 0.139657
H38   H     H_    0.992351 0.754085 0.567258 0.147385
H39   H     H_    0.055335 0.789544 0.481161 0.165915
H40   H     H_    0.753725 0.544535 0.336593 0.138295
H41   H     H_    0.976950 0.607579 0.245526 0.152401
H42   H     H_    0.030019 0.892099 0.264048 0.151631
H43   H     H_    0.176774 0.901061 0.245053 0.130247
H44   H     H_    0.232576 0.929762 0.151674 0.152988
H45   H     H_    0.140582 0.835758 0.992664 0.192711
H46   H     H_    0.987726 0.716760 0.926586 0.180066
H47   H     H_    0.927062 0.695212 0.018695 0.108356
H48   H     H_    0.397714 0.575789 0.090449 0.144759
H49   H     H_    0.311260 0.603034 0.981732 0.134711
H50   H     H_    0.165828 0.484041 0.857394 0.153149
H51   H     H_    0.340311 0.427946 0.072577 0.172294
H52   H     H_    0.136410 0.254950 0.763087 0.176042
H53   H     H_    0.827811 0.197199 0.540493 0.123063
H54   H     H_    0.698844 0.079554 0.397002 0.129614
H55   H     H_    0.609667 0.635648 0.369527 0.155457
H56   H     H_    0.633723 0.926145 0.364830 0.119649
H57   H     H_    0.696017 0.891139 0.478568 0.137561
H58   H     H_    0.822142 0.007829 0.621976 0.112674
H59   H     H_    0.583268 0.746298 0.328814 0.135038
H60   H     H_    0.540158 0.757291 0.198945 0.119073
O1    O     O_R   0.408360 0.551710 0.460090 -0.573908
O2    O     O_R   0.948280 0.908380 0.356650 -0.627980
O3    O     O_R   0.960110 0.908350 0.551690 -0.635518
O4    O     O_R   0.856660 0.908370 0.448270 -0.605205
O5    O     O_R   0.051720 0.091580 0.643310 -0.615641
O6    O     O_R   0.948270 0.091600 0.539890 -0.610293
O7    O     O_R   0.143340 0.091590 0.551680 -0.618607
O8    O     O_R   0.039890 0.091610 0.448270 -0.620768
O9    O     O_R   0.051730 0.460050 0.908360 -0.617529
O10   O     O_R   0.948290 0.356630 0.908390 -0.631931
O11   O     O_R   0.143340 0.551690 0.091580 -0.617944
O12   O     O_R   0.408400 0.448280 0.356670 -0.627526
O13   O     O_R   0.039900 0.448270 0.091610 -0.615898
O14   O     O_R   0.051710 0.643320 0.091560 -0.606851
O15   O     O_R   0.948270 0.539900 0.091590 -0.632441
O16   O     O_R   0.960100 0.551680 0.908340 -0.609836
O17   O     O_R   0.856660 0.448270 0.908370 -0.633298
O18   O     O_R   0.591600 0.643340 0.551710 -0.638244
O19   O     O_R   0.591630 0.539900 0.448290 -0.630504
O20   O     O_R   0.591600 0.551720 0.643330 -0.626883
O21   O     O_R   0.591640 0.448290 0.539910 -0.613084
O22   O     O_R   0.408370 0.460100 0.551710 -0.592798
O23   O     O_R   0.408400 0.356660 0.448290 -0.561818
O24   O     O_R   0.051730 0.908360 0.460060 -0.621640
Zn1   Zn    Zn3+2 0.499980 0.569060 0.569060 1.028822
Zn2   Zn    Zn3+2 0.500020 0.430940 0.430940 1.011498
Zn3   Zn    Zn3+2 0.069070 0.999960 0.569030 0.961664
Zn4   Zn    Zn3+2 0.930930 0.999990 0.430930 0.968440
Zn5   Zn    Zn3+2 0.069070 0.569030 0.999960 0.974464
Zn6   Zn    Zn3+2 0.930930 0.430930 0.000000 0.943245
C121  C     C_3   0.637055 0.779613 0.113413 -0.437650
C122  C     C_3   0.557921 0.792937 0.081700 -0.380319
C123  C     C_3   0.551032 0.816812 0.011215 -0.781964
H61   H     H_    0.608938 0.880729 0.037769 0.250739
H62   H     H_    0.547228 0.765908 0.956521 0.306186
H63   H     H_    0.491142 0.821964 0.986601 0.249828
H64   H     H_    0.496755 0.731695 0.054945 0.226390
H65   H     H_    0.564713 0.846887 0.136521 0.218822
H66   H     H_    0.696261 0.838582 0.132263 0.205678
H67   H     H_    0.627105 0.722620 0.058977 0.212396
C124  C     C_3   0.482606 0.830250 0.630437 -0.374038
C125  C     C_3   0.562497 0.921130 0.699537 -0.420509
C126  C     C_3   0.570487 0.947069 0.788466 -0.779582
H68   H     H_    0.511176 0.948774 0.786733 0.249107
H69   H     H_    0.578801 0.899788 0.808639 0.275044
H70   H     H_    0.628443 0.013045 0.837313 0.274921
H71   H     H_    0.623344 0.921417 0.703827 0.249035
H72   H     H_    0.555071 0.969950 0.681589 0.224678
H73   H     H_    0.422816 0.832808 0.626028 0.230664
H74   H     H_    0.487886 0.783273 0.652531 0.237474
Cl1   Cl    Cl    0.319987 0.653759 0.492464 -0.678928
Cl2   Cl    Cl    0.835864 0.076814 0.924849 -0.716792
Cl3   Cl    Cl    0.383517 0.205116 0.450942 -0.655222
Cl4   Cl    Cl    0.465330 0.612330 0.791085 -0.686453
C127  C     C_3   0.561155 0.326001 0.743383 -0.470110
C128  C     C_3   0.543397 0.276000 0.651361 -0.268231
C129  C     C_3   0.581713 0.215544 0.643676 -0.867719
H75   H     H_    0.654262 0.254774 0.683669 0.261068
H76   H     H_    0.555711 0.169609 0.665032 0.259090
H77   H     H_    0.563188 0.176929 0.575059 0.274590
H78   H     H_    0.471848 0.235918 0.608076 0.261479
H79   H     H_    0.570279 0.321103 0.629679 0.247133
H80   H     H_    0.629755 0.352003 0.792050 0.221292
H81   H     H_    0.520573 0.278799 0.755956 0.187906
Cl5   Cl    Cl    0.020778 0.779933 0.823474 -0.731326
C130  C     C_3   0.798896 0.553157 0.217532 -0.425308
C131  C     C_3   0.761940 0.589642 0.162306 -0.342442
C132  C     C_3   0.726321 0.529578 0.066317 -0.871075
H82   H     H_    0.779846 0.525016 0.055601 0.273734
H83   H     H_    0.674516 0.463108 0.043144 0.262877
H84   H     H_    0.697662 0.556466 0.027919 0.246562
H85   H     H_    0.707393 0.594854 0.170077 0.231721
H86   H     H_    0.812803 0.655137 0.182678 0.232945
H87   H     H_    0.838071 0.527622 0.196634 0.212139
H88   H     H_    0.742314 0.494288 0.202632 0.190856
C133  C     C_3   0.904436 0.908445 0.669549 -0.399213
C134  C     C_3   0.888098 0.947127 0.744046 -0.390357
C135  C     C_3   0.962689 0.040524 0.811801 -0.753338
H89   H     H_    0.027214 0.044375 0.828275 0.290395
H90   H     H_    0.957947 0.085869 0.787266 0.251732
H91   H     H_    0.959092 0.060656 0.871837 0.284118
H92   H     H_    0.824847 0.946538 0.719373 0.232636
H93   H     H_    0.887657 0.909972 0.778433 0.269627
H94   H     H_    0.958475 0.894507 0.692386 0.227167
H95   H     H_    0.928658 0.963074 0.657670 0.224904
Cl6   Cl    Cl    0.183791 0.266046 0.942497 -0.672859
C136  C     C_3   0.827715 0.227536 0.732912 -0.424945
C137  C     C_3   0.795259 0.165489 0.765069 -0.258675
C138  C     C_3   0.704871 0.145746 0.752291 -0.915181
H96   H     H_    0.704973 0.207415 0.784805 0.269830
H97   H     H_    0.655632 0.108102 0.682054 0.259041
H98   H     H_    0.687326 0.106419 0.782376 0.274898
H99   H     H_    0.793227 0.103033 0.730904 0.220371
H100  H     H_    0.840177 0.196365 0.835195 0.257963
H101  H     H_    0.830272 0.289433 0.768801 0.208435
H102  H     H_    0.777732 0.201113 0.665097 0.200958

loop_
_geom_bond_atom_site_label_1
_geom_bond_atom_site_label_2
_ccdc_geom_bond_type
C72   H23   S    
C99   H28   S    
C41   C42   A    
C93   C94   A    
C5    C114  S    
O3    Zn3   S    
C63   H20   S    
O5    Zn3   S    
C74   H25   S    
O1    Zn1   S    
C35   C36   A    
C133  H95   S    
C114  C115  A    
O13   Zn6   S    
C126  H70   S    
C42   H4    S    
C7    C8    A    
C12   H52   S    
C85   C86   A    
C128  C129  S    
C121  H67   S    
C136  H101  S    
C26   C27   A    
O20   Zn1   S    
C83   C84   A    
C33   O18   A    
C13   C29   A    
C28   C29   A    
C100  O8    A    
C76   C78   A    
C91   H33   S    
C98   O5    A    
C101  O9    A    
C109  C111  A    
C112  C117  A    
C81   H29   S    
C61   H18   S    
C123  H63   S    
C102  O11   A    
C122  H64   S    
C33   O19   A    
C106  H39   S    
C104  O17   A    
C108  C130  S    
C108  C109  A    
C34   C35   A    
C73   C74   A    
C128  H79   S    
C37   C42   A    
C17   C101  S    
C118  C119  A    
C23   H58   S    
O17   Zn6   S    
C50   H10   S    
C129  H75   S    
C130  C131  S    
C20   H54   S    
C126  H68   S    
C77   C88   A    
C8    C9    A    
C65   C67   A    
O22   Zn1   S    
C137  H99   S    
O21   Zn2   S    
C96   O24   A    
C70   C71   A    
C103  O14   A    
C125  H72   S    
C44   C87   S    
C9    C10   A    
C132  H84   S    
C60   H17   S    
C72   C73   A    
C83   H30   S    
C73   H24   S    
C105  C111  A    
C59   C60   A    
C34   H2    S    
C134  H93   S    
C138  H96   S    
O18   Zn1   S    
C80   C127  S    
C61   C62   A    
C103  O15   A    
C29   C88   S    
C22   H57   S    
C132  H82   S    
C112  C113  A    
C82   H26   S    
C132  H83   S    
C120  H45   S    
C14   C98   S    
C57   C58   A    
C123  H62   S    
C83   C89   A    
O23   Zn2   S    
C54   C56   A    
C136  H102  S    
C7    H50   S    
C124  H73   S    
C74   C75   A    
C51   C52   A    
C16   C136  S    
C63   C69   A    
C93   H35   S    
C100  O7    A    
C84   C85   A    
O15   Zn6   S    
C90   H32   S    
C101  O10   A    
C3    C120  A    
C43   H7    S    
C91   C92   A    
C127  C128  S    
C32   C121  S    
C51   H11   S    
C78   C79   A    
C52   Cl2   S    
C81   C82   A    
C57   C62   A    
C10   H51   S    
C131  H85   S    
C99   C110  A    
C138  H97   S    
O19   Zn2   S    
C50   C56   A    
C134  H92   S    
C13   C24   A    
O8    Zn4   S    
C60   C61   A    
C32   C34   A    
C128  H78   S    
C124  H74   S    
C135  H90   S    
C67   C68   A    
C19   H53   S    
C121  C122  S    
C37   C38   A    
C13   C133  S    
C124  C125  S    
C3    H46   S    
C47   C48   A    
C14   C15   A    
O24   Zn3   S    
C123  H61   S    
C30   C31   A    
C55   O22   A    
C21   H56   S    
C55   O23   A    
C133  C134  S    
C134  C135  S    
C12   C18   A    
C17   C18   A    
C104  O16   A    
C57   H15   S    
C50   C51   A    
C53   H12   S    
C106  C107  A    
C20   C21   A    
C119  C120  A    
C43   C45   A    
C54   H13   S    
C127  H80   S    
C38   Cl1   S    
O10   Zn6   S    
C78   H27   S    
C59   C69   S    
C71   H22   S    
O16   Zn5   S    
C131  H86   S    
C110  Cl5   S    
C26   C36   S    
C48   C49   A    
C39   C49   S    
C12   C14   A    
C28   C33   S    
C44   O20   A    
C10   C11   A    
C129  H76   S    
C11   H48   S    
C84   C104  S    
C118  H43   S    
C79   C80   A    
C129  H77   S    
C135  H91   S    
C67   Cl3   S    
C107  C108  A    
C137  H100  S    
C3    C4    A    
O11   Zn5   S    
C102  O13   A    
C6    C11   A    
C121  H66   S    
C52   C53   A    
C97   O4    A    
C113  C114  A    
C9    Cl6   S    
C2    H1    S    
C66   C77   A    
C46   C47   A    
C40   C41   A    
C70   H21   S    
C1    O1    A    
C58   C59   A    
C103  C113  S    
C86   C87   A    
C55   C68   S    
O12   Zn2   S    
C41   H6    S    
C68   C69   A    
C31   C32   A    
C43   C49   A    
C77   H19   S    
C96   O2    A    
C80   C81   A    
C2    C66   A    
C65   C75   S    
C119  H44   S    
C15   C16   A    
C76   Cl4   S    
C131  C132  S    
C126  H69   S    
C1    C48   S    
C53   C54   A    
C6    C7    A    
C30   C36   A    
C130  H87   S    
C105  C106  A    
C31   H60   S    
C46   C56   S    
O4    Zn4   S    
C4    H47   S    
O6    Zn4   S    
C5    C118  A    
C136  C137  S    
C58   H16   S    
C64   C65   A    
C66   H9    S    
C19   C20   A    
C133  H94   S    
C135  H89   S    
C111  H37   S    
C64   C100  S    
C37   C124  S    
C71   C72   A    
C98   O6    A    
C105  H38   S    
O9    Zn5   S    
C86   H31   S    
O14   Zn5   S    
C85   C95   S    
C24   C26   A    
C62   H14   S    
C90   C91   A    
C38   C39   A    
C30   H59   S    
C122  H65   S    
C125  H71   S    
C115  H42   S    
C76   C82   A    
C40   H5    S    
C35   H3    S    
C92   C93   A    
C116  C117  A    
O2    Zn4   S    
C24   C97   S    
C23   C25   A    
C27   H55   S    
C94   C95   A    
C19   C25   A    
C8    C18   S    
C127  H81   S    
C79   C89   S    
C88   C99   A    
C112  H41   S    
C45   C102  S    
C63   C64   A    
C39   C40   A    
C1    O12   A    
C45   C46   A    
C4    C5    A    
C122  C123  S    
C70   C75   A    
C15   C25   S    
C94   H36   S    
C130  H88   S    
C138  H98   S    
O7    Zn3   S    
C27   C28   A    
C87   C89   A    
C22   C23   A    
C96   C116  S    
C97   O3    A    
C92   H34   S    
C47   H8    S    
C44   O21   A    
C21   C22   A    
C109  H40   S    
C125  C126  S    
C107  C117  S    
C90   C95   A    
C115  C116  A    
C16   C17   A    
C137  C138  S    
C6    H49   S    
C2    C110  A    
