data_mof_unit_45364.cif
_audit_creation_date              2012-12-10T16:59:19-0500
_audit_creation_method            fapswitch 2.2
_symmetry_space_group_name_H-M    P1
_symmetry_Int_Tables_number       1
_space_group_crystal_system       triclinic
_cell_length_a                    7.708851
_cell_length_b                    8.560361
_cell_length_c                    27.439056
_cell_angle_alpha                 90.657075
_cell_angle_beta                  86.250722
_cell_angle_gamma                 94.073334
_cell_volume                      1802.23641269

loop_
_atom_site_label
_atom_site_type_symbol
_atom_type_description
_atom_site_fract_x
_atom_site_fract_y
_atom_site_fract_z
_atom_type_partial_charge
C1    C     C_R   0.546301 0.795066 0.498722 0.974852
C2    C     C_R   0.385103 0.695797 0.131429 -0.128342
C3    C     C_R   0.500050 0.477266 0.647575 -0.159365
C4    C     C_R   0.478341 0.484997 0.352653 -0.160132
C5    C     C_R   0.367412 0.700261 0.028362 -0.017192
C6    C     C_R   0.250157 0.421085 0.980028 -0.027034
C7    C     C_R   0.224420 0.433907 0.031308 0.096711
C8    C     C_R   0.366438 0.696444 0.976666 0.082845
C9    C     C_R   0.295829 0.568818 0.055401 0.074929
C10   C     C_R   0.319783 0.553001 0.952816 0.072488
C11   C     C_R   0.449366 0.826708 0.053562 -0.354188
C12   C     C_R   0.453685 0.204933 0.501301 0.957888
C13   C     C_R   0.218269 0.277364 0.955434 -0.343265
C14   C     C_R   0.456554 0.827872 0.104712 0.576881
C15   C     C_R   0.250580 0.263263 0.905123 0.551998
C16   C     C_R   0.501662 0.494053 0.594223 0.856392
C17   C     C_R   0.495565 0.495106 0.405762 0.856337
C18   C     C_R   0.416425 0.829616 0.947749 -0.220979
C19   C     C_R   0.135998 0.313092 0.059681 -0.246163
C20   C     C_2   0.570610 0.958718 0.497986 -0.384041
C21   C     C_2   0.429329 0.041305 0.502101 -0.379685
C22   C     C_R   0.438043 0.658488 0.823211 0.508329
C23   C     C_R   0.348753 0.540133 0.901502 -0.125861
C24   C     C_R   0.274113 0.421275 0.181945 0.490648
C25   C     C_R   0.369160 0.382547 0.827797 0.525171
C26   C     C_R   0.397327 0.684744 0.182386 0.549490
C27   C     C_R   0.322066 0.425128 0.722333 -0.124643
C28   C     C_R   0.562685 0.573097 0.270145 -0.099019
C29   C     C_R   0.350841 0.400044 0.672437 0.126030
C30   C     C_R   0.604761 0.560625 0.319025 0.088485
C31   C     C_R   0.635445 0.550272 0.674735 0.092095
C32   C     C_R   0.319305 0.416843 0.335803 0.130667
C33   C     C_R   0.608779 0.556821 0.725918 -0.091566
C34   C     C_R   0.303929 0.567796 0.106735 -0.127894
C35   C     C_R   0.272825 0.455439 0.289599 -0.112338
C36   C     C_R   0.450398 0.500685 0.749286 0.199619
C37   C     C_R   0.394916 0.527941 0.255889 0.187340
C38   C     C_3   0.803640 0.621257 0.648786 -0.381823
C39   C     C_3   0.940364 0.696821 0.681405 -0.886098
C40   C     C_3   0.196899 0.300848 0.365449 -0.421688
C41   C     C_3   0.167268 0.144833 0.338393 -0.804026
C42   C     C_3   0.779665 0.628461 0.335885 -0.377874
C43   C     C_3   0.901650 0.715665 0.297401 -0.864536
C44   C     C_3   0.220688 0.288173 0.647635 -0.407232
C45   C     C_R   0.408832 0.673103 0.873872 -0.015526
C46   C     C_3   0.206896 0.125110 0.670456 -0.820286
C47   C     C_3   0.526563 0.096197 0.111658 -0.214109
C48   C     C_3   0.041186 0.091263 0.877237 -0.227657
C49   C     C_R   0.237955 0.434273 0.133155 0.002549
C50   C     C_R   0.437225 0.817766 0.897229 -0.085318
C51   C     C_R   0.144211 0.312839 0.109873 -0.172198
C52   C     C_R   0.321919 0.393801 0.877949 -0.142262
H1    H     H_    0.013733 0.381106 0.464132 0.183950
H2    H     H_    0.176192 0.170575 0.974554 0.160740
H3    H     H_    0.438464 0.945223 0.963213 0.147900
H4    H     H_    0.061763 0.215817 0.043940 0.147942
H5    H     H_    0.703684 0.010645 0.494045 0.178070
H6    H     H_    0.296248 0.989400 0.506052 0.178284
H7    H     H_    0.887871 0.796887 0.702300 0.276911
H8    H     H_    0.983449 0.609157 0.706734 0.256200
H9    H     H_    0.056266 0.741842 0.658232 0.257844
H10   H     H_    0.866984 0.527254 0.627554 0.221913
H11   H     H_    0.770535 0.712035 0.622960 0.210477
H12   H     H_    0.986170 0.618271 0.536119 0.187783
H13   H     H_    0.095505 0.159473 0.305162 0.282862
H14   H     H_    0.293997 0.095508 0.327903 0.280093
H15   H     H_    0.088316 0.060088 0.362617 0.236189
H16   H     H_    0.249511 0.271102 0.400518 0.220081
H17   H     H_    0.069782 0.352119 0.373564 0.198752
H18   H     H_    0.940017 0.635486 0.267107 0.253543
H19   H     H_    0.838351 0.816522 0.282938 0.284270
H20   H     H_    0.022123 0.761423 0.314388 0.260073
H21   H     H_    0.754909 0.712360 0.366343 0.219258
H22   H     H_    0.850617 0.531453 0.349757 0.220578
H23   H     H_    0.707813 0.608590 0.748390 0.167783
H24   H     H_    0.337559 0.077797 0.669851 0.276729
H25   H     H_    0.150162 0.128103 0.708655 0.277593
H26   H     H_    0.120594 0.044829 0.649150 0.239938
H27   H     H_    0.258005 0.269447 0.608503 0.231885
H28   H     H_    0.090468 0.336650 0.650443 0.211349
H29   H     H_    0.390720 0.106161 0.101412 0.156261
H30   H     H_    0.620672 0.128920 0.080452 0.135818
H31   H     H_    0.550940 0.181840 0.141510 0.214655
H32   H     H_    0.992197 0.184904 0.854974 0.157464
H33   H     H_    0.965040 0.080488 0.913084 0.134415
H34   H     H_    0.142829 0.420941 0.278914 0.174812
H35   H     H_    0.019488 0.978756 0.857322 0.201527
H36   H     H_    0.480019 0.922186 0.876606 0.223168
H37   H     H_    0.082644 0.213633 0.130133 0.199380
H38   H     H_    0.657532 0.621459 0.242688 0.176354
H39   H     H_    0.200601 0.380580 0.740934 0.155917
H40   H     H_    0.520555 0.921096 0.033766 0.149896
N1    N     N_R   0.420781 0.514328 0.801306 -0.350031
N2    N     N_R   0.352565 0.545741 0.205933 -0.349027
N3    N     N_2   0.950320 0.457960 0.486880 -0.177129
N4    N     N_2   0.049680 0.542040 0.513120 -0.176721
O1    O     O_R   0.389250 0.738570 0.503220 -0.604613
O2    O     O_2   0.237547 0.282341 0.204504 -0.566554
O3    O     O_2   0.453249 0.811235 0.208313 -0.493497
O4    O     O_2   0.366348 0.240968 0.805571 -0.496940
O5    O     O_3   0.554381 0.945232 0.128448 -0.559956
O6    O     O_3   0.221166 0.118149 0.883318 -0.578258
O7    O     O_R   0.610750 0.261430 0.496780 -0.605133
O8    O     O_R   0.678390 0.711630 0.494810 -0.632290
O9    O     O_R   0.321610 0.288370 0.505190 -0.646118
O10   O     O_R   0.355440 0.513440 0.575450 -0.618834
O11   O     O_R   0.644560 0.486560 0.424550 -0.625086
O12   O     O_R   0.644590 0.486500 0.567040 -0.632087
O13   O     O_R   0.355410 0.513500 0.432960 -0.622119
O14   O     O_2   0.482439 0.787370 0.796028 -0.547271
Zn1   Zn    Zn3+2 0.306940 0.517990 0.505620 0.927222
Zn2   Zn    Zn3+2 0.693060 0.482010 0.494380 0.926381

loop_
_geom_bond_atom_site_label_1
_geom_bond_atom_site_label_2
_ccdc_geom_bond_type
C19   H4    S    
C26   N2    A    
C25   N1    A    
C43   H20   S    
C47   O5    S    
H1    N3    S    
O11   Zn2   S    
N3    N4    D    
C49   C51   A    
C46   H24   S    
C41   H15   S    
C48   H32   S    
C23   C45   A    
C45   C50   A    
C35   C37   A    
C13   H2    S    
N3    Zn2   S    
C17   O11   A    
C38   C39   S    
O1    Zn1   S    
C11   C14   A    
C27   C29   A    
C33   C36   A    
C47   H30   S    
C3    C29   A    
C11   H40   S    
C33   H23   S    
C34   C49   A    
C31   C33   A    
C27   H39   S    
C47   H31   S    
C50   H36   S    
C26   O3    S    
C2    C34   A    
C47   H29   S    
O9    Zn1   S    
C39   H7    S    
C36   N1    S    
C44   C46   S    
C6    C7    A    
O10   Zn1   S    
C39   H9    S    
N4    Zn1   S    
C42   H22   S    
C40   H17   S    
C32   C35   A    
C44   H28   S    
H12   N4    S    
C12   O7    A    
C1    O1    A    
C46   H26   S    
C14   O5    S    
C41   H13   S    
C22   O14   S    
C12   C21   S    
C8    C18   A    
O12   Zn2   S    
O7    Zn2   S    
C5    C9    A    
C24   N2    A    
C46   H25   S    
C25   O4    S    
C48   O6    S    
C48   H35   S    
C2    C26   A    
C15   C52   A    
C3    C31   A    
C1    O8    A    
C4    C32   A    
C18   H3    S    
C4    C17   S    
C40   C41   S    
C43   H18   S    
C7    C19   A    
C13   C15   A    
C29   C44   S    
C9    C34   A    
C10   C23   A    
C22   N1    A    
C24   O2    S    
C42   C43   S    
C18   C50   A    
O8    Zn2   S    
C38   H11   S    
C24   C49   A    
C7    C9    A    
C1    C20   S    
C43   H19   S    
C44   H27   S    
C17   O13   A    
C6    C10   A    
C5    C8    A    
C5    C11   A    
C41   H14   S    
C16   O10   A    
C27   C36   A    
C31   C38   S    
O13   Zn1   S    
C25   C52   A    
C21   H6    S    
C51   H37   S    
C6    C13   A    
C23   C52   A    
C12   O9    A    
C28   C37   A    
C39   H8    S    
C28   C30   A    
C42   H21   S    
C37   N2    S    
C32   C40   S    
C15   O6    S    
C2    C14   A    
C16   O12   A    
C19   C51   A    
C22   C45   A    
C20   C21   D    
C8    C10   A    
C40   H16   S    
C48   H33   S    
C30   C42   S    
C28   H38   S    
C20   H5    S    
C35   H34   S    
C4    C30   A    
C3    C16   S    
C38   H10   S    
