data_mof_unit_63586.cif
_audit_creation_date              2012-12-10T17:06:14-0500
_audit_creation_method            fapswitch 2.2
_symmetry_space_group_name_H-M    P1
_symmetry_Int_Tables_number       1
_space_group_crystal_system       triclinic
_cell_length_a                    23.448461
_cell_length_b                    31.096048
_cell_length_c                    18.89222
_cell_angle_alpha                 89.978964
_cell_angle_beta                  125.799426
_cell_angle_gamma                 90.042821
_cell_volume                      11172.7628163

loop_
_atom_site_label
_atom_site_type_symbol
_atom_type_description
_atom_site_fract_x
_atom_site_fract_y
_atom_site_fract_z
_atom_type_partial_charge
Br1   Br    Br    0.578768 0.853648 0.879785 -0.350963
Br2   Br    Br    0.242055 0.234531 0.214054 -0.379722
Br3   Br    Br    0.242707 0.765150 0.214792 -0.378245
Br4   Br    Br    0.757291 0.234852 0.785207 -0.378248
Br5   Br    Br    0.257946 0.265470 0.785946 -0.379721
Br6   Br    Br    0.742055 0.734531 0.214054 -0.379722
Br7   Br    Br    0.742707 0.265150 0.214792 -0.378245
Br8   Br    Br    0.257291 0.734852 0.785207 -0.378248
Br9   Br    Br    0.848061 0.820785 0.732317 -0.365975
Br10  Br    Br    0.151949 0.179220 0.267699 -0.365966
Br11  Br    Br    0.151191 0.820571 0.266211 -0.367059
Br12  Br    Br    0.421225 0.146348 0.120208 -0.350961
Br13  Br    Br    0.848795 0.179436 0.733765 -0.367047
Br14  Br    Br    0.348061 0.320785 0.732317 -0.365975
Br15  Br    Br    0.651949 0.679220 0.267699 -0.365966
Br16  Br    Br    0.651190 0.320571 0.266211 -0.367059
Br17  Br    Br    0.348795 0.679436 0.733765 -0.367047
Br18  Br    Br    0.577554 0.873134 0.496062 -0.388885
Br19  Br    Br    0.422454 0.126868 0.503942 -0.388891
Br20  Br    Br    0.421279 0.873469 0.503467 -0.387749
Br21  Br    Br    0.578707 0.126534 0.496526 -0.387761
Br22  Br    Br    0.077554 0.373134 0.496062 -0.388885
Br23  Br    Br    0.421494 0.853613 0.120526 -0.350811
Br24  Br    Br    0.922454 0.626868 0.503942 -0.388891
Br25  Br    Br    0.921279 0.373469 0.503467 -0.387749
Br26  Br    Br    0.078707 0.626534 0.496526 -0.387761
Br27  Br    Br    0.509365 0.934469 0.744981 -0.273697
Br28  Br    Br    0.490625 0.065525 0.255009 -0.273710
Br29  Br    Br    0.490838 0.934470 0.255258 -0.273796
Br30  Br    Br    0.509173 0.065524 0.744753 -0.273806
Br31  Br    Br    0.009365 0.434469 0.744981 -0.273697
Br32  Br    Br    0.990625 0.565525 0.255009 -0.273710
Br33  Br    Br    0.990838 0.434470 0.255258 -0.273796
Br34  Br    Br    0.578515 0.146381 0.879484 -0.350807
Br35  Br    Br    0.009173 0.565524 0.744753 -0.273806
Br36  Br    Br    0.078768 0.353648 0.879785 -0.350963
Br37  Br    Br    0.921225 0.646348 0.120208 -0.350961
Br38  Br    Br    0.921494 0.353613 0.120526 -0.350811
Br39  Br    Br    0.078515 0.646381 0.879484 -0.350807
Br40  Br    Br    0.757946 0.765470 0.785946 -0.379721
C1    C     C_R   0.695063 0.809329 0.879472 0.935661
C2    C     C_R   0.320229 0.153610 0.248002 -0.082138
C3    C     C_R   0.718322 0.134769 0.639340 -0.230427
C4    C     C_R   0.217422 0.365130 0.638253 -0.230323
C5    C     C_R   0.782586 0.634874 0.361758 -0.230325
C6    C     C_R   0.781666 0.365236 0.360644 -0.230428
C7    C     C_R   0.218322 0.634769 0.639340 -0.230427
C8    C     C_R   0.652169 0.876639 0.617403 0.292369
C9    C     C_R   0.347838 0.123364 0.382603 0.292370
C10   C     C_R   0.347065 0.876802 0.381914 0.292499
C11   C     C_R   0.652926 0.123201 0.618076 0.292498
C12   C     C_R   0.152169 0.376639 0.617403 0.292369
C13   C     C_R   0.320072 0.846364 0.247776 -0.082172
C14   C     C_R   0.847838 0.623364 0.382603 0.292370
C15   C     C_R   0.847065 0.376802 0.381914 0.292499
C16   C     C_R   0.152926 0.623201 0.618076 0.292498
C17   C     C_R   0.639602 0.875524 0.682346 -0.027856
C18   C     C_R   0.360401 0.124477 0.317657 -0.027851
C19   C     C_R   0.360043 0.875591 0.317332 -0.027483
C20   C     C_R   0.639953 0.124410 0.682664 -0.027479
C21   C     C_R   0.139602 0.375524 0.682346 -0.027856
C22   C     C_R   0.860401 0.624476 0.317657 -0.027851
C23   C     C_R   0.860043 0.375591 0.317332 -0.027483
C24   C     C_R   0.679925 0.153638 0.752219 -0.082173
C25   C     C_R   0.139953 0.624410 0.682664 -0.027479
C26   C     C_R   0.179773 0.346391 0.752001 -0.082137
C27   C     C_R   0.820229 0.653610 0.248002 -0.082138
C28   C     C_R   0.820072 0.346364 0.247776 -0.082172
C29   C     C_R   0.179925 0.653638 0.752219 -0.082173
C30   C     C_R   0.661064 0.840740 0.810794 -0.169903
C31   C     C_R   0.338935 0.159260 0.189206 -0.169905
C32   C     C_R   0.338954 0.840716 0.189190 -0.169769
C33   C     C_R   0.304936 0.190671 0.120528 0.935657
C34   C     C_R   0.661047 0.159284 0.810810 -0.169771
C35   C     C_R   0.161064 0.340740 0.810794 -0.169903
C36   C     C_R   0.838935 0.659260 0.189206 -0.169905
C37   C     C_R   0.838954 0.340716 0.189190 -0.169769
C38   C     C_R   0.161047 0.659284 0.810810 -0.169771
C39   C     C_R   0.607062 0.864792 0.803302 0.216609
C40   C     C_R   0.392935 0.135206 0.196694 0.216615
C41   C     C_R   0.393029 0.864782 0.196807 0.216793
C42   C     C_R   0.606976 0.135215 0.803197 0.216798
C43   C     C_R   0.107062 0.364792 0.803302 0.216609
C44   C     C_R   0.304963 0.809318 0.120517 0.935319
C45   C     C_R   0.892935 0.635206 0.196694 0.216615
C46   C     C_R   0.893029 0.364782 0.196807 0.216793
C47   C     C_R   0.106976 0.635215 0.803197 0.216798
C48   C     C_R   0.573253 0.896903 0.740585 0.252672
C49   C     C_R   0.426742 0.103094 0.259410 0.252661
C50   C     C_R   0.426772 0.896917 0.259489 0.252757
C51   C     C_R   0.573233 0.103080 0.740516 0.252745
C52   C     C_R   0.073253 0.396903 0.740585 0.252672
C53   C     C_R   0.926742 0.603094 0.259410 0.252661
C54   C     C_R   0.926772 0.396917 0.259489 0.252757
C55   C     C_R   0.695038 0.190682 0.879482 0.935316
C56   C     C_R   0.073233 0.603080 0.740516 0.252745
C57   C     C_R   0.589109 0.902409 0.679673 -0.193772
C58   C     C_R   0.410890 0.097591 0.320326 -0.193764
C59   C     C_R   0.410721 0.902456 0.320210 -0.193883
C60   C     C_R   0.589279 0.097544 0.679791 -0.193874
C61   C     C_R   0.089109 0.402409 0.679673 -0.193772
C62   C     C_R   0.910890 0.597591 0.320326 -0.193764
C63   C     C_R   0.910721 0.402456 0.320210 -0.193883
C64   C     C_R   0.089279 0.597544 0.679791 -0.193874
C65   C     C_R   0.059201 0.561117 0.619507 0.964684
C66   C     C_R   0.195063 0.309329 0.879472 0.935661
C67   C     C_R   0.940799 0.438883 0.380493 0.964679
C68   C     C_R   0.940858 0.561137 0.380541 0.964471
C69   C     C_R   0.059141 0.438862 0.619458 0.964466
C70   C     C_R   0.559201 0.061117 0.619507 0.964684
C71   C     C_R   0.440799 0.938883 0.380493 0.964679
C72   C     C_R   0.440858 0.061137 0.380541 0.964471
C73   C     C_R   0.559141 0.938862 0.619458 0.964467
C74   C     C_R   0.640636 0.750855 0.999681 0.920381
C75   C     C_R   0.359364 0.249145 0.000319 0.920381
C76   C     C_R   0.359322 0.750843 0.000230 0.919771
C77   C     C_R   0.804936 0.690671 0.120528 0.935657
C78   C     C_R   0.640678 0.249157 0.999770 0.919773
C79   C     C_R   0.140636 0.250855 0.999681 0.920381
C80   C     C_R   0.859364 0.749145 0.000319 0.920381
C81   C     C_R   0.859322 0.250843 0.000230 0.919771
C82   C     C_R   0.140678 0.749157 0.999770 0.919773
C83   C     C_1   0.580649 0.752114 0.000268 -0.056907
C84   C     C_1   0.419351 0.247886 0.999732 -0.056907
C85   C     C_1   0.419255 0.752113 0.999527 -0.057173
C86   C     C_1   0.580745 0.247887 0.000473 -0.057174
C87   C     C_1   0.080649 0.252114 0.000268 -0.056907
C88   C     C_R   0.804963 0.309318 0.120517 0.935319
C89   C     C_1   0.919351 0.747886 0.999732 -0.056907
C90   C     C_1   0.919255 0.252113 0.999527 -0.057173
C91   C     C_1   0.080745 0.747887 0.000473 -0.057174
C92   C     C_1   0.529714 0.752682 0.000106 0.100978
C93   C     C_1   0.470286 0.247318 0.999894 0.100982
C94   C     C_1   0.470164 0.752682 0.999633 0.100897
C95   C     C_1   0.529836 0.247317 0.000367 0.100901
C96   C     C_1   0.029714 0.252682 0.000106 0.100978
C97   C     C_1   0.970286 0.747318 0.999894 0.100982
C98   C     C_1   0.970164 0.252682 0.999633 0.100897
C99   C     C_R   0.195038 0.690682 0.879482 0.935316
C100  C     C_1   0.029836 0.747317 0.000367 0.100901
C101  C     C_R   0.737087 0.825009 0.758799 0.177815
C102  C     C_R   0.262917 0.174993 0.241207 0.177815
C103  C     C_R   0.262721 0.824873 0.240782 0.177286
C104  C     C_R   0.737273 0.175130 0.759209 0.177289
C105  C     C_R   0.237087 0.325009 0.758799 0.177815
C106  C     C_R   0.762917 0.674993 0.241207 0.177815
C107  C     C_R   0.762722 0.324873 0.240782 0.177286
C108  C     C_R   0.237273 0.675130 0.759209 0.177289
C109  C     C_R   0.762135 0.840833 0.712138 0.279604
C110  C     C_R   0.679773 0.846391 0.752001 -0.082137
C111  C     C_R   0.237872 0.159171 0.287873 0.279604
C112  C     C_R   0.237253 0.840769 0.286878 0.279378
C113  C     C_R   0.762736 0.159236 0.713106 0.279379
C114  C     C_R   0.262135 0.340833 0.712138 0.279604
C115  C     C_R   0.737872 0.659171 0.287873 0.279604
C116  C     C_R   0.737254 0.340769 0.286878 0.279378
C117  C     C_R   0.262736 0.659236 0.713106 0.279379
C118  C     C_R   0.717422 0.865130 0.638253 -0.230323
C119  C     C_R   0.282586 0.134874 0.361758 -0.230325
C120  C     C_R   0.281666 0.865236 0.360644 -0.230428
H1    H     H_    0.729163 0.869542 0.591149 0.218875
H2    H     H_    0.270849 0.130463 0.408865 0.218876
H3    H     H_    0.269596 0.869724 0.407413 0.218812
H4    H     H_    0.730387 0.130283 0.592565 0.218814
H5    H     H_    0.229163 0.369542 0.591149 0.218875
H6    H     H_    0.770849 0.630463 0.408865 0.218876
H7    H     H_    0.769596 0.369724 0.407413 0.218812
H8    H     H_    0.230386 0.630284 0.592565 0.218814
O1    O     O_R   0.678330 0.769930 0.856640 -0.569564
O2    O     O_R   0.269970 0.178360 0.039920 -0.600466
O3    O     O_R   0.269970 0.821640 0.039920 -0.600605
O4    O     O_R   0.730030 0.178360 0.960080 -0.600603
O5    O     O_R   0.230030 0.321640 0.960080 -0.600468
O6    O     O_R   0.769970 0.678360 0.039920 -0.600466
O7    O     O_R   0.769970 0.321640 0.039920 -0.600605
O8    O     O_R   0.230030 0.678360 0.960080 -0.600603
O9    O     O_R   0.641350 0.724120 0.948260 -0.614687
O10   O     O_R   0.358650 0.275880 0.051740 -0.614684
O11   O     O_R   0.358650 0.724120 0.051740 -0.614601
O12   O     O_R   0.321670 0.230070 0.143360 -0.569564
O13   O     O_R   0.641350 0.275880 0.948260 -0.614599
O14   O     O_R   0.141350 0.224120 0.948260 -0.614687
O15   O     O_R   0.858650 0.775880 0.051740 -0.614684
O16   O     O_R   0.858650 0.224120 0.051740 -0.614601
O17   O     O_R   0.141350 0.775880 0.948260 -0.614599
O18   O     O_R   0.693050 0.775840 0.051700 -0.560849
O19   O     O_R   0.306950 0.224160 0.948300 -0.560848
O20   O     O_R   0.306950 0.775840 0.948300 -0.560987
O21   O     O_R   0.693050 0.224160 0.051700 -0.560987
O22   O     O_R   0.193050 0.275840 0.051700 -0.560849
O23   O     O_R   0.321670 0.769930 0.143360 -0.569404
O24   O     O_R   0.806950 0.724160 0.948300 -0.560848
O25   O     O_R   0.806950 0.275840 0.948300 -0.560987
O26   O     O_R   0.193050 0.724160 0.051700 -0.560987
O27   O     O_R   0.999060 0.545790 0.591600 -0.552111
O28   O     O_R   0.000940 0.454210 0.408400 -0.552111
O29   O     O_R   0.000940 0.545790 0.408400 -0.551968
O30   O     O_R   0.999060 0.454210 0.591600 -0.551967
O31   O     O_R   0.499060 0.045790 0.591600 -0.552111
O32   O     O_R   0.500940 0.954210 0.408400 -0.552111
O33   O     O_R   0.500940 0.045790 0.408400 -0.551968
O34   O     O_R   0.678330 0.230070 0.856640 -0.569404
O35   O     O_R   0.499060 0.954210 0.591600 -0.551967
O36   O     O_R   0.092510 0.545780 0.591590 -0.629421
O37   O     O_R   0.907490 0.454220 0.408410 -0.629418
O38   O     O_R   0.907490 0.545780 0.408410 -0.629601
O39   O     O_R   0.092510 0.454220 0.591590 -0.629599
O40   O     O_R   0.592510 0.045780 0.591590 -0.629421
O41   O     O_R   0.407490 0.954220 0.408410 -0.629418
O42   O     O_R   0.407490 0.045780 0.408410 -0.629601
O43   O     O_R   0.592510 0.954220 0.591590 -0.629599
O44   O     O_R   0.178330 0.269930 0.856640 -0.569564
O45   O     O_R   0.821670 0.730070 0.143360 -0.569564
O46   O     O_R   0.821670 0.269930 0.143360 -0.569404
O47   O     O_R   0.178330 0.730070 0.856640 -0.569404
O48   O     O_R   0.730030 0.821640 0.960080 -0.600468
Zn1   Zn    Zn3+2 0.715450 0.715450 0.930910 1.126372
Zn2   Zn    Zn3+2 0.062420 0.500000 0.500010 1.122531
Zn3   Zn    Zn3+2 0.437580 1.000000 0.499990 1.122532
Zn4   Zn    Zn3+2 0.562420 0.000000 0.500010 1.122531
Zn5   Zn    Zn3+2 0.284550 0.284550 0.069090 1.126374
Zn6   Zn    Zn3+2 0.284550 0.715450 0.069090 1.126436
Zn7   Zn    Zn3+2 0.715450 0.284550 0.930910 1.126436
Zn8   Zn    Zn3+2 0.215450 0.215450 0.930910 1.126372
Zn9   Zn    Zn3+2 0.784550 0.784550 0.069090 1.126374
Zn10  Zn    Zn3+2 0.784550 0.215450 0.069090 1.126436
Zn11  Zn    Zn3+2 0.215450 0.784550 0.930910 1.126436
Zn12  Zn    Zn3+2 0.937580 0.500000 0.499990 1.122532

loop_
_geom_bond_atom_site_label_1
_geom_bond_atom_site_label_2
_ccdc_geom_bond_type
C77   O6    A    
O40   Zn4   S    
O1    Zn1   S    
C112  C120  A    
C60   C70   S    
C83   C92   T    
C9    C18   A    
C19   C59   A    
C50   C59   A    
O21   Zn10  S    
C18   C58   A    
C79   O22   A    
O16   Zn10  S    
C81   C90   S    
C44   O3    A    
O5    Zn5   S    
C38   C99   S    
C2    C18   A    
C29   C38   A    
C101  C109  A    
C8    C17   A    
Br35  C56   S    
C55   O34   A    
C43   C52   A    
C76   O20   A    
Br9   C109  S    
O8    Zn6   S    
C84   C93   T    
Br38  C46   S    
C10   C19   A    
C72   O33   A    
Br37  C45   S    
C82   O26   A    
C37   C46   A    
C12   C21   A    
C80   O24   A    
C71   O32   A    
C7    C117  A    
Br6   C106  S    
C78   O21   A    
C25   C29   A    
O13   Zn7   S    
O19   Zn8   S    
Br36  C43   S    
Br24  C14   S    
C16   C25   A    
O17   Zn11  S    
C40   C49   A    
O37   Zn12  S    
C75   C84   S    
C68   O29   A    
C69   O39   A    
C66   O44   A    
C64   C65   S    
C26   C105  A    
Br20  C10   S    
C91   C100  T    
C46   C54   A    
C118  H1    S    
C33   O12   A    
O4    Zn10  S    
C21   C26   A    
C106  C115  A    
C55   O4    A    
C99   O47   A    
O39   Zn2   S    
C30   C110  A    
C6    C15   A    
Br16  C116  S    
O10   Zn5   S    
C62   C68   S    
Br28  C49   S    
C5    C115  A    
Br39  C47   S    
C51   C60   A    
Br17  C117  S    
C109  C118  A    
Br15  C115  S    
C32   C41   A    
O27   Zn12  S    
O26   Zn6   S    
C3    H4    S    
O20   Zn11  S    
C41   C50   A    
Br32  C53   S    
C70   O31   A    
C59   C71   S    
C104  C113  A    
Br40  C101  S    
Br14  C114  S    
C1    C30   S    
O15   Zn9   S    
C69   O30   A    
Br8   C108  S    
C45   C53   A    
O24   Zn1   S    
C34   C42   A    
O34   Zn7   S    
C5    H6    S    
C81   O25   A    
C67   O28   A    
O30   Zn12  S    
C101  C110  A    
Br7   C107  S    
C88   O46   A    
C13   C19   A    
C5    C14   A    
C97   C100  S    
Br5   C105  S    
C6    H7    S    
O11   Zn6   S    
C80   C89   S    
O41   Zn3   S    
C120  H3    S    
C70   O40   A    
O31   Zn3   S    
C87   C96   T    
C73   O43   A    
C23   C63   A    
O22   Zn5   S    
C31   C33   S    
C1    O48   A    
C65   O36   A    
C14   C22   A    
C10   C120  A    
C1    O1    A    
C20   C60   A    
C42   C51   A    
C15   C23   A    
C13   C103  A    
C79   O14   A    
C72   O42   A    
C102  C111  A    
C53   C62   A    
C21   C61   A    
C71   O41   A    
C2    C102  A    
O43   Zn4   S    
Br10  C111  S    
C75   O19   A    
Br19  C9    S    
C74   O9    A    
C17   C57   A    
C17   C110  A    
C27   C106  A    
C119  H2    S    
Br3   C103  S    
O12   Zn5   S    
O6    Zn1   S    
C77   O45   A    
C107  C116  A    
C28   C107  A    
O23   Zn6   S    
Br13  C113  S    
C32   C44   S    
C37   C88   S    
C39   C48   A    
C52   C61   A    
C81   O16   A    
O2    Zn8   S    
C74   C83   S    
C22   C27   A    
C68   O38   A    
C103  C112  A    
O3    Zn11  S    
C86   C95   T    
C76   C85   S    
C56   C64   A    
O38   Zn12  S    
O32   Zn4   S    
C105  C114  A    
C57   C73   S    
O29   Zn2   S    
C90   C98   T    
C38   C47   A    
C82   C91   S    
Br21  C11   S    
C6    C116  A    
C96   C98   S    
Br22  C12   S    
O44   Zn8   S    
C78   O13   A    
C28   C37   A    
C65   O27   A    
C23   C28   A    
C88   O7    A    
O7    Zn7   S    
C44   O23   A    
Br23  C41   S    
C30   C39   A    
Br29  C50   S    
C34   C55   S    
C9    C119  A    
Br25  C15   S    
O33   Zn4   S    
O9    Zn1   S    
Br30  C51   S    
C82   O17   A    
Br18  C8    S    
C4    C12   A    
Br4   C104  S    
O28   Zn2   S    
C47   C56   A    
C27   C36   A    
O48   Zn9   S    
Br2   C102  S    
C24   C104  A    
C54   C63   A    
C31   C40   A    
O14   Zn8   S    
C36   C77   S    
C74   O18   A    
O35   Zn3   S    
C49   C58   A    
C20   C24   A    
C4    C114  A    
C58   C72   S    
C48   C57   A    
C78   C86   S    
C85   C94   T    
C7    H8    S    
C35   C43   A    
O18   Zn9   S    
C8    C118  A    
C3    C11   A    
Br1   C39   S    
C26   C35   A    
Br12  C40   S    
C2    C31   A    
C66   O5    A    
C111  C119  A    
O47   Zn11  S    
C4    H5    S    
C73   O35   A    
Br27  C48   S    
O46   Zn10  S    
C80   O15   A    
C67   O37   A    
C75   O10   A    
O45   Zn9   S    
O42   Zn3   S    
Br26  C16   S    
Br11  C112  S    
O25   Zn7   S    
C89   C97   T    
C108  C117  A    
C35   C66   S    
C92   C94   S    
Br31  C52   S    
C76   O11   A    
O36   Zn2   S    
C93   C95   S    
C29   C108  A    
C24   C34   A    
Br33  C54   S    
C63   C67   S    
C11   C20   A    
Br34  C42   S    
C25   C64   A    
C33   O2    A    
C3    C113  A    
C13   C32   A    
C61   C69   S    
C36   C45   A    
C99   O8    A    
C7    C16   A    
C22   C62   A    
C79   C87   S    
