data_mof_unit_11621.cif
_audit_creation_date              2012-12-10T18:24:42-0500
_audit_creation_method            fapswitch 2.2
_symmetry_space_group_name_H-M    P1
_symmetry_Int_Tables_number       1
_space_group_crystal_system       triclinic
_cell_length_a                    14.040346
_cell_length_b                    15.009904
_cell_length_c                    16.809595
_cell_angle_alpha                 89.492781
_cell_angle_beta                  84.656608
_cell_angle_gamma                 90.336655
_cell_volume                      3526.91314781

loop_
_atom_site_label
_atom_site_type_symbol
_atom_type_description
_atom_site_fract_x
_atom_site_fract_y
_atom_site_fract_z
_atom_type_partial_charge
C1    C     C_R   0.500220 0.673490 0.499722 0.903413
C2    C     C_R   0.499791 0.326513 0.500217 0.899347
C3    C     C_R   0.586007 0.185300 0.503541 -0.263442
C4    C     C_R   0.414084 0.814719 0.495985 -0.260589
C5    C     C_R   0.499605 0.230618 0.500455 -0.074973
C6    C     C_R   0.500456 0.769394 0.499225 -0.075560
C7    C     C_R   0.413317 0.184358 0.497341 -0.244777
C8    C     C_R   0.586774 0.815657 0.502179 -0.245015
C9    C     C_R   0.412857 0.092186 0.496976 0.113920
C10   C     C_R   0.587269 0.907834 0.502347 0.114771
C11   C     C_R   0.499958 0.046354 0.499857 0.061429
C12   C     C_R   0.500178 0.953668 0.499415 0.061369
C13   C     C_R   0.586841 0.093193 0.503202 0.118156
C14   C     C_R   0.413285 0.906830 0.496126 0.118176
C15   C     C_R   0.326909 0.045247 0.493657 -0.214266
C16   C     C_R   0.673228 0.954777 0.505608 -0.214550
C17   C     C_R   0.327125 0.952692 0.493212 -0.216555
C18   C     C_R   0.673011 0.047333 0.506056 -0.218160
C19   C     C_R   0.195916 0.443576 0.550902 0.056294
C20   C     C_R   0.804072 0.556386 0.449075 0.054855
C21   C     C_R   0.207881 0.555914 0.449619 -0.082846
C22   C     C_R   0.792121 0.443981 0.550306 -0.090122
C23   C     C_R   0.486519 0.495262 0.652920 0.905332
C24   C     C_R   0.513687 0.502536 0.347042 0.901437
C25   C     C_R   0.107696 0.557188 0.448569 0.019760
C26   C     C_R   0.892308 0.442594 0.551242 0.024405
C27   C     C_R   0.050606 0.499766 0.500145 0.082992
C28   C     C_R   0.949380 0.500164 0.499803 0.083539
C29   C     C_R   0.094622 0.441983 0.552002 -0.022267
C30   C     C_R   0.905367 0.557908 0.447912 -0.027471
C31   C     C_R   0.063635 0.614492 0.397104 -0.200894
C32   C     C_R   0.936416 0.384848 0.602270 -0.208490
C33   C     C_R   0.963898 0.614965 0.396664 -0.198689
C34   C     C_R   0.036115 0.384598 0.602943 -0.204344
C35   C     C_R   0.479212 0.473909 0.737580 -0.101957
C36   C     C_R   0.523508 0.513075 0.261151 -0.105093
C37   C     C_R   0.557538 0.433697 0.768797 -0.283952
C38   C     C_R   0.604124 0.479820 0.216432 -0.273028
C39   C     C_R   0.557093 0.418767 0.850493 0.500513
C40   C     C_R   0.610452 0.484377 0.133357 0.468139
C41   C     C_R   0.474788 0.439614 0.900411 -0.064799
C42   C     C_R   0.538462 0.528633 0.095932 -0.076423
C43   C     C_R   0.392333 0.472086 0.868392 -0.041575
C44   C     C_R   0.460952 0.568037 0.141385 -0.019733
C45   C     C_R   0.395091 0.489441 0.786646 -0.216524
C46   C     C_R   0.453135 0.558796 0.223906 -0.217355
C47   C     C_2   0.484499 0.447259 0.986327 0.382214
C48   C     C_2   0.534203 0.518126 0.009630 0.404489
H1    H     H_    0.620509 0.415959 0.730156 0.155305
H2    H     H_    0.660203 0.447024 0.245594 0.165169
H3    H     H_    0.252659 0.599634 0.410306 0.135148
H4    H     H_    0.747364 0.400221 0.589604 0.131616
H5    H     H_    0.106376 0.659094 0.357028 0.142858
H6    H     H_    0.893760 0.339656 0.641778 0.143522
H7    H     H_    0.933137 0.660371 0.355881 0.151636
H8    H     H_    0.066861 0.338989 0.643563 0.148411
H9    H     H_    0.392256 0.587169 0.259141 0.154346
H10   H     H_    0.333208 0.517588 0.761831 0.165062
H11   H     H_    0.652718 0.221506 0.506159 0.162152
H12   H     H_    0.347358 0.778515 0.493451 0.162230
H13   H     H_    0.346569 0.219870 0.494945 0.166316
H14   H     H_    0.653509 0.780143 0.504654 0.165350
H15   H     H_    0.259789 0.080068 0.491419 0.147990
H16   H     H_    0.740345 0.919955 0.507865 0.147595
H17   H     H_    0.260150 0.917022 0.490670 0.146754
H18   H     H_    0.739983 0.083004 0.508619 0.146357
N1    N     N_R   0.249970 0.499930 0.499970 -0.122287
N2    N     N_R   0.750030 0.500070 0.500030 -0.121892
O1    O     O_R   0.419720 0.632140 0.499990 -0.632485
O2    O     O_R   0.580280 0.367860 0.500010 -0.634007
O3    O     O_R   0.580270 0.632160 0.499980 -0.619615
O4    O     O_R   0.419730 0.367840 0.500020 -0.619356
O5    O     O_R   0.410240 0.500000 0.615800 -0.613674
O6    O     O_R   0.589760 0.500000 0.384200 -0.614170
O7    O     O_R   0.570790 0.500020 0.615800 -0.627155
O8    O     O_R   0.429210 0.499980 0.384200 -0.622263
Zn1   Zn    Zn3+2 0.392800 0.499980 0.500010 0.955209
Zn2   Zn    Zn3+2 0.607200 0.500020 0.499990 0.950834
C49   C     C_1   0.243319 0.385957 0.603713 0.210317
N3    N     N_1   0.280623 0.339476 0.646353 -0.221522
C50   C     C_1   0.756641 0.613932 0.396227 0.216978
N4    N     N_1   0.719293 0.660334 0.353550 -0.218420
O9    O     O_3   0.571917 0.580429 0.952459 -0.679040
C51   C     C_3   0.631846 0.644371 0.983984 0.067851
H19   H     H_    0.691464 0.611220 0.011787 0.174319
H20   H     H_    0.589782 0.686275 0.028742 0.153739
C52   C     C_3   0.674790 0.704503 0.915962 -0.325764
H21   H     H_    0.716254 0.663421 0.870351 0.216643
H22   H     H_    0.616229 0.737924 0.887174 0.236008
C53   C     C_3   0.740781 0.775177 0.946254 -0.952335
H23   H     H_    0.700461 0.818003 0.991064 0.266931
H24   H     H_    0.770631 0.817766 0.895490 0.267158
H25   H     H_    0.800959 0.743138 0.973872 0.268379
O10   O     O_3   0.439090 0.389466 0.043730 -0.675639
C54   C     C_3   0.421683 0.304662 0.012176 0.063654
H26   H     H_    0.487087 0.278467 0.977648 0.154983
H27   H     H_    0.362040 0.308483 0.973086 0.159485
C55   C     C_3   0.393310 0.240237 0.081260 -0.317257
H28   H     H_    0.451951 0.237079 0.121312 0.218680
H29   H     H_    0.327859 0.264928 0.116299 0.236964
C56   C     C_3   0.374034 0.146865 0.051109 -0.956259
H30   H     H_    0.314633 0.148234 0.011831 0.267869
H31   H     H_    0.353508 0.101826 0.102708 0.268669
H32   H     H_    0.439271 0.120183 0.017246 0.266311
C57   C     C_1   0.306628 0.492750 0.918924 0.194692
N5    N     N_1   0.237824 0.509088 0.959367 -0.184701
C58   C     C_1   0.387096 0.615136 0.104204 0.181933
N6    N     N_1   0.328051 0.653070 0.074475 -0.189247
O11   O     O_3   0.689103 0.449364 0.088877 -0.675711
C59   C     C_3   0.680679 0.355483 0.087280 0.087284
H33   H     H_    0.630634 0.336558 0.042792 0.191726
H34   H     H_    0.654067 0.326026 0.146442 0.125113
C60   C     C_3   0.778874 0.315798 0.062729 -0.316396
H35   H     H_    0.810716 0.348267 0.006829 0.232276
H36   H     H_    0.827013 0.328576 0.110318 0.222569
C61   C     C_3   0.771978 0.215641 0.049421 -0.962978
H37   H     H_    0.741374 0.181454 0.104969 0.264980
H38   H     H_    0.844462 0.188747 0.032492 0.267583
H39   H     H_    0.726175 0.201721 0.000469 0.272784
O12   O     O_3   0.635626 0.382178 0.882816 -0.680675
C62   C     C_3   0.718288 0.436491 0.866571 0.111335
H40   H     H_    0.740565 0.459970 0.924501 0.193859
H41   H     H_    0.707653 0.497693 0.830272 0.140852
C63   C     C_3   0.798793 0.381149 0.824708 -0.384296
H42   H     H_    0.810812 0.321001 0.861387 0.239032
H43   H     H_    0.777793 0.358902 0.765922 0.211981
C64   C     C_3   0.891735 0.434737 0.811888 -0.950051
H44   H     H_    0.882522 0.492994 0.772165 0.271421
H45   H     H_    0.949340 0.392041 0.783502 0.269962
H46   H     H_    0.913653 0.458289 0.869980 0.267910

loop_
_geom_bond_atom_site_label_1
_geom_bond_atom_site_label_2
_ccdc_geom_bond_type
C25   C31   A    
C52   H21   S    
C26   C32   A    
C56   H30   S    
C27   C29   A    
C3    H11   S    
O1    Zn1   S    
C54   H26   S    
N1    Zn1   S    
C51   C52   S    
C50   N4    T    
C54   C55   S    
C39   C41   A    
C20   C30   A    
C34   H8    S    
C1    O3    A    
C13   C18   A    
C63   H43   S    
C35   C37   A    
C51   H20   S    
C31   H5    S    
O2    Zn2   S    
C39   O12   S    
C61   H37   S    
C15   C17   A    
C43   C57   S    
C59   H33   S    
C7    H13   S    
C62   C63   S    
O9    C51   S    
C19   N1    A    
C58   N6    T    
C31   C33   A    
C36   C46   A    
C3    C13   A    
C60   C61   S    
C40   C42   A    
C56   H31   S    
C20   C50   S    
C21   N1    A    
C41   C43   A    
C14   C17   A    
C42   C44   A    
C23   O5    A    
C2    O4    A    
C32   H6    S    
C26   C28   A    
C44   C46   A    
N2    Zn2   S    
C37   C39   A    
C45   H10   S    
C1    C6    S    
C61   H39   S    
C51   H19   S    
C4    C6    A    
C5    C7    A    
C24   O8    A    
C6    C8    A    
C29   C34   A    
C1    O1    A    
C32   C34   A    
C64   H45   S    
O4    Zn1   S    
C37   H1    S    
C53   H24   S    
C47   C48   D    
C4    H12   S    
C41   C47   S    
C33   H7    S    
C42   C48   S    
O8    Zn1   S    
C19   C49   S    
C9    C11   A    
C59   C60   S    
C22   N2    A    
C62   H40   S    
C10   C12   A    
C63   C64   S    
C16   C18   A    
C12   C14   A    
C56   H32   S    
C23   C35   S    
C52   H22   S    
C46   H9    S    
O6    Zn2   S    
C2    C5    S    
C18   H18   S    
C64   H44   S    
C35   C45   A    
C21   H3    S    
O12   C62   S    
C53   H25   S    
C22   H4    S    
C60   H35   S    
C44   C58   S    
C7    C9    A    
C21   C25   A    
C15   H15   S    
C30   C33   A    
C17   H17   S    
C20   N2    A    
C23   O7    A    
C3    C5    A    
C11   C12   A    
C54   H27   S    
C40   O11   S    
C38   H2    S    
C25   C27   A    
C55   C56   S    
C57   N5    T    
C55   H29   S    
C24   C36   S    
C48   O9    S    
C28   C30   A    
C9    C15   A    
C64   H46   S    
C43   C45   A    
C10   C16   A    
O11   C59   S    
C38   C40   A    
C11   C13   A    
C24   O6    A    
C53   H23   S    
C36   C38   A    
C47   O10   S    
C61   H38   S    
C4    C14   A    
O10   C54   S    
O7    Zn2   S    
C59   H34   S    
C62   H41   S    
C49   N3    T    
C8    C10   A    
C55   H28   S    
C22   C26   A    
C52   C53   S    
C27   C28   A    
O5    Zn1   S    
C16   H16   S    
C2    O2    A    
O3    Zn2   S    
C8    H14   S    
C63   H42   S    
C60   H36   S    
C19   C29   A    
