data_mof_unit_22416.cif
_audit_creation_date              2012-12-10T17:11:03-0500
_audit_creation_method            fapswitch 2.2
_symmetry_space_group_name_H-M    P1
_symmetry_Int_Tables_number       1
_space_group_crystal_system       triclinic
_cell_length_a                    10.031997
_cell_length_b                    10.661254
_cell_length_c                    16.689671
_cell_angle_alpha                 90.469724
_cell_angle_beta                  85.704653
_cell_angle_gamma                 89.97825
_cell_volume                      1779.9470981

loop_
_atom_site_label
_atom_site_type_symbol
_atom_type_description
_atom_site_fract_x
_atom_site_fract_y
_atom_site_fract_z
_atom_type_partial_charge
C1    C     C_R   0.500487 0.737085 0.495067 0.910697
C2    C     C_R   0.531543 0.508447 0.260124 -0.145352
C3    C     C_2   0.601697 0.068085 0.469800 -0.247377
C4    C     C_R   0.481889 0.506136 0.653017 0.887401
C5    C     C_2   0.502254 0.128797 0.512255 0.331792
C6    C     C_2   0.612675 0.933758 0.474709 -0.121774
C7    C     C_2   0.500318 0.867324 0.478631 -0.255019
C8    C     C_2   0.080891 0.434667 0.449697 -0.089230
C9    C     C_2   0.931088 0.419824 0.459639 0.029896
C10   C     C_R   0.499636 0.262296 0.503721 0.826446
C11   C     C_R   0.518260 0.498115 0.346803 0.924180
C12   C     C_R   0.357634 0.512003 0.786575 -0.315605
C13   C     C_R   0.470791 0.543661 0.736967 -0.119032
C14   C     C_R   0.566627 0.625251 0.764804 -0.193303
C15   C     C_R   0.553304 0.670961 0.842867 0.083266
C16   C     C_R   0.445889 0.630220 0.895074 -0.127187
C17   C     C_R   0.346725 0.551100 0.867134 0.499825
C18   C     C_3   0.857150 0.613733 0.083106 0.084367
C19   C     C_3   0.957103 0.607223 0.148084 -0.388535
C20   C     C_3   0.079516 0.529673 0.119706 -0.862999
C21   C     C_3   0.291841 0.090182 0.577677 0.078257
C22   C     C_3   0.244617 0.174652 0.648926 -0.317455
C23   C     C_R   0.457018 0.465639 0.128893 -0.201047
C24   C     C_3   0.096570 0.206830 0.647773 -0.953576
C25   C     C_3   0.875748 0.653609 0.587585 0.179532
C26   C     C_3   0.962032 0.768000 0.603865 -0.433962
C27   C     C_3   0.933966 0.817126 0.689502 -0.906433
C28   C     C_3   0.222073 0.385264 0.922886 0.057953
C29   C     C_3   0.084396 0.350111 0.896017 -0.343161
C30   C     C_3   0.062210 0.208570 0.898405 -0.935923
C31   C     C_3   0.300503 0.802385 0.009210 0.102830
C32   C     C_3   0.383385 0.909348 0.042019 -0.329368
C33   C     C_3   0.327874 0.037346 0.021083 -0.939306
C34   C     C_R   0.447219 0.442764 0.210851 0.132001
C35   C     C_R   0.630806 0.588615 0.226128 -0.327481
C36   C     C_R   0.645459 0.605561 0.143553 0.531283
C37   C     C_R   0.553005 0.549226 0.095910 0.057718
C38   C     C_2   0.454796 0.642363 0.982008 0.545990
C39   C     C_2   0.554549 0.577628 0.011309 -0.247106
H1    H     H_    0.650869 0.655608 0.725536 0.161729
H2    H     H_    0.390053 0.418182 0.090646 0.174250
H3    H     H_    0.280180 0.454404 0.763359 0.158374
H4    H     H_    0.905888 0.662167 0.029975 0.194315
H5    H     H_    0.832473 0.517255 0.062098 0.114465
H6    H     H_    0.989151 0.703753 0.163354 0.241174
H7    H     H_    0.909583 0.563605 0.203217 0.230209
H8    H     H_    0.050887 0.430347 0.110076 0.257512
H9    H     H_    0.153808 0.533432 0.165711 0.293343
H10   H     H_    0.125835 0.567663 0.062712 0.316919
H11   H     H_    0.242249 0.997571 0.586363 0.156577
H12   H     H_    0.673563 0.116729 0.429071 0.136247
H13   H     H_    0.258158 0.126338 0.520016 0.144228
H14   H     H_    0.261490 0.125937 0.705933 0.216374
H15   H     H_    0.303336 0.262789 0.647514 0.236336
H16   H     H_    0.078202 0.258900 0.592312 0.263755
H17   H     H_    0.065313 0.266789 0.700541 0.261660
H18   H     H_    0.035322 0.120035 0.650388 0.267514
H19   H     H_    0.897490 0.578057 0.630602 0.104911
H20   H     H_    0.769765 0.681064 0.598068 0.185791
H21   H     H_    0.069524 0.742552 0.594371 0.233364
H22   H     H_    0.941293 0.843786 0.561132 0.232981
H23   H     H_    0.710810 0.891053 0.476225 0.175533
H24   H     H_    0.828782 0.849814 0.698807 0.285329
H25   H     H_    0.001225 0.897259 0.700105 0.268861
H26   H     H_    0.952109 0.742415 0.733417 0.281240
H27   H     H_    0.226826 0.357096 0.986540 0.168606
H28   H     H_    0.301535 0.330208 0.887776 0.127207
H29   H     H_    0.005732 0.396974 0.936175 0.227228
H30   H     H_    0.074946 0.383451 0.833839 0.217311
H31   H     H_    0.138976 0.159858 0.857971 0.262523
H32   H     H_    0.961994 0.186352 0.878005 0.279047
H33   H     H_    0.067222 0.173722 0.960629 0.269454
H34   H     H_    0.404373 0.910553 0.469839 0.158270
H35   H     H_    0.195856 0.812109 0.035420 0.172031
H36   H     H_    0.295784 0.810518 0.943029 0.146068
H37   H     H_    0.382692 0.901548 0.108428 0.244527
H38   H     H_    0.488498 0.901938 0.016433 0.251777
H39   H     H_    0.329108 0.047849 0.954858 0.264530
H40   H     H_    0.390311 0.112643 0.045321 0.278247
H41   H     H_    0.223827 0.048338 0.047976 0.268043
H42   H     H_    0.134886 0.384545 0.400880 0.176462
H43   H     H_    0.098560 0.524515 0.552740 0.197409
H44   H     H_    0.887545 0.338766 0.431881 0.092414
H45   H     H_    0.696109 0.639410 0.263833 0.182062
H46   H     H_    0.634614 0.537024 0.971787 0.123951
I1    I     I_    0.311142 0.301810 0.253516 -0.464955
I2    I     I_    0.701415 0.797095 0.879784 -0.465250
N1    N     N_2   0.147950 0.498670 0.499150 -0.176467
N2    N     N_2   0.852290 0.498640 0.499130 0.059903
O1    O     O_R   0.386960 0.680940 0.500010 -0.612468
O2    O     O_3   0.431567 0.070414 0.576982 -0.641858
O3    O     O_3   0.904909 0.614141 0.507337 -0.559829
O4    O     O_3   0.238279 0.517241 0.919007 -0.643819
O5    O     O_3   0.348566 0.684941 0.033617 -0.630112
O6    O     O_R   0.613100 0.680900 0.499990 -0.612226
O7    O     O_R   0.373570 0.500040 0.615810 -0.622912
O8    O     O_R   0.599710 0.500000 0.615790 -0.637999
O9    O     O_R   0.386900 0.319100 0.500010 -0.621521
O10   O     O_R   0.613040 0.319060 0.499990 -0.637060
O11   O     O_R   0.400290 0.500000 0.384210 -0.580047
O12   O     O_R   0.626430 0.499960 0.384190 -0.614643
O13   O     O_3   0.743422 0.685096 0.110700 -0.626807
Zn1   Zn    Zn3+2 0.349000 0.500030 0.500020 0.953960
Zn2   Zn    Zn3+2 0.651000 0.499970 0.499980 0.970748

loop_
_geom_bond_atom_site_label_1
_geom_bond_atom_site_label_2
_ccdc_geom_bond_type
C2    C35   A    
C1    O1    A    
C19   C20   S    
C3    C6    S    
C30   H32   S    
C19   H7    S    
C7    H34   S    
C24   H16   S    
C26   C27   S    
C20   H10   S    
C21   C22   S    
C36   C37   A    
C26   H22   S    
C34   I1    S    
C38   C39   D    
C33   H39   S    
O9    Zn1   S    
C36   O13   S    
C18   C19   S    
C18   O13   S    
C4    C13   S    
C10   O9    A    
C12   H3    S    
C32   H38   S    
C4    O7    A    
C35   C36   A    
C8    C9    S    
C12   C17   A    
C2    C34   A    
O10   Zn2   S    
C4    O8    A    
C2    C11   S    
C21   H11   S    
C30   H31   S    
C22   H14   S    
C29   H30   S    
C8    H42   S    
O8    Zn2   S    
C28   H28   S    
C22   H15   S    
C9    N2    D    
C3    H12   S    
C33   H40   S    
C31   H35   S    
C25   C26   S    
C23   C37   A    
O11   Zn1   S    
C28   O4    S    
C8    N1    D    
C28   H27   S    
C29   C30   S    
C27   H26   S    
C18   H5    S    
C29   H29   S    
C31   H36   S    
C31   C32   S    
C1    O6    A    
C23   C34   A    
C38   O5    S    
C11   O12   A    
C20   H9    S    
N2    O3    S    
C5    O2    S    
C27   H24   S    
C9    H44   S    
O12   Zn2   S    
N2    Zn2   S    
C22   C24   S    
C17   O4    S    
C25   H19   S    
C39   H46   S    
N1    Zn1   S    
O6    Zn2   S    
C15   I2    S    
C21   O2    S    
C28   C29   S    
C25   O3    S    
C1    C7    S    
C24   H18   S    
C3    C5    D    
C32   H37   S    
C30   H33   S    
C35   H45   S    
C19   H6    S    
C33   H41   S    
C6    C7    D    
C24   H17   S    
C31   O5    S    
C23   H2    S    
C32   C33   S    
C6    H23   S    
C5    C10   S    
C37   C39   S    
C18   H4    S    
C16   C17   A    
H43   N1    S    
C10   O10   A    
O1    Zn1   S    
C20   H8    S    
C27   H25   S    
C14   H1    S    
C12   C13   A    
O7    Zn1   S    
C14   C15   A    
C11   O11   A    
C25   H20   S    
C13   C14   A    
C26   H21   S    
C21   H13   S    
C15   C16   A    
C16   C38   S    
