data_mof_unit_31185.cif
_audit_creation_date              2012-12-10T17:29:22-0500
_audit_creation_method            fapswitch 2.2
_symmetry_space_group_name_H-M    P1
_symmetry_Int_Tables_number       1
_space_group_crystal_system       triclinic
_cell_length_a                    12.060718
_cell_length_b                    12.959744
_cell_length_c                    13.251124
_cell_angle_alpha                 88.197929
_cell_angle_beta                  112.320637
_cell_angle_gamma                 92.636871
_cell_volume                      1913.76475193

loop_
_atom_site_label
_atom_site_type_symbol
_atom_type_description
_atom_site_fract_x
_atom_site_fract_y
_atom_site_fract_z
_atom_type_partial_charge
C1    C     C_R   0.477095 0.299954 0.494999 0.903725
C2    C     C_R   0.603011 0.470534 0.825377 -0.137692
C3    C     C_R   0.537147 0.812076 0.498940 -0.153380
C4    C     C_R   0.565462 0.494845 0.708196 0.971260
C5    C     C_R   0.469433 0.188827 0.500818 -0.224163
C6    C     C_R   0.455312 0.041936 0.610469 0.489915
C7    C     C_R   0.426035 0.142281 0.575890 0.042156
C8    C     C_R   0.529137 0.131310 0.449283 0.115004
C9    C     C_R   0.549132 0.026452 0.477275 -0.010331
C10   C     C_R   0.499379 0.980134 0.549668 -0.117312
C11   C     C_R   0.481650 0.872876 0.549847 0.167113
C12   C     C_R   0.538077 0.444150 0.977980 -0.132170
C13   C     C_R   0.607065 0.857783 0.445297 -0.348821
C14   C     C_R   0.612280 0.964743 0.431955 0.276959
C15   C     C_R   0.020431 0.615406 0.418343 0.333896
C16   C     C_R   0.522010 0.700498 0.500528 0.928752
C17   C     C_R   0.131852 0.592890 0.411553 0.448799
C18   C     C_R   0.159293 0.457559 0.544396 0.538146
C19   C     C_R   0.037268 0.463697 0.535432 -0.162367
C20   C     C_R   0.967467 0.544692 0.473164 -0.265795
C21   C     C_R   0.844385 0.548633 0.462719 0.687436
C22   C     C_R   0.864854 0.401468 0.578252 -0.131174
C23   C     C_R   0.534696 0.501263 0.884220 -0.183519
C24   C     C_R   0.982186 0.390033 0.584228 -0.249520
C25   C     C_R   0.433312 0.494752 0.293027 0.852717
C26   C     C_R   0.257761 0.534983 0.997942 -0.242617
C27   C     C_R   0.389887 0.480325 0.175449 -0.137129
C28   C     C_R   0.686277 0.393519 0.867214 -0.323331
C29   C     C_R   0.693832 0.336533 0.960848 0.189474
C30   C     C_R   0.621147 0.362551 0.018308 0.488397
C31   C     C_3   0.126946 0.417581 0.159415 -0.676130
C32   C     C_3   0.537404 0.016015 0.793091 -0.403292
C33   C     C_3   0.797363 0.053161 0.444484 -0.812073
C34   C     C_R   0.453298 0.469104 0.023451 0.081930
C35   C     C_3   0.219878 0.162963 0.543529 -0.634456
C36   C     C_3   0.447366 0.184704 0.259374 -0.743254
C37   C     C_3   0.730484 0.583790 0.283828 -0.209370
C38   C     C_3   0.961330 0.777407 0.438164 -0.297492
C39   C     C_3   0.174261 0.723187 0.302521 -0.239644
C40   C     C_3   0.256339 0.730022 0.740112 -0.703917
C41   C     C_3   0.251211 0.381362 0.715906 -0.299801
C42   C     C_3   0.732332 0.300806 0.191571 -0.363788
C43   C     C_3   0.844914 0.221215 0.940655 -0.857782
C44   C     C_3   0.583617 0.722810 0.851321 -0.411715
C45   C     C_R   0.352473 0.527755 0.961364 -0.033196
C46   C     C_3   0.272834 0.855931 0.532530 -0.788201
C47   C     C_R   0.353913 0.587546 0.872027 0.079464
C48   C     C_R   0.457703 0.585865 0.846830 0.548260
C49   C     C_R   0.470735 0.447811 0.132046 -0.238437
C50   C     C_R   0.274568 0.507894 0.104741 0.217052
H1    H     H_    0.652917 0.809996 0.408910 0.193722
H2    H     H_    0.085316 0.375624 0.081343 0.205134
H3    H     H_    0.562808 0.099309 0.809461 0.176903
H4    H     H_    0.613125 0.974641 0.786335 0.162689
H5    H     H_    0.520445 0.982450 0.864160 0.202865
H6    H     H_    0.689944 0.961109 0.316828 0.220837
H7    H     H_    0.842740 0.090976 0.393425 0.234474
H8    H     H_    0.855127 0.991850 0.495736 0.225584
H9    H     H_    0.785732 0.112496 0.498039 0.246855
H10   H     H_    0.361568 0.184403 0.691798 0.250448
H11   H     H_    0.158068 0.196514 0.576629 0.232716
H12   H     H_    0.825829 0.345427 0.618626 0.152724
H13   H     H_    0.205030 0.077846 0.543901 0.204381
H14   H     H_    0.196860 0.191263 0.458204 0.233743
H15   H     H_    0.610716 0.237646 0.374911 0.248802
H16   H     H_    0.475146 0.207630 0.190907 0.284602
H17   H     H_    0.395732 0.109837 0.239107 0.239050
H18   H     H_    0.389255 0.244850 0.268511 0.204319
H19   H     H_    0.725581 0.498362 0.278317 0.111196
H20   H     H_    0.789555 0.614402 0.242513 0.200346
H21   H     H_    0.640350 0.613468 0.236319 0.175598
H22   H     H_    0.014312 0.846429 0.428364 0.152484
H23   H     H_    0.027621 0.322326 0.626162 0.168006
H24   H     H_    0.997483 0.752615 0.525740 0.137015
H25   H     H_    0.868475 0.802429 0.417498 0.218047
H26   H     H_    0.166286 0.735899 0.216928 0.159033
H27   H     H_    0.266973 0.747123 0.353928 0.189821
H28   H     H_    0.110358 0.774698 0.314582 0.185121
H29   H     H_    0.171174 0.606161 0.785037 0.207606
H30   H     H_    0.169638 0.769422 0.708832 0.201535
H31   H     H_    0.270040 0.696368 0.670152 0.270070
H32   H     H_    0.327182 0.788204 0.784282 0.279075
H33   H     H_    0.348550 0.387129 0.763513 0.194516
H34   H     H_    0.173730 0.568566 0.947931 0.137821
H35   H     H_    0.220033 0.306431 0.740384 0.152786
H36   H     H_    0.206879 0.444162 0.739498 0.141934
H37   H     H_    0.777317 0.227138 0.195818 0.202248
H38   H     H_    0.718393 0.306428 0.269129 0.179661
H39   H     H_    0.793675 0.366897 0.188400 0.148746
H40   H     H_    0.718871 0.181919 0.009734 0.246324
H41   H     H_    0.900353 0.155954 0.985324 0.244821
H42   H     H_    0.906313 0.288455 0.943138 0.251904
H43   H     H_    0.793686 0.197567 0.855040 0.234616
H44   H     H_    0.663373 0.675437 0.893252 0.178373
H45   H     H_    0.553271 0.418270 0.187632 0.206248
H46   H     H_    0.561251 0.765535 0.912233 0.176489
H47   H     H_    0.609949 0.780212 0.799984 0.186855
H48   H     H_    0.424898 0.822563 0.671792 0.301415
H49   H     H_    0.215020 0.785274 0.509509 0.226247
H50   H     H_    0.260112 0.902885 0.457485 0.221456
H51   H     H_    0.242933 0.900167 0.587298 0.258533
H52   H     H_    0.735410 0.370317 0.818876 0.189980
H53   H     H_    0.113861 0.566449 0.095958 0.224148
H54   H     H_    0.056779 0.430451 0.192402 0.238004
H55   H     H_    0.196419 0.369314 0.219224 0.231045
N1    N     N_R   0.798200 0.480260 0.519790 -0.142069
N2    N     N_R   0.201820 0.519740 0.480210 -0.192537
N3    N     N_2   0.178669 0.516039 0.141368 -0.244733
N4    N     N_2   0.682432 0.008691 0.374732 -0.269931
N5    N     N_2   0.343479 0.192082 0.609417 -0.224931
N6    N     N_2   0.552523 0.174240 0.358535 -0.265907
N7    N     N_2   0.251566 0.647996 0.813515 -0.314698
N8    N     N_2   0.763419 0.245724 0.992593 -0.295935
N9    N     N_2   0.396184 0.826495 0.588624 -0.247451
O1    O     O_R   0.579910 0.341070 0.505280 -0.660543
O2    O     O_3   0.768208 0.618847 0.392372 -0.589031
O3    O     O_3   0.960271 0.701156 0.363356 -0.596260
O4    O     O_3   0.152228 0.617043 0.316985 -0.564365
O5    O     O_3   0.231995 0.379790 0.603932 -0.565095
O6    O     O_3   0.618952 0.298682 0.103691 -0.641704
O7    O     O_3   0.483031 0.663279 0.783847 -0.617329
O8    O     O_R   0.388440 0.353740 0.492580 -0.557680
O9    O     O_R   0.643280 0.490550 0.663120 -0.642411
O10   O     O_R   0.451810 0.503220 0.650420 -0.561624
O11   O     O_R   0.611560 0.646260 0.507420 -0.585158
O12   O     O_R   0.420090 0.658930 0.494720 -0.592175
O13   O     O_R   0.548190 0.496780 0.349580 -0.620006
O14   O     O_R   0.356720 0.509450 0.336880 -0.550330
O15   O     O_3   0.431920 0.003252 0.699076 -0.623068
Zn1   Zn    Zn3+2 0.627850 0.491540 0.508480 0.952815
Zn2   Zn    Zn3+2 0.372150 0.508460 0.491520 1.034596

loop_
_geom_bond_atom_site_label_1
_geom_bond_atom_site_label_2
_ccdc_geom_bond_type
C14   N4    S    
C46   H49   S    
C33   H8    S    
C37   H19   S    
C31   N3    S    
O8    Zn2   S    
C19   C20   A    
C3    C11   A    
C31   H2    S    
C26   C50   A    
C32   H3    S    
C36   H17   S    
C40   N7    S    
C37   O2    S    
C41   H36   S    
C12   C23   A    
H29   N7    S    
C1    C5    S    
C39   H27   S    
C28   C29   A    
C25   O14   A    
C6    O15   S    
C36   H16   S    
C24   H23   S    
H48   N9    S    
C47   N7    S    
C41   H33   S    
C44   O7    S    
C4    O10   A    
C15   C17   A    
C18   C19   A    
H40   N8    S    
C11   N9    S    
C18   N2    A    
H15   N6    S    
C29   N8    S    
C26   C45   A    
C13   H1    S    
C38   O3    S    
O11   Zn1   S    
C8    C9    A    
C33   H7    S    
C40   H30   S    
C35   H14   S    
C9    C10   A    
C32   H5    S    
C21   N1    A    
C3    C13   A    
C27   C50   A    
C33   H9    S    
C37   H20   S    
C50   N3    S    
C31   H55   S    
C21   O2    S    
C32   H4    S    
C32   O15   S    
C38   H25   S    
C45   C47   A    
C15   C20   A    
C46   H51   S    
C38   H22   S    
C46   N9    S    
C27   C49   A    
C39   H28   S    
C40   H32   S    
H10   N5    S    
N2    Zn2   S    
C8    N6    S    
C48   O7    S    
C5    C7    A    
C22   N1    A    
C49   H45   S    
C15   O3    S    
C4    O9    A    
C2    C4    S    
C9    C14   A    
C29   C30   A    
C44   H46   S    
C22   H12   S    
C44   H47   S    
C47   C48   A    
C36   N6    S    
C35   H11   S    
C34   C45   A    
C39   H26   S    
C41   O5    S    
H53   N3    S    
C35   N5    S    
C17   O4    S    
C16   O11   A    
C37   H21   S    
O9    Zn1   S    
C22   C24   A    
C33   N4    S    
C12   C34   A    
O14   Zn2   S    
H6    N4    S    
C38   H24   S    
N1    Zn1   S    
C46   H50   S    
C34   C49   A    
C26   H34   S    
C23   C48   A    
C12   C30   A    
C40   H31   S    
C6    C10   A    
C5    C8    A    
C2    C28   A    
C36   H18   S    
C6    C7    A    
C25   C27   S    
C39   O4    S    
C41   H35   S    
C43   H42   S    
C7    N5    S    
C42   H39   S    
C31   H54   S    
C17   N2    A    
C19   C24   A    
C25   O13   A    
O13   Zn1   S    
C43   N8    S    
C42   O6    S    
C30   O6    S    
O12   Zn2   S    
C43   H43   S    
C43   H41   S    
C44   H44   S    
C10   C11   A    
C28   H52   S    
C42   H38   S    
C20   C21   A    
O10   Zn2   S    
C2    C23   A    
C35   H13   S    
C42   H37   S    
C1    O1    A    
C13   C14   A    
C16   O12   A    
C18   O5    S    
C3    C16   S    
C1    O8    A    
O1    Zn1   S    
