data_mof_unit_53523.cif
_audit_creation_date              2013-03-05T15:41:39-0500
_audit_creation_method            fapswitch 2.2
_symmetry_space_group_name_H-M    P1
_symmetry_Int_Tables_number       1
_space_group_crystal_system       triclinic
_cell_length_a                    17.346025
_cell_length_b                    8.68242
_cell_length_c                    7.489848
_cell_angle_alpha                 103.315829
_cell_angle_beta                  90.545514
_cell_angle_gamma                 94.097379
_cell_volume                      1094.48799644

loop_
_atom_site_label
_atom_site_type_symbol
_atom_site_description
_atom_site_fract_x
_atom_site_fract_y
_atom_site_fract_z
_atom_type_partial_charge
O1    O     O_R   0.505650 0.286040 0.618880 -0.588852
O2    O     O_R   0.494350 0.713960 0.381120 -0.588852
O3    O     O_R   0.490960 0.256910 0.309800 -0.596764
O4    O     O_R   0.509040 0.743090 0.690200 -0.596764
C1    C     C_R   0.497536 0.199697 0.453319 0.887525
C2    C     C_R   0.502464 0.800303 0.546681 0.887524
O5    O     O_R   0.394600 0.516230 0.672450 -0.599069
O6    O     O_R   0.605400 0.483770 0.327550 -0.599069
O7    O     O_R   0.379910 0.487100 0.363380 -0.591150
O8    O     O_R   0.620090 0.512900 0.636620 -0.591150
C3    C     C_R   0.351446 0.505938 0.526459 0.819344
C4    C     C_R   0.648554 0.494063 0.473541 0.819344
Cu1   Cu    Cu3+1 0.508700 0.517250 0.683000 0.980544
Cu2   Cu    Cu3+1 0.491300 0.482750 0.317000 0.980544
C5    C     C_R   0.267740 0.518153 0.543540 -0.120116
C6    C     C_R   0.732260 0.481849 0.456460 -0.120117
C7    C     C_R   0.221549 0.460039 0.384591 -0.160084
C8    C     C_R   0.778451 0.539964 0.615408 -0.160085
C9    C     C_R   0.142883 0.473662 0.387690 -0.139059
C10   C     C_R   0.857118 0.526344 0.612308 -0.139057
C11   C     C_R   0.107826 0.544220 0.550527 0.037934
C12   C     C_R   0.892174 0.455787 0.449472 0.037934
C13   C     C_R   0.152875 0.606267 0.712309 0.327664
C14   C     C_R   0.847126 0.393737 0.287690 0.327664
C15   C     C_R   0.233348 0.592392 0.709360 -0.154538
C16   C     C_R   0.766652 0.407609 0.290639 -0.154537
C17   C     C_2   0.024272 0.558605 0.548205 -0.106864
C18   C     C_2   0.975729 0.441402 0.451792 -0.106865
H1    H     H_    0.246313 0.404106 0.255672 0.182076
H2    H     H_    0.753687 0.595897 0.744327 0.182076
H3    H     H_    0.997606 0.333624 0.371029 0.188695
H4    H     H_    0.002394 0.666384 0.628969 0.188696
H5    H     H_    0.890433 0.568819 0.739393 0.202535
H6    H     H_    0.109567 0.431188 0.260605 0.202533
C19   C     C_2   0.496259 0.031366 0.427542 -0.327294
C20   C     C_2   0.503741 0.968634 0.572457 -0.327294
H7    H     H_    0.489120 0.958811 0.288366 0.181772
H8    H     H_    0.510880 0.041189 0.711634 0.181772
N1    N     N_2   0.478180 0.456750 0.041980 -0.213316
N2    N     N_2   0.521820 0.543250 0.958020 -0.213316
C21   C     C_1   0.720886 0.345939 0.123249 0.369073
N3    N     N_1   0.684477 0.296666 0.989275 -0.251874
C22   C     C_1   0.279114 0.654060 0.876751 0.369073
N4    N     N_1   0.315523 0.703331 0.010726 -0.251874
N5    N     N_R   0.116928 0.680743 0.879292 0.105443
O9    O     O_R   0.058479 0.607814 0.940712 -0.318447
O10   O     O_R   0.142653 0.821511 0.970818 -0.333414
N6    N     N_R   0.883072 0.319263 0.120707 0.105442
O11   O     O_R   0.941519 0.392195 0.059284 -0.318447
O12   O     O_R   0.857349 0.178493 0.029183 -0.333413
C23   C     C_1   0.422182 0.349413 0.940450 0.555714
N7    N     N_1   0.375076 0.259075 0.857890 -0.337476
C24   C     C_1   0.577818 0.650587 0.059550 0.555714
N8    N     N_1   0.624924 0.740925 0.142110 -0.337476

loop_
_geom_bond_atom_site_label_1
_geom_bond_atom_site_label_2
_geom_bond_distance
_ccdc_geom_bond_type
O5    Cu1   1.979310 S    
N1    C23   1.385795 S    
O7    Cu2   1.967882 S    
C13   N5    1.439110 S    
C7    H1    1.083712 S    
C21   N3    1.157738 T    
C19   C20   1.330905 D    
O6    C4    1.301459 A    
C22   N4    1.157738 T    
C15   C22   1.449074 S    
N6    O12   1.301203 A    
C11   C17   1.463849 S    
O3    C1    1.291114 A    
C6    C8    1.400432 A    
C12   C18   1.463849 S    
C24   N8    1.157850 T    
O5    C3    1.301461 A    
O7    C3    1.301326 A    
O2    C2    1.293392 A    
O3    Cu2   1.948708 S    
O8    C4    1.301327 A    
O1    C1    1.293392 A    
C10   H5    1.083216 S    
C1    C19   1.427985 S    
C20   H8    1.087521 S    
N6    O11   1.300693 A    
C9    C11   1.398474 A    
C2    C20   1.427985 S    
Cu2   N1    2.028620 S    
C8    C10   1.378012 A    
C13   C15   1.409579 A    
C11   C13   1.410758 A    
C6    C16   1.419209 A    
C8    H2    1.083713 S    
O2    Cu2   1.950279 S    
C12   C14   1.410756 A    
C5    C15   1.419209 A    
O1    Cu1   1.950279 S    
C10   C12   1.398474 A    
C23   N7    1.157850 T    
C14   N6    1.439110 S    
N5    O9    1.300689 A    
N1    N2    1.295334 D    
O4    C2    1.291114 A    
N2    C24   1.385796 S    
N5    O10   1.301202 A    
O4    Cu1   1.948708 S    
C5    C7    1.400432 A    
C7    C9    1.378012 A    
Cu1   N2    2.028620 S    
O6    Cu2   1.979314 S    
C19   H7    1.087521 S    
C17   H4    1.086267 S    
Cu1   Cu2   2.699731 S    
C3    C5    1.468027 S    
C9    H6    1.083218 S    
C18   H3    1.086268 S    
C4    C6    1.468027 S    
C16   C21   1.449073 S    
C14   C16   1.409578 A    
C17   C18   1.339203 D    
O8    Cu1   1.967882 S    
