data_mof_unit_12004.cif
_audit_creation_date              2012-12-11T15:36:49-0500
_audit_creation_method            fapswitch 2.2
_symmetry_space_group_name_H-M    P1
_symmetry_Int_Tables_number       1
_space_group_crystal_system       triclinic
_cell_length_a                    14.998046
_cell_length_b                    15.01266
_cell_length_c                    34.777334
_cell_angle_alpha                 91.031647
_cell_angle_beta                  91.296946
_cell_angle_gamma                 60.320179
_cell_volume                      6801.22016775

loop_
_atom_site_label
_atom_site_type_symbol
_atom_type_description
_atom_site_fract_x
_atom_site_fract_y
_atom_site_fract_z
_atom_type_partial_charge
C1    C     C_R   0.610980 0.302241 0.444067 0.533897
C2    C     C_R   0.749230 0.690473 0.184016 0.034967
C3    C     C_R   0.708352 0.006416 0.816918 0.056750
C4    C     C_R   0.806501 0.962247 0.833738 -0.066037
C5    C     C_R   0.819077 0.948737 0.873259 -0.124285
C6    C     C_R   0.729037 0.105805 0.764764 0.271601
C7    C     C_R   0.727500 0.127934 0.725546 0.247190
C8    C     C_R   0.680228 0.092727 0.698484 0.007801
C9    C     C_R   0.640793 0.029655 0.710388 0.231047
C10   C     C_R   0.652004 0.000162 0.749311 -0.177844
C11   C     C_R   0.695171 0.038358 0.776385 -0.062316
C12   C     C_R   0.563588 0.185464 0.643463 -0.073281
C13   C     C_R   0.829328 0.619323 0.161006 -0.121041
C14   C     C_R   0.543902 0.234914 0.607915 0.254826
C15   C     C_R   0.726216 0.175464 0.602285 -0.191867
C16   C     C_R   0.745263 0.122639 0.636845 -0.101238
C17   C     C_R   0.663672 0.130671 0.658445 0.057905
C18   C     C_R   0.625426 0.234634 0.587967 0.017685
C19   C     C_R   0.045894 0.739071 0.048523 0.560291
C20   C     C_R   0.747342 0.746949 0.064254 0.545121
C21   C     C_R   0.750801 0.040761 0.050698 0.560583
C22   C     C_R   0.017560 0.722335 0.939804 0.526318
C23   C     C_R   0.717206 0.730262 0.954843 0.536792
C24   C     C_R   0.825856 0.633585 0.121320 -0.128601
C25   C     C_R   0.751842 0.971932 0.938770 0.563464
C26   C     C_R   0.778237 0.587432 0.242938 -0.139747
C27   C     C_R   0.770401 0.581816 0.282478 -0.169328
C28   C     C_R   0.738349 0.669394 0.305818 0.051566
C29   C     C_R   0.719825 0.762641 0.289674 0.294024
C30   C     C_R   0.730065 0.766625 0.249586 -0.109075
C31   C     C_R   0.754575 0.680659 0.226145 -0.015448
C32   C     C_R   0.609356 0.733800 0.357367 -0.084005
C33   C     C_R   0.593741 0.610480 0.449237 0.573995
C34   C     C_R   0.573357 0.721345 0.392463 0.217033
C35   C     C_R   0.739818 0.568867 0.404568 0.219731
C36   C     C_R   0.775354 0.586083 0.370015 -0.127461
C37   C     C_R   0.709272 0.665609 0.345691 -0.022782
C38   C     C_R   0.636953 0.635362 0.415669 0.028805
C39   C     C_R   0.106773 0.726713 0.084111 0.026375
C40   C     C_R   0.157071 0.630002 0.101704 -0.177412
C41   C     C_R   0.186746 0.620809 0.140257 -0.147202
C42   C     C_R   0.167826 0.707854 0.161783 -0.017968
C43   C     C_R   0.129054 0.802455 0.143449 -0.101182
C44   C     C_R   0.303958 0.591492 0.442349 0.531294
C45   C     C_R   0.099665 0.812560 0.104431 0.268194
C46   C     C_R   0.232009 0.737087 0.225021 -0.121707
C47   C     C_R   0.237424 0.730455 0.265101 -0.116544
C48   C     C_R   0.183592 0.690788 0.284649 0.029282
C49   C     C_R   0.122791 0.659858 0.263348 -0.117012
C50   C     C_R   0.118789 0.664983 0.223380 -0.112080
C51   C     C_R   0.174224 0.702498 0.203969 0.029796
C52   C     C_R   0.206954 0.584315 0.342415 -0.119236
C53   C     C_R   0.233714 0.561283 0.381028 -0.125382
C54   C     C_R   0.235577 0.720819 0.389705 -0.114266
C55   C     C_R   0.605349 0.299748 0.553721 0.559043
C56   C     C_R   0.207971 0.744256 0.351067 -0.113309
C57   C     C_R   0.197011 0.674471 0.326721 0.032546
C58   C     C_R   0.252238 0.627361 0.404682 0.019349
C59   C     C_R   0.721955 0.100513 0.086784 0.018010
C60   C     C_R   0.793297 0.119335 0.106915 -0.114077
C61   C     C_R   0.776670 0.151427 0.145260 -0.136962
C62   C     C_R   0.688095 0.166207 0.163743 0.044706
C63   C     C_R   0.612880 0.155934 0.142704 -0.095633
C64   C     C_R   0.629497 0.123654 0.104472 -0.136657
C65   C     C_R   0.590470 0.256528 0.223372 0.146497
C66   C     C_R   0.588583 0.607476 0.558815 0.550479
C67   C     C_R   0.582819 0.258266 0.263479 -0.109745
C68   C     C_R   0.663553 0.185057 0.286311 -0.004689
C69   C     C_R   0.752549 0.109281 0.268655 -0.140385
C70   C     C_R   0.760594 0.106232 0.228820 -0.155937
C71   C     C_R   0.680066 0.179033 0.205841 0.049267
C72   C     C_R   0.740209 0.184676 0.350733 -0.114872
C73   C     C_R   0.727972 0.211578 0.389592 -0.134063
C74   C     C_R   0.551965 0.246728 0.385545 -0.127880
C75   C     C_R   0.564342 0.219514 0.346714 -0.127971
C76   C     C_R   0.657008 0.193003 0.328604 0.037605
C77   C     C_R   0.296384 0.589988 0.551667 0.562735
C78   C     C_R   0.632148 0.247948 0.406809 0.021794
C79   C     C_R   0.691491 0.692154 0.919296 -0.028558
C80   C     C_R   0.765976 0.601799 0.901444 -0.107090
C81   C     C_R   0.752902 0.579904 0.863136 0.263470
C82   C     C_R   0.665954 0.651505 0.841943 0.060344
C83   C     C_R   0.587528 0.736511 0.860851 -0.140576
C84   C     C_R   0.599577 0.756037 0.899309 -0.161108
C85   C     C_R   0.576426 0.651488 0.780006 0.269252
C86   C     C_R   0.572341 0.655359 0.739613 -0.122753
C87   C     C_R   0.654719 0.648594 0.718929 -0.004660
C88   C     C_R   0.741780 0.718799 0.104146 0.020314
C89   C     C_R   0.740629 0.640708 0.738599 -0.093197
C90   C     C_R   0.743994 0.640252 0.778621 -0.136796
C91   C     C_R   0.662299 0.645926 0.799577 0.049673
C92   C     C_R   0.725199 0.560152 0.656116 0.299175
C93   C     C_R   0.712960 0.552156 0.616218 0.094551
C94   C     C_R   0.556256 0.718986 0.617509 0.237431
C95   C     C_R   0.569631 0.725393 0.657032 -0.146650
C96   C     C_R   0.651460 0.645598 0.676644 -0.038315
C97   C     C_R   0.622510 0.627722 0.597058 -0.023347
C98   C     C_R   0.072453 0.695865 0.903413 -0.016968
C99   C     C_R   0.658982 0.786174 0.127092 -0.126769
C100  C     C_R   0.122265 0.748647 0.891592 -0.102760
C101  C     C_R   0.165769 0.731204 0.854972 0.139803
C102  C     C_R   0.152456 0.663968 0.829401 0.018704
C103  C     C_R   0.107010 0.607946 0.842158 -0.138635
C104  C     C_R   0.068597 0.622663 0.879039 -0.141377
C105  C     C_R   0.240284 0.567342 0.769184 0.149797
C106  C     C_R   0.242775 0.566988 0.728731 -0.082773
C107  C     C_R   0.180996 0.656660 0.707810 0.002722
C108  C     C_R   0.116539 0.748124 0.727044 -0.128081
C109  C     C_R   0.111406 0.749559 0.766831 -0.146209
C110  C     C_R   0.662980 0.772374 0.166667 -0.123224
C111  C     C_R   0.172192 0.660219 0.788053 0.022031
C112  C     C_R   0.205588 0.724798 0.646962 -0.123998
C113  C     C_R   0.228224 0.713120 0.607806 0.101586
C114  C     C_R   0.200640 0.565556 0.605299 0.130957
C115  C     C_R   0.179584 0.578356 0.644583 -0.115395
C116  C     C_R   0.186979 0.654395 0.665743 -0.023979
C117  C     C_R   0.235566 0.626787 0.587423 0.057165
C118  C     C_R   0.733946 0.978444 0.896839 0.016031
C119  C     C_R   0.636228 0.015192 0.879793 -0.129793
C120  C     C_R   0.623454 0.029609 0.839862 -0.132980
Cr1   Cr    Cr6+3 0.426010 0.422500 0.497000 1.031606
Cr2   Cr    Cr6+3 0.651300 0.426310 0.501970 1.015630
Cr3   Cr    Cr6+3 0.422670 0.651170 0.501050 1.050268
Cr4   Cr    Cr6+3 0.905130 0.911420 0.992650 1.029820
Cr5   Cr    Cr6+3 0.911860 0.682710 0.002320 1.003907
Cr6   Cr    Cr6+3 0.682710 0.906840 0.004710 1.005075
H1    H     H_    0.593111 0.852534 0.114795 0.125584
H2    H     H_    0.896286 0.555282 0.173910 0.101095
H3    H     H_    0.165947 0.562445 0.086576 0.135400
H4    H     H_    0.198587 0.815367 0.339956 0.105635
H5    H     H_    0.286228 0.753406 0.280650 0.106330
H6    H     H_    0.274692 0.766802 0.210394 0.098780
H7    H     H_    0.218235 0.546817 0.153985 0.118614
H8    H     H_    0.078808 0.631001 0.277558 0.109200
H9    H     H_    0.891015 0.580617 0.104409 0.125180
H10   H     H_    0.071722 0.640265 0.207526 0.112867
H11   H     H_    0.200120 0.528358 0.324402 0.097930
H12   H     H_    0.246230 0.488523 0.391647 0.125065
H13   H     H_    0.113540 0.870196 0.160100 0.112018
H14   H     H_    0.248815 0.773543 0.407303 0.143263
H15   H     H_    0.865048 0.102485 0.093988 0.163377
H16   H     H_    0.572902 0.110283 0.089605 0.120811
H17   H     H_    0.499888 0.224039 0.330380 0.090900
H18   H     H_    0.514864 0.319043 0.276892 0.104097
H19   H     H_    0.853691 0.535093 0.361408 0.121615
H20   H     H_    0.835222 0.159700 0.161095 0.105101
H21   H     H_    0.815446 0.051666 0.285663 0.123152
H22   H     H_    0.829057 0.045166 0.215786 0.119917
H23   H     H_    0.812575 0.164280 0.337478 0.099681
H24   H     H_    0.791583 0.210249 0.405448 0.109090
H25   H     H_    0.544479 0.166019 0.156552 0.127016
H26   H     H_    0.477473 0.273360 0.398130 0.122040
H27   H     H_    0.837198 0.551001 0.916344 0.142001
H28   H     H_    0.540519 0.826146 0.912259 0.138003
H29   H     H_    0.513908 0.792362 0.672680 0.129985
H30   H     H_    0.783272 0.510337 0.294604 0.108571
H31   H     H_    0.505484 0.662697 0.724220 0.110520
H32   H     H_    0.804398 0.636188 0.722954 0.157349
H33   H     H_    0.809860 0.637238 0.793343 0.148841
H34   H     H_    0.520268 0.792246 0.845105 0.142470
H35   H     H_    0.124749 0.805274 0.910605 0.124141
H36   H     H_    0.797606 0.520318 0.225261 0.114236
H37   H     H_    0.030035 0.581465 0.887588 0.148518
H38   H     H_    0.159328 0.527451 0.658912 0.113786
H39   H     H_    0.293322 0.497866 0.713032 0.112681
H40   H     H_    0.068333 0.817763 0.711190 0.107925
H41   H     H_    0.057874 0.820194 0.781203 0.120759
H42   H     H_    0.207325 0.786286 0.663167 0.107122
H43   H     H_    0.096609 0.556356 0.822774 0.147710
H44   H     H_    0.599349 0.826826 0.183905 0.097893
H45   H     H_    0.569672 0.036973 0.897322 0.125503
H46   H     H_    0.895513 0.917967 0.885607 0.132297
H47   H     H_    0.823482 0.078754 0.647476 0.125974
H48   H     H_    0.547115 0.063536 0.827167 0.101210
H49   H     H_    0.628588 0.946468 0.758567 0.127430
H50   H     H_    0.499707 0.193942 0.660181 0.123549
H51   H     H_    0.873001 0.942464 0.816386 0.127659
H52   H     H_    0.790307 0.171829 0.587171 0.127682
H53   H     H_    0.717814 0.836480 0.236279 0.102803
H54   H     H_    0.556779 0.794024 0.338224 0.141336
O1    O     O_R   0.324990 0.503440 0.453910 -0.529858
O2    O     O_R   0.639980 0.519500 0.542640 -0.514064
O3    O     O_R   0.500750 0.673190 0.545480 -0.448860
O4    O     O_R   0.336260 0.640450 0.538210 -0.470306
O5    O     O_3   0.499990 0.499990 0.500010 -0.254076
O6    O     O_R   0.834210 0.019400 0.034570 -0.488094
O7    O     O_R   0.002210 0.824620 0.031030 -0.445747
O8    O     O_R   0.024400 0.669340 0.039790 -0.529080
O9    O     O_R   0.830490 0.694950 0.045870 -0.497938
O10   O     O_R   0.675430 0.831160 0.051290 -0.519257
O11   O     O_R   0.698870 0.998880 0.039560 -0.499770
O12   O     O_R   0.522030 0.339050 0.458320 -0.508986
O13   O     O_R   0.811290 0.006780 0.950620 -0.511379
O14   O     O_R   0.980960 0.812920 0.953200 -0.533223
O15   O     O_R   0.001480 0.656720 0.955830 -0.512546
O16   O     O_R   0.809240 0.683250 0.968050 -0.504493
O17   O     O_R   0.652500 0.818540 0.967340 -0.523796
O18   O     O_R   0.677620 0.987170 0.961730 -0.502349
O19   O     O_3   0.833240 0.833660 0.999890 -0.261725
O20   O     O_R   0.676180 0.324490 0.458320 -0.524384
O21   O     O_R   0.643570 0.521510 0.464260 -0.462564
O22   O     O_R   0.504630 0.675350 0.460920 -0.476487
O23   O     O_R   0.339850 0.642450 0.459830 -0.501330
O24   O     O_R   0.321120 0.501280 0.538470 -0.461614
O25   O     O_R   0.518440 0.337050 0.536710 -0.446703
O26   O     O_R   0.672300 0.322330 0.542880 -0.540102
O27   O     O_3   0.471591 0.786052 0.401423 -0.552056
C121  C     C_3   0.460343 0.880612 0.414329 -0.112848
H55   H     H_    0.474526 0.921222 0.390850 0.108264
H56   H     H_    0.511650 0.870341 0.439535 0.118023
H57   H     H_    0.380125 0.930122 0.423737 0.128257
O28   O     O_3   0.806427 0.489486 0.428319 -0.555120
C122  C     C_3   0.833576 0.394718 0.410173 -0.099040
H58   H     H_    0.890910 0.377137 0.387419 0.090732
H59   H     H_    0.765319 0.392440 0.398019 0.127627
H60   H     H_    0.869649 0.333297 0.431976 0.138867
O29   O     O_3   0.048696 0.909140 0.088391 -0.553785
C123  C     C_3   0.121086 0.939805 0.080195 -0.128700
H61   H     H_    0.156661 0.950665 0.106987 0.097519
H62   H     H_    0.181335 0.884124 0.060559 0.111244
H63   H     H_    0.080833 0.014685 0.065319 0.134651
N1    N     N_2   0.508031 0.332646 0.200999 -0.532511
H64   H     H_    0.437181 0.361774 0.213551 0.241088
C124  C     C_3   0.525655 0.412917 0.187255 -0.300864
H65   H     H_    0.459564 0.466297 0.168940 0.144704
H66   H     H_    0.596006 0.380232 0.169686 0.163006
H67   H     H_    0.533545 0.456770 0.211927 0.141332
O30   O     O_3   0.494983 0.659622 0.800877 -0.592341
C125  C     C_3   0.477067 0.578068 0.791237 -0.134250
H68   H     H_    0.549431 0.502771 0.790331 0.093720
H69   H     H_    0.433966 0.592751 0.763529 0.130714
H70   H     H_    0.428643 0.573004 0.813742 0.147514
O31   O     O_3   0.831300 0.494410 0.845639 -0.580071
C126  C     C_3   0.802430 0.418324 0.842503 -0.117334
H71   H     H_    0.734172 0.442772 0.823235 0.115772
H72   H     H_    0.787649 0.397248 0.871261 0.114557
H73   H     H_    0.866586 0.348441 0.829610 0.150645
O32   O     O_3   0.810332 0.483991 0.675042 -0.554729
C127  C     C_3   0.787862 0.407779 0.686625 -0.081203
H74   H     H_    0.778560 0.366415 0.661364 0.144234
H75   H     H_    0.718401 0.439802 0.704817 0.124075
H76   H     H_    0.853252 0.351276 0.704332 0.143165
N2    N     N_2   0.792096 0.466054 0.596732 -0.485165
H77   H     H_    0.773015 0.413111 0.586098 0.275275
C128  C     C_3   0.854487 0.488550 0.571977 -0.274998
H78   H     H_    0.887680 0.529531 0.588505 0.153919
H79   H     H_    0.808176 0.536423 0.547357 0.148778
H80   H     H_    0.918524 0.415827 0.560662 0.131762
O33   O     O_3   0.471941 0.799610 0.600063 -0.548188
C129  C     C_3   0.503392 0.865506 0.584485 -0.117992
H81   H     H_    0.561185 0.826162 0.561624 0.117249
H82   H     H_    0.534399 0.896408 0.607207 0.129658
H83   H     H_    0.435617 0.931561 0.571094 0.123808
N3    N     N_2   0.302687 0.476405 0.791146 -0.527107
H84   H     H_    0.318825 0.488302 0.819122 0.249488
C130  C     C_3   0.386001 0.387437 0.772915 -0.327507
H85   H     H_    0.427647 0.326555 0.794622 0.132088
H86   H     H_    0.440990 0.407715 0.760339 0.126762
H87   H     H_    0.355561 0.355743 0.750420 0.155423
N4    N     N_2   0.218019 0.784357 0.843657 -0.523590
H88   H     H_    0.238791 0.776252 0.815247 0.268494
C131  C     C_3   0.300099 0.774561 0.869153 -0.286083
H89   H     H_    0.337292 0.815470 0.856770 0.162123
H90   H     H_    0.358861 0.692491 0.872656 0.160531
H91   H     H_    0.270151 0.809551 0.897675 0.134985
N5    N     N_2   0.248897 0.785442 0.589893 -0.461315
H92   H     H_    0.274975 0.822202 0.608477 0.273404
C132  C     C_3   0.167047 0.856462 0.564828 -0.288915
H93   H     H_    0.191708 0.905799 0.550326 0.138739
H94   H     H_    0.097375 0.905990 0.581798 0.119120
H95   H     H_    0.148195 0.814592 0.542349 0.144981
N6    N     N_2   0.190747 0.488060 0.584580 -0.471967
H96   H     H_    0.194326 0.430607 0.601518 0.246440
C133  C     C_3   0.104930 0.527042 0.557682 -0.299315
H97   H     H_    0.031521 0.569896 0.573322 0.125538
H98   H     H_    0.105230 0.462073 0.541791 0.134117
H99   H     H_    0.110412 0.578443 0.536445 0.154526
O34   O     O_3   0.763638 0.191852 0.713770 -0.580056
C134  C     C_3   0.871564 0.141752 0.718606 -0.117340
H100  H     H_    0.909795 0.056988 0.714182 0.092512
H101  H     H_    0.892328 0.159587 0.747419 0.174526
H102  H     H_    0.903037 0.171317 0.696837 0.107415
O35   O     O_3   0.766317 0.148397 0.791788 -0.565344
C135  C     C_3   0.684609 0.244246 0.803307 -0.115624
H103  H     H_    0.621785 0.236205 0.816270 0.112653
H104  H     H_    0.654315 0.298799 0.778863 0.130369
H105  H     H_    0.713655 0.277449 0.825672 0.123382
O36   O     O_3   0.600495 0.990925 0.682669 -0.567136
C136  C     C_3   0.506823 0.000380 0.694658 -0.141591
H106  H     H_    0.457018 0.075112 0.709300 0.101719
H107  H     H_    0.521070 0.935354 0.713395 0.123423
H108  H     H_    0.463849 0.996818 0.668856 0.131601
O37   O     O_3   0.698140 0.844870 0.314350 -0.566286
C137  C     C_3   0.623840 0.939569 0.298615 -0.140543
H109  H     H_    0.559818 0.934507 0.283807 0.091039
H110  H     H_    0.660187 0.969372 0.278979 0.134009
H111  H     H_    0.589944 0.996026 0.322445 0.144022
O38   O     O_3   0.443489 0.293003 0.595012 -0.535697
C138  C     C_3   0.409237 0.226204 0.580936 -0.106715
H112  H     H_    0.400090 0.182942 0.604712 0.094959
H113  H     H_    0.461611 0.172309 0.558762 0.100878
H114  H     H_    0.332940 0.272520 0.566922 0.145761

loop_
_geom_bond_atom_site_label_1
_geom_bond_atom_site_label_2
_ccdc_geom_bond_type
Cr6   O19   S    
C16   H47   S    
C15   C18   A    
C137  H110  S    
C49   H8    S    
C77   O24   A    
C75   C76   A    
C40   C41   A    
C101  C102  A    
C22   C98   S    
C80   C81   A    
C73   H24   S    
C133  H99   S    
C45   O29   S    
C41   C42   A    
C14   C18   A    
C95   C96   A    
Cr1   O25   S    
C4    H51   S    
C72   C76   A    
C10   H49   S    
C25   C118  S    
C136  H108  S    
Cr1   O12   S    
C41   H7    S    
C114  C115  A    
C85   C91   A    
C80   H27   S    
C122  H58   S    
C108  C109  A    
Cr4   O19   S    
C92   O32   S    
C59   C64   A    
C115  H38   S    
C123  H63   S    
Cr5   O8    S    
C19   C39   S    
Cr2   O21   S    
Cr1   O1    S    
C135  H103  S    
C87   C96   S    
C21   C59   S    
C125  H70   S    
C77   C117  S    
C69   C70   A    
C109  C111  A    
C20   O10   A    
C137  H109  S    
C19   O8    A    
C21   O11   A    
C112  C116  A    
C106  C107  A    
Cr5   O15   S    
C129  H82   S    
C15   C16   A    
C112  H42   S    
C130  H87   S    
C33   O22   A    
C92   C96   A    
C77   O4    A    
C56   C57   A    
C119  H45   S    
C133  H97   S    
C134  H102  S    
C124  H66   S    
C90   H33   S    
Cr6   O10   S    
C2    C13   A    
Cr2   O26   S    
C118  C119  A    
O30   C125  S    
N3    C130  S    
C25   O18   A    
C109  H41   S    
C19   O7    A    
C113  N5    S    
C13   H2    S    
C84   H28   S    
N2    H77   S    
C54   H14   S    
C83   H34   S    
C127  H74   S    
C44   C58   S    
C8    C9    A    
C65   C67   A    
C130  H86   S    
C23   O16   A    
C44   O23   A    
Cr3   O3    S    
C107  C108  A    
C43   H13   S    
C100  H35   S    
C101  N4    S    
C7    O34   S    
C9    C10   A    
C2    C31   S    
C66   C97   S    
C49   C50   A    
C9    O36   S    
C42   C51   S    
C39   C45   A    
Cr6   O18   S    
C129  H83   S    
C66   O2    A    
C26   C31   A    
C128  H78   S    
C124  H65   S    
C1    C78   S    
C79   C84   A    
C74   H26   S    
C102  C111  S    
C61   C62   A    
C126  H72   S    
C105  N3    S    
C131  H91   S    
C67   H18   S    
C112  C113  A    
C138  H114  S    
C125  H68   S    
C50   C51   A    
C6    C7    A    
C122  H59   S    
N6    C133  S    
C55   O25   A    
C54   C56   A    
C74   C75   A    
C65   N1    S    
O27   C121  S    
C114  C117  A    
C106  H39   S    
C7    C8    A    
C35   C38   A    
C79   C80   A    
Cr1   O24   S    
C137  H111  S    
N4    C131  S    
C93   N2    S    
C29   O37   S    
C6    C11   A    
C138  H112  S    
C86   C87   A    
C121  H55   S    
Cr2   O5    S    
C131  H90   S    
Cr5   O16   S    
N2    C128  S    
C129  H81   S    
C85   C86   A    
C99   C110  A    
Cr1   O5    S    
C46   C51   A    
C26   H36   S    
C81   C82   A    
C82   C91   S    
C67   C68   A    
C13   C24   A    
C47   H5    S    
C60   C61   A    
C35   C36   A    
C32   C34   A    
Cr3   O5    S    
C61   H20   S    
C59   C60   A    
O37   C137  S    
C60   H15   S    
C43   C45   A    
C36   H19   S    
C123  H62   S    
C47   C48   A    
C132  H95   S    
C30   C31   A    
C73   C78   A    
C130  H85   S    
C62   C63   A    
C52   H11   S    
O33   C129  S    
C119  C120  A    
C94   C95   A    
C127  H75   S    
C85   O30   S    
C32   C37   A    
C132  H93   S    
C46   H6    S    
N1    C124  S    
C92   C93   A    
C138  H113  S    
C63   H25   S    
C70   C71   A    
N5    C132  S    
C18   C55   S    
C113  C117  A    
C110  H44   S    
Cr6   O17   S    
C120  H48   S    
C48   C49   A    
C132  H94   S    
C82   C83   A    
C98   C100  A    
C53   H12   S    
C128  H79   S    
C74   C78   A    
C69   H21   S    
N5    H92   S    
C81   O31   S    
C22   O15   A    
C83   C84   A    
C1    O20   A    
C70   H22   S    
C42   C43   A    
N6    H96   S    
C90   C91   A    
C3    C4    A    
C28   C29   A    
C124  H67   S    
C93   C97   A    
C20   O9    A    
C25   O13   A    
C52   C53   A    
C24   H9    S    
Cr3   O4    S    
C136  H106  S    
C54   C58   A    
C122  H60   S    
C27   H30   S    
C55   O26   A    
C108  H40   S    
C46   C47   A    
C36   C37   A    
Cr3   O22   S    
C34   C38   A    
C24   C88   A    
C135  H105  S    
C22   O14   A    
C3    C120  A    
C8    C17   S    
Cr4   O13   S    
C12   C14   A    
C72   C73   A    
C6    O35   S    
C114  N6    S    
Cr4   O7    S    
C99   H1    S    
C53   C58   A    
C75   H17   S    
O38   C138  S    
C131  H89   S    
C135  H104  S    
C52   C57   A    
Cr3   O23   S    
C34   O27   S    
C68   C76   S    
C40   H3    S    
C21   O6    A    
C105  C106  A    
C23   O17   A    
C94   O33   S    
C94   C97   A    
C35   O28   S    
C12   H50   S    
C5    C118  A    
C14   O38   S    
C23   C79   S    
O36   C136  S    
O35   C135  S    
N3    H84   S    
C87   C89   A    
C66   O3    A    
O29   C123  S    
C134  H100  S    
C44   O1    A    
C125  H69   S    
C50   H10   S    
N4    H88   S    
C12   C17   A    
Cr4   O6    S    
C33   O21   A    
C89   H32   S    
C123  H61   S    
C16   C17   A    
C30   H53   S    
C64   H16   S    
C28   C37   S    
C121  H57   S    
C98   C104  A    
C4    C5    A    
C20   C88   S    
O32   C127  S    
C100  C101  A    
C136  H107  S    
C5    H46   S    
C62   C71   S    
C127  H76   S    
C95   H29   S    
C65   C71   A    
C134  H101  S    
C105  C111  A    
C102  C103  A    
C68   C69   A    
C86   H31   S    
C107  C116  S    
C88   C99   A    
C3    C11   S    
C10   C11   A    
C29   C30   A    
C63   C64   A    
C39   C40   A    
C1    O12   A    
C104  H37   S    
Cr2   O2    S    
C48   C57   S    
O28   C122  S    
Cr5   O19   S    
C121  H56   S    
C72   H23   S    
C126  H71   S    
C128  H80   S    
Cr4   O14   S    
C103  C104  A    
C103  H43   S    
O34   C134  S    
C32   H54   S    
C33   C38   S    
Cr5   O9    S    
Cr2   O20   S    
C89   C90   A    
C26   C27   A    
N1    H64   S    
C126  H73   S    
C56   H4    S    
Cr6   O11   S    
C115  C116  A    
O31   C126  S    
C15   H52   S    
C27   C28   A    
C133  H98   S    
C2    C110  A    
