data_mof_unit_30790.cif
_audit_creation_date              2012-12-11T15:10:47-0500
_audit_creation_method            fapswitch 2.2
_symmetry_space_group_name_H-M    P1
_symmetry_Int_Tables_number       1
_space_group_crystal_system       triclinic
_cell_length_a                    21.213191
_cell_length_b                    7.232494
_cell_length_c                    18.179574
_cell_angle_alpha                 89.999968
_cell_angle_beta                  93.368169
_cell_angle_gamma                 90.000119
_cell_volume                      2784.37000802

loop_
_atom_site_label
_atom_site_type_symbol
_atom_type_description
_atom_site_fract_x
_atom_site_fract_y
_atom_site_fract_z
_atom_type_partial_charge
O1    O     O_R   0.448880 0.506250 0.415280 -0.530208
O2    O     O_R   0.551120 0.006250 0.584720 -0.530208
O3    O     O_R   0.434830 0.174000 0.557310 -0.520305
O4    O     O_R   0.565170 0.674000 0.442690 -0.520304
C1    C     C_R   0.416912 0.344637 0.579574 0.697534
C2    C     C_R   0.583088 0.844637 0.420426 0.697529
O5    O     O_R   0.441680 0.176440 0.414130 -0.530645
O6    O     O_R   0.558320 0.676440 0.585870 -0.530645
O7    O     O_R   0.558020 0.007570 0.440520 -0.520177
O8    O     O_R   0.441980 0.507570 0.559480 -0.520175
C3    C     C_R   0.428126 0.344936 0.388205 0.677403
C4    C     C_R   0.571874 0.844936 0.611795 0.677404
O9    O     O_3   0.538160 0.339670 0.508820 -0.365017
O10   O     O_3   0.461840 0.839670 0.491180 -0.365016
V1    V     V_3+5 0.492920 0.064260 0.498360 1.412166
V2    V     V_3+5 0.507080 0.564260 0.501640 1.412171
C5    C     C_R   0.877863 0.925145 0.685972 -0.227557
C6    C     C_R   0.122138 0.425187 0.314028 -0.227604
C7    C     C_R   0.887508 0.938541 0.819073 -0.210125
C8    C     C_R   0.112493 0.438544 0.180926 -0.210121
C9    C     C_R   0.582503 0.818503 0.746610 -0.154188
C10   C     C_R   0.417494 0.318465 0.253391 -0.154183
C11   C     C_R   0.617651 0.808367 0.813357 -0.155990
C12   C     C_R   0.382345 0.308312 0.186645 -0.155989
C13   C     C_R   0.682757 0.835379 0.816503 -0.129246
C14   C     C_R   0.317241 0.335340 0.183499 -0.129250
C15   C     C_R   0.714746 0.880313 0.752697 0.091302
C16   C     C_R   0.285254 0.380307 0.247303 0.091300
C17   C     C_R   0.678601 0.880073 0.683590 0.008847
C18   C     C_R   0.321399 0.380088 0.316410 0.008826
C19   C     C_R   0.781841 0.912186 0.754526 -0.086134
C20   C     C_R   0.218159 0.412192 0.245473 -0.086122
C21   C     C_R   0.811653 0.917510 0.686356 -0.061455
C22   C     C_R   0.188349 0.417546 0.313643 -0.061488
C23   C     C_R   0.775300 0.916869 0.618909 0.430612
C24   C     C_R   0.224702 0.416930 0.381089 0.430605
C25   C     C_R   0.709713 0.899960 0.618182 -0.281714
C26   C     C_R   0.290289 0.400014 0.381816 -0.281686
C27   C     C_R   0.820990 0.941090 0.820875 0.291350
C28   C     C_R   0.179010 0.441080 0.179123 0.291351
C29   C     C_R   0.915723 0.925610 0.751565 0.319894
C30   C     C_R   0.084278 0.425636 0.248435 0.319910
C31   C     C_R   0.612040 0.851677 0.681213 -0.058395
C32   C     C_R   0.387960 0.351673 0.318787 -0.058399
H1    H     H_    0.706949 0.810455 0.869203 0.176288
H2    H     H_    0.293046 0.310401 0.130800 0.176285
H3    H     H_    0.594371 0.775200 0.863120 0.123353
H4    H     H_    0.405623 0.275119 0.136884 0.123353
H5    H     H_    0.683550 0.895139 0.565245 0.116387
H6    H     H_    0.316452 0.395227 0.434754 0.116425
C33   C     C_1   0.864602 0.938745 0.132143 -0.196284
C34   C     C_1   0.135398 0.438745 0.867857 -0.196287
C35   C     C_1   0.821825 0.924723 0.176004 -0.001754
C36   C     C_1   0.178176 0.424722 0.823997 -0.001754
C37   C     C_1   0.771435 0.905856 0.228347 -0.003194
C38   C     C_1   0.228566 0.405855 0.771654 -0.003182
C39   C     C_1   0.728952 0.889357 0.272474 -0.009517
C40   C     C_1   0.271049 0.389355 0.727528 -0.009524
C41   C     C_1   0.678424 0.870270 0.324642 0.003210
C42   C     C_1   0.321577 0.370268 0.675359 0.003211
C43   C     C_1   0.635502 0.856140 0.368321 -0.201844
C44   C     C_1   0.364498 0.356139 0.631680 -0.201811
O11   O     O_R   0.058070 0.289240 0.940580 -0.514943
O12   O     O_R   0.941930 0.789240 0.059420 -0.514944
O13   O     O_R   0.058330 0.616740 0.085880 -0.537128
O14   O     O_R   0.941670 0.116740 0.914120 -0.537130
C45   C     C_R   0.071745 0.448525 0.112019 0.817905
C46   C     C_R   0.928255 0.948525 0.887981 0.817900
O15   O     O_R   0.065180 0.619040 0.942700 -0.528904
O16   O     O_R   0.934820 0.119040 0.057300 -0.528903
O17   O     O_R   0.948870 0.787780 0.915270 -0.539107
O18   O     O_R   0.051130 0.287780 0.084730 -0.539104
C47   C     C_R   0.083175 0.450284 0.920183 0.717948
C48   C     C_R   0.916825 0.950283 0.079817 0.717955
O19   O     O_3   0.961870 0.453310 0.991210 -0.373175
O20   O     O_3   0.038130 0.953310 0.008790 -0.373172
V3    V     V_3+5 0.007070 0.728770 0.001630 1.433753
V4    V     V_3+5 0.992930 0.228770 0.998370 1.433753
O21   O     O_3   0.980754 0.935349 0.749594 -0.554441
C49   C     C_3   0.004068 0.760246 0.730165 0.100817
H7    H     H_    0.985223 0.717853 0.674225 0.121308
H8    H     H_    0.991607 0.653441 0.771079 0.117497
C50   C     C_3   0.075640 0.769709 0.729264 -0.691344
H9    H     H_    0.096320 0.806698 0.784873 0.223585
H10   H     H_    0.094475 0.633377 0.713019 0.181226
H11   H     H_    0.089573 0.875399 0.688971 0.224613
O22   O     O_3   0.019247 0.435382 0.250406 -0.554443
C51   C     C_3   0.995931 0.260289 0.269845 0.100818
H12   H     H_    0.014769 0.217929 0.325792 0.121312
H13   H     H_    0.008399 0.153461 0.228943 0.117491
C52   C     C_3   0.924359 0.269748 0.270730 -0.691352
H14   H     H_    0.903687 0.306706 0.215114 0.223585
H15   H     H_    0.905522 0.133424 0.286982 0.181224
H16   H     H_    0.910418 0.375459 0.311011 0.224613
O23   O     O_3   0.804519 0.918859 0.552754 -0.556204
C53   C     C_3   0.796704 0.095286 0.520187 0.090279
H17   H     H_    0.815204 0.205811 0.558405 0.122485
H18   H     H_    0.746084 0.122814 0.504270 0.122660
C54   C     C_3   0.833363 0.102945 0.450780 -0.691904
H19   H     H_    0.815747 0.995128 0.411216 0.229033
H20   H     H_    0.827276 0.240720 0.424339 0.180390
H21   H     H_    0.884397 0.079402 0.464830 0.220103
O24   O     O_3   0.195489 0.418973 0.447246 -0.556198
C55   C     C_3   0.203259 0.595481 0.479755 0.090266
H22   H     H_    0.184696 0.705879 0.441517 0.122487
H23   H     H_    0.253877 0.623194 0.495620 0.122657
C56   C     C_3   0.166641 0.603151 0.549195 -0.691892
H24   H     H_    0.184327 0.495475 0.588783 0.229027
H25   H     H_    0.172688 0.741001 0.575583 0.180391
H26   H     H_    0.115611 0.579404 0.535196 0.220110
H27   H     H_    0.900969 0.929296 0.634417 0.179605
H28   H     H_    0.099034 0.429355 0.365583 0.179591
O25   O     O_3   0.795911 0.979914 0.887611 -0.572286
C57   C     C_3   0.780617 0.169927 0.889438 0.081013
H29   H     H_    0.742017 0.203416 0.847378 0.131663
H30   H     H_    0.822516 0.257686 0.879670 0.130634
C58   C     C_3   0.758137 0.217693 0.965014 -0.695074
H31   H     H_    0.796144 0.188760 0.008114 0.222044
H32   H     H_    0.745644 0.366651 0.967024 0.178105
H33   H     H_    0.715846 0.134059 0.976224 0.218198
O26   O     O_3   0.204090 0.479883 0.112385 -0.572285
C59   C     C_3   0.219390 0.669892 0.110552 0.081010
H34   H     H_    0.257997 0.703372 0.152603 0.131666
H35   H     H_    0.177497 0.757667 0.120327 0.130626
C60   C     C_3   0.241859 0.717642 0.034970 -0.695073
H36   H     H_    0.203845 0.688717 0.991878 0.222042
H37   H     H_    0.254358 0.866595 0.032954 0.178104
H38   H     H_    0.284144 0.633991 0.023750 0.218201
H39   H     H_    0.532010 0.794830 0.745642 0.105045
H40   H     H_    0.467987 0.294776 0.254359 0.105046

loop_
_geom_bond_atom_site_label_1
_geom_bond_atom_site_label_2
_ccdc_geom_bond_type
O14   C46   A    
O22   C51   S    
O16   V4    S    
C37   C39   T    
O12   V3    S    
C8    C45   S    
O15   V3    S    
O23   C53   S    
O1    C3    A    
C33   C48   S    
O2    C4    A    
C2    O7    A    
C55   H23   S    
C57   H29   S    
C11   C13   A    
O5    C3    A    
C28   O26   S    
C24   O24   S    
C2    C43   S    
C23   C25   A    
C12   C14   A    
C4    C31   S    
C58   H32   S    
C8    C28   A    
C39   C41   S    
C15   C17   A    
C40   C42   S    
C53   C54   S    
C18   C26   A    
C42   C44   T    
C45   O18   A    
O18   V4    S    
C9    C31   A    
C10   C32   A    
C50   H9    S    
C38   C40   T    
C16   C18   A    
O13   C45   A    
C53   H18   S    
O16   C48   A    
C60   H38   S    
C56   H24   S    
C19   C21   A    
O15   C47   A    
O5    V1    S    
O6    V2    S    
C10   H40   S    
C56   H25   S    
C18   C32   A    
C5    C21   A    
C49   C50   S    
C5    H27   S    
C55   H22   S    
C34   C36   T    
C35   C37   S    
O14   V4    S    
C36   C38   S    
C41   C43   T    
C11   H3    S    
C15   C19   A    
C12   H4    S    
C16   C20   A    
O13   V3    S    
O20   V3    S    
C49   H8    S    
C34   C47   S    
C58   H33   S    
C52   H14   S    
O11   C47   A    
C27   O25   S    
C33   C35   T    
C20   C22   A    
O4    V2    S    
C7    C46   S    
C52   H15   S    
C25   H5    S    
C8    C30   A    
C54   H19   S    
C51   C52   S    
O6    C4    A    
C53   H17   S    
C54   H21   S    
C3    C32   S    
O1    V2    S    
O2    V1    S    
C6    C22   A    
C9    H39   S    
O26   C59   S    
C7    C27   A    
O4    C2    A    
C54   H20   S    
C51   H13   S    
C9    C11   A    
C60   H36   S    
C56   H26   S    
C10   C12   A    
C59   H35   S    
C13   H1    S    
O17   V3    S    
O3    V1    S    
O25   C57   S    
C50   H10   S    
C6    H28   S    
C49   H7    S    
O3    C1    A    
C29   O21   S    
C57   H30   S    
C26   H6    S    
C23   O23   S    
C13   C15   A    
C14   C16   A    
C59   C60   S    
C6    C30   A    
O7    V1    S    
C1    O8    A    
O8    V2    S    
C58   H31   S    
C52   H16   S    
C46   O17   A    
C24   C26   A    
C21   C23   A    
C19   C27   A    
C1    C44   S    
C22   C24   A    
C20   C28   A    
O19   V4    S    
C5    C29   A    
C57   C58   S    
C14   H2    S    
O21   C49   S    
C50   H11   S    
C51   H12   S    
O9    V2    S    
C17   C25   A    
O24   C55   S    
C60   H37   S    
O12   C48   A    
O10   V1    S    
C30   O22   S    
C59   H34   S    
C55   C56   S    
C17   C31   A    
C7    C29   A    
O11   V4    S    
