data_mof_unit_45504.cif
_audit_creation_date              2012-12-11T14:36:18-0500
_audit_creation_method            fapswitch 2.2
_symmetry_space_group_name_H-M    P1
_symmetry_Int_Tables_number       1
_space_group_crystal_system       triclinic
_cell_length_a                    13.561229
_cell_length_b                    13.454509
_cell_length_c                    27.476821
_cell_angle_alpha                 90.265284
_cell_angle_beta                  90.135759
_cell_angle_gamma                 59.927724
_cell_volume                      4338.53000712

loop_
_atom_site_label
_atom_site_type_symbol
_atom_type_description
_atom_site_fract_x
_atom_site_fract_y
_atom_site_fract_z
_atom_type_partial_charge
C1    C     C_R   0.620383 0.101754 0.570032 0.548432
C2    C     C_1   0.658920 0.685763 0.655390 -0.061416
C3    C     C_3   0.932504 0.867582 0.304972 -0.273692
C4    C     C_3   0.027325 0.781363 0.271564 -0.458511
C5    C     C_3   0.053679 0.042254 0.711987 -0.278295
C6    C     C_3   0.056444 0.948794 0.744197 -0.447284
C7    C     C_3   0.390324 0.038651 0.746137 -0.282983
C8    C     C_3   0.446178 0.022131 0.796087 -0.448325
C9    C     C_3   0.104005 0.108140 0.737646 0.037811
C10   C     C_R   0.600341 0.777954 0.568315 0.546430
C11   C     C_3   0.195109 0.060498 0.778415 -0.070678
C12   C     C_1   0.087652 0.206217 0.900522 -0.014048
C13   C     C_1   0.228573 0.137530 0.617089 -0.022030
C14   C     C_3   0.036038 0.223631 0.765430 -0.102145
C15   C     C_3   0.128908 0.176181 0.805274 0.031327
C16   C     C_3   0.104415 0.270556 0.738140 -0.124590
C17   C     C_3   0.171146 0.155203 0.710824 0.046419
C18   C     C_1   0.636467 0.721365 0.614364 -0.019736
C19   C     C_3   0.195987 0.223905 0.778828 -0.089571
C20   C     C_3   0.261385 0.108762 0.751289 0.040474
C21   C     C_1   0.109138 0.189387 0.857790 -0.063106
C22   C     C_R   0.277801 0.121652 0.569614 0.558046
C23   C     C_1   0.198453 0.146401 0.658851 -0.071375
C24   C     C_3   0.673232 0.272444 0.735215 -0.108149
C25   C     C_3   0.578792 0.294643 0.772705 -0.101223
C26   C     C_1   0.695297 0.213513 0.901284 -0.016116
C27   C     C_1   0.637461 0.137122 0.617215 -0.020335
C28   C     C_3   0.763535 0.179265 0.769125 -0.107024
C29   C     C_3   0.705619 0.539051 0.765893 -0.102621
C30   C     C_3   0.668995 0.200871 0.805556 0.050627
C31   C     C_3   0.745219 0.086701 0.743969 -0.098615
C32   C     C_3   0.654963 0.179843 0.710912 0.053815
C33   C     C_3   0.651054 0.108708 0.781101 -0.102096
C34   C     C_R   0.623699 0.101313 0.432081 0.537596
C35   C     C_3   0.560367 0.201942 0.747518 -0.099297
C36   C     C_1   0.680108 0.207588 0.858382 -0.062513
C37   C     C_1   0.646910 0.160274 0.658816 -0.062727
C38   C     C_R   0.733721 0.696967 0.359514 -0.139134
C39   C     C_R   0.747044 0.678769 0.309229 0.014314
C40   C     C_3   0.690553 0.632820 0.802356 0.053719
C41   C     C_R   0.768321 0.651532 0.207864 0.012727
C42   C     C_R   0.862919 0.629814 0.236389 -0.130641
C43   C     C_R   0.852122 0.644230 0.286815 -0.132821
C44   C     C_R   0.779957 0.629059 0.158073 -0.135239
C45   C     C_R   0.687080 0.639714 0.131041 -0.004300
C46   C     C_R   0.600342 0.777886 0.429912 0.537874
C47   C     C_R   0.537890 0.737922 0.352542 -0.128987
C48   C     C_R   0.547666 0.727075 0.302602 0.009040
C49   C     C_R   0.652223 0.698270 0.280618 0.064723
C50   C     C_R   0.453010 0.748355 0.274362 -0.129565
C51   C     C_3   0.598857 0.629774 0.738095 -0.101647
C52   C     C_R   0.461805 0.740862 0.224024 -0.129799
C53   C     C_R   0.566283 0.708733 0.201755 0.012883
C54   C     C_R   0.661986 0.687666 0.230019 0.064271
C55   C     C_R   0.578865 0.688147 0.152088 -0.132565
C56   C     C_R   0.628076 0.729600 0.380951 0.000650
C57   C     C_R   0.261778 0.040858 0.351649 -0.150630
C58   C     C_R   0.329463 0.099077 0.424824 0.559426
C59   C     C_R   0.232152 0.050797 0.302540 0.010953
C60   C     C_R   0.157690 0.086902 0.205563 0.001382
C61   C     C_R   0.134766 0.017396 0.235899 -0.125847
C62   C     C_3   0.675885 0.658124 0.707287 0.052111
C63   C     C_R   0.173209 0.998046 0.283953 -0.133494
C64   C     C_R   0.108919 0.117160 0.159510 -0.165284
C65   C     C_R   0.124202 0.194297 0.130526 -0.000492
C66   C     C_R   0.319690 0.185334 0.341351 0.002333
C67   C     C_R   0.313815 0.174628 0.290420 0.025970
C68   C     C_R   0.259178 0.117107 0.271727 0.054157
C69   C     C_R   0.355399 0.224747 0.257455 -0.150810
C70   C     C_3   0.782653 0.567653 0.734122 -0.100554
C71   C     C_R   0.325104 0.236501 0.208709 -0.126824
C72   C     C_R   0.251228 0.199579 0.191740 0.040550
C73   C     C_3   0.584242 0.722766 0.775284 -0.104534
C74   C     C_R   0.224438 0.132756 0.222699 0.033069
C75   C     C_R   0.201100 0.230715 0.145290 0.128563
C76   C     C_R   0.301974 0.109952 0.372110 0.001124
C77   C     C_R   0.583707 0.247289 0.366893 -0.150193
C78   C     C_R   0.595196 0.266416 0.317701 0.009693
C79   C     C_R   0.601540 0.295123 0.216696 0.009916
C80   C     C_R   0.525918 0.387667 0.246062 -0.140178
C81   C     C_R   0.522400 0.373257 0.296254 -0.146472
C82   C     C_3   0.768056 0.660650 0.771600 -0.099557
C83   C     C_R   0.606723 0.308362 0.166397 -0.136944
C84   C     C_3   0.661429 0.751149 0.743877 -0.105497
C85   C     C_R   0.686047 0.215519 0.137986 -0.002201
C86   C     C_R   0.744105 0.053839 0.359430 -0.129724
C87   C     C_R   0.755604 0.068618 0.310070 0.009066
C88   C     C_R   0.676538 0.174670 0.288719 0.049125
C89   C     C_R   0.840090 0.977843 0.281264 0.023561
C90   C     C_R   0.835231 0.992011 0.230651 -0.107510
C91   C     C_R   0.754221 0.095154 0.209392 -0.008304
C92   C     C_R   0.677398 0.188400 0.238300 0.055942
C93   C     C_R   0.754058 0.107887 0.159389 -0.132493
C94   C     C_1   0.700880 0.599569 0.898316 -0.016577
C95   C     C_1   0.695680 0.618588 0.855300 -0.060517
C96   C     C_R   0.652396 0.137961 0.386580 -0.004827
C97   C     C_R   0.047668 0.237043 0.949441 0.542949
C98   C     C_R   0.712169 0.561482 0.947694 0.543070
C99   C     C_R   0.722965 0.226381 0.950438 0.545564
C100  C     C_R   0.050604 0.242954 0.087691 0.548686
C101  C     C_R   0.707951 0.575620 0.085849 0.547081
C102  C     C_R   0.719665 0.234290 0.089899 0.547825
C103  C     C_3   0.173809 0.420576 0.126070 -0.294088
C104  C     C_3   0.316300 0.293257 0.361363 -0.255081
C105  C     C_3   0.193644 0.387126 0.371893 -0.418390
Cr1   Cr    Cr6+3 0.417550 0.169090 0.500530 1.005274
Cr2   Cr    Cr6+3 0.669180 0.913420 0.499920 1.013319
Cr3   Cr    Cr6+3 0.413260 0.917540 0.499520 1.015420
Cr4   Cr    Cr6+3 0.909170 0.177380 0.020380 1.016571
Cr5   Cr    Cr6+3 0.912710 0.429210 0.018220 1.009731
Cr6   Cr    Cr6+3 0.657170 0.432570 0.019030 1.018989
H1    H     H_    0.837126 0.673967 0.786016 0.103707
H2    H     H_    0.846227 0.170736 0.779601 0.106067
H3    H     H_    0.863627 0.592773 0.141578 0.125250
H4    H     H_    0.863417 0.503790 0.716422 0.099555
H5    H     H_    0.803386 0.690072 0.381489 0.113038
H6    H     H_    0.945502 0.599893 0.219759 0.094473
H7    H     H_    0.926134 0.626854 0.308299 0.102613
H8    H     H_    0.506844 0.698313 0.130854 0.125476
H9    H     H_    0.388116 0.756488 0.202668 0.106135
H10   H     H_    0.372308 0.770815 0.291233 0.104724
H11   H     H_    0.455729 0.762713 0.368623 0.131533
H12   H     H_    0.233912 0.271828 0.796055 0.105213
H13   H     H_    0.052058 0.086903 0.147759 0.135903
H14   H     H_    0.245934 0.984958 0.374556 0.125942
H15   H     H_    0.084143 0.981081 0.222828 0.105899
H16   H     H_    0.645676 0.837156 0.732894 0.105020
H17   H     H_    0.152510 0.946079 0.307119 0.102401
H18   H     H_    0.356198 0.278967 0.185097 0.151069
H19   H     H_    0.412173 0.254695 0.268539 0.129776
H20   H     H_    0.554539 0.392095 0.150064 0.125732
H21   H     H_    0.517946 0.314902 0.388902 0.102723
H22   H     H_    0.468485 0.470577 0.230146 0.109604
H23   H     H_    0.067914 0.356575 0.721198 0.102316
H24   H     H_    0.460798 0.444695 0.318094 0.106415
H25   H     H_    0.814940 0.035753 0.137557 0.125765
H26   H     H_    0.502563 0.784964 0.792825 0.104431
H27   H     H_    0.895309 0.923890 0.207165 0.108013
H28   H     H_    0.800558 0.971974 0.376011 0.133110
H29   H     H_    0.529731 0.616436 0.723756 0.103435
H30   H     H_    0.724241 0.451635 0.776138 0.101422
H31   H     H_    0.233419 0.974776 0.795827 0.096646
H32   H     H_    0.233110 0.280693 0.077482 0.263551
H33   H     H_    0.109907 0.472498 0.097910 0.156202
H34   H     H_    0.942808 0.273084 0.771883 0.095717
H35   H     H_    0.239940 0.446098 0.126969 0.129934
H36   H     H_    0.130500 0.440655 0.162077 0.141238
H37   H     H_    0.144094 0.414497 0.337448 0.143920
H38   H     H_    0.150943 0.356640 0.397220 0.187342
H39   H     H_    0.193318 0.462739 0.388451 0.122859
H40   H     H_    0.370173 0.275400 0.393708 0.189060
H41   H     H_    0.350609 0.331636 0.336099 0.119563
H42   H     H_    0.992460 0.748142 0.243411 0.147177
H43   H     H_    0.072348 0.821420 0.254002 0.139094
H44   H     H_    0.090252 0.707296 0.293440 0.130442
H45   H     H_    0.510366 0.380217 0.785228 0.104110
H46   H     H_    0.974439 0.891431 0.333890 0.136651
H47   H     H_    0.891661 0.823020 0.322378 0.143535
H48   H     H_    0.145894 0.881692 0.751757 0.145406
H49   H     H_    0.011904 0.985436 0.779174 0.153736
H50   H     H_    0.014453 0.907167 0.725043 0.135820
H51   H     H_    0.964674 0.103486 0.700859 0.144730
H52   H     H_    0.103802 0.000839 0.678582 0.153305
H53   H     H_    0.433637 0.105142 0.810191 0.149854
H54   H     H_    0.409514 0.987285 0.822518 0.150523
H55   H     H_    0.538354 0.960439 0.793519 0.131782
H56   H     H_    0.682569 0.339040 0.715473 0.101646
H57   H     H_    0.413893 0.953736 0.730043 0.146460
H58   H     H_    0.420026 0.082783 0.721249 0.143334
H59   H     H_    0.475394 0.214482 0.738160 0.103386
H60   H     H_    0.646877 0.040433 0.801603 0.101112
H61   H     H_    0.812472 0.000701 0.731481 0.103596
N1    N     N_2   0.227054 0.299286 0.114177 -0.518048
O1    O     O_R   0.301710 0.195650 0.554160 -0.502947
O2    O     O_R   0.635520 0.542770 0.964420 -0.508593
O3    O     O_R   0.665950 0.325030 0.970100 -0.494589
O4    O     O_R   0.522390 0.158990 0.550460 -0.493772
O5    O     O_R   0.816620 0.158530 0.074540 -0.524154
O6    O     O_R   0.004460 0.188870 0.069750 -0.507251
O7    O     O_R   0.025800 0.341780 0.072300 -0.512363
O8    O     O_R   0.807650 0.528950 0.067500 -0.505371
O9    O     O_R   0.633420 0.550490 0.071810 -0.521130
O10   O     O_R   0.664000 0.332180 0.069640 -0.499310
O11   O     O_3   0.826350 0.346390 0.019210 -0.243000
O12   O     O_R   0.658900 0.818120 0.449760 -0.501880
O13   O     O_R   0.694390 0.003530 0.554040 -0.505494
O14   O     O_R   0.657700 0.819660 0.549320 -0.492304
O15   O     O_R   0.501930 0.803280 0.552920 -0.506302
O16   O     O_R   0.318170 0.023580 0.549580 -0.488986
O17   O     O_R   0.303010 0.193990 0.446760 -0.525546
O18   O     O_R   0.523600 0.157450 0.450900 -0.530554
O19   O     O_R   0.695690 0.001860 0.446640 -0.520673
O20   O     O_R   0.503220 0.801620 0.445520 -0.532220
O21   O     O_R   0.319370 0.022040 0.450020 -0.502121
O22   O     O_3   0.499990 0.000010 0.499990 -0.260836
O23   O     O_R   0.818720 0.150820 0.967160 -0.508790
O24   O     O_R   0.006410 0.181720 0.970200 -0.496744
O25   O     O_R   0.027890 0.334070 0.964920 -0.512381
O26   O     O_R   0.809600 0.521790 0.967960 -0.495507

loop_
_geom_bond_atom_site_label_1
_geom_bond_atom_site_label_2
_ccdc_geom_bond_type
C4    H43   S    
C7    H57   S    
C2    C18   T    
C41   C42   A    
Cr4   O24   S    
C19   C20   S    
C87   C88   A    
C93   H25   S    
C16   H23   S    
C103  H33   S    
Cr2   O22   S    
C6    H48   S    
C58   C76   S    
C7    C8    S    
C55   H8    S    
C1    O13   A    
C52   C53   A    
C15   C19   S    
C105  H39   S    
C50   H10   S    
C14   H34   S    
C62   C70   S    
C17   C23   S    
C98   O26   A    
Cr6   O2    S    
C102  O10   A    
C5    H52   S    
C104  H40   S    
C34   O18   A    
C34   C96   S    
C8    H54   S    
C57   H14   S    
C38   C39   A    
C51   C73   S    
C57   C59   A    
C75   N1    S    
C31   H61   S    
C94   C98   S    
C68   C74   A    
C49   C54   A    
Cr2   O14   S    
C103  N1    S    
C17   C20   S    
C40   C73   S    
C13   C23   T    
Cr4   O23   S    
C61   C63   A    
C60   C74   A    
C69   C71   A    
C90   H27   S    
C1    O4    A    
Cr4   O5    S    
C99   O3    A    
C88   C92   A    
Cr5   O8    S    
C69   H19   S    
Cr2   O19   S    
C58   O17   A    
C3    H47   S    
C50   C52   A    
C31   C33   S    
C61   H15   S    
C73   C84   S    
C63   H17   S    
C26   C99   S    
C1    C27   S    
C51   H29   S    
C84   H16   S    
C48   C50   A    
C4    H42   S    
Cr5   O26   S    
Cr5   O11   S    
C25   H45   S    
Cr5   O25   S    
C9    C17   S    
C51   C62   S    
C11   C15   S    
Cr1   O18   S    
C72   C75   A    
C104  C105  S    
C22   O1    A    
C60   C64   A    
C81   H24   S    
C53   C55   A    
C29   H30   S    
C11   C20   S    
C28   C31   S    
C103  H36   S    
Cr6   O3    S    
C32   C35   S    
C97   O24   A    
C24   H56   S    
C24   C25   S    
C72   C74   A    
C8    H53   S    
C91   C92   A    
C86   C87   A    
C45   C101  S    
C47   H11   S    
C39   C43   A    
C77   C78   A    
C105  H37   S    
C12   C21   T    
C58   O21   A    
Cr6   O9    S    
C80   H22   S    
C67   C68   A    
C60   C61   A    
C22   O16   A    
C77   H21   S    
C82   H1    S    
C9    C14   S    
C24   C32   S    
C5    C9    S    
C66   C104  S    
C59   C68   A    
C71   H18   S    
C40   C82   S    
C38   H5    S    
Cr4   O6    S    
C10   O15   A    
C85   C93   A    
Cr2   O13   S    
C6    H50   S    
Cr5   O7    S    
C66   C76   A    
Cr6   O10   S    
C10   O14   A    
Cr1   O1    S    
C32   C37   S    
C86   C96   A    
Cr3   O22   S    
C9    C11   S    
C12   C97   S    
C8    H55   S    
C86   H28   S    
C25   C35   S    
C52   H9    S    
Cr4   O11   S    
C26   C36   T    
C48   C49   A    
C39   C49   A    
C82   C84   S    
C7    H58   S    
C102  O5    A    
C41   C44   A    
C14   C16   S    
Cr3   O16   S    
C42   C43   A    
Cr1   O17   S    
C40   C95   S    
Cr3   O21   S    
C3    C4    S    
C33   H60   S    
C101  O8    A    
C44   C45   A    
C57   C76   A    
C46   O20   A    
C79   C92   A    
C29   C70   S    
C29   C51   S    
C78   C88   A    
C25   C30   S    
C62   C84   S    
Cr1   O4    S    
C30   C33   S    
C83   C85   A    
C91   C93   A    
C97   O25   A    
Cr3   O15   S    
C31   C32   S    
C24   C28   S    
C65   C100  S    
C80   C81   A    
C47   C48   A    
C6    H49   S    
C42   H6    S    
C53   C54   A    
Cr1   O22   S    
C70   H4    S    
C105  H38   S    
Cr2   O12   S    
C77   C96   A    
C59   C63   A    
C5    C6    S    
C65   C75   A    
C30   C36   S    
C3    C89   S    
C64   C65   A    
C104  H41   S    
C87   C89   A    
C83   H20   S    
C89   C90   A    
C19   H12   S    
C71   C72   A    
C64   H13   S    
C5    H51   S    
C79   C83   A    
C98   O2    A    
C78   C81   A    
C90   C91   A    
C16   C17   S    
C73   H26   S    
C34   O19   A    
C10   C18   S    
C16   C19   S    
C99   O23   A    
C29   C40   S    
C28   C30   S    
Cr6   O11   S    
C33   C35   S    
C13   C22   S    
C66   C67   A    
C46   O12   A    
C94   C95   T    
C70   C82   S    
C11   H31   S    
C41   C54   A    
C28   H2    S    
C85   C102  S    
C43   H7    S    
C44   H3    S    
C79   C80   A    
C27   C37   T    
C15   C21   S    
C4    H44   S    
C38   C56   A    
C45   C55   A    
C7    C20   S    
C46   C56   S    
C3    H46   S    
C35   H59   S    
H32   N1    S    
C14   C15   S    
C67   C69   A    
Cr3   O20   S    
C100  O6    A    
C101  O9    A    
C2    C62   S    
C103  H35   S    
C47   C56   A    
C100  O7    A    
