data_mof_unit_43068.cif
_audit_creation_date              2012-12-11T18:44:54-0500
_audit_creation_method            fapswitch 2.2
_symmetry_space_group_name_H-M    P1
_symmetry_Int_Tables_number       1
_space_group_crystal_system       triclinic
_cell_length_a                    8.355288
_cell_length_b                    14.583424
_cell_length_c                    18.666838
_cell_angle_alpha                 96.373829
_cell_angle_beta                  91.455126
_cell_angle_gamma                 92.576318
_cell_volume                      2257.12803066

loop_
_atom_site_label
_atom_site_type_symbol
_atom_type_description
_atom_site_fract_x
_atom_site_fract_y
_atom_site_fract_z
_atom_type_partial_charge
Ba1   Ba    Ba6+2 0.843240 0.541620 0.463500 1.622233
Ba2   Ba    Ba6+2 0.346570 0.458460 0.536510 1.641994
C1    C     C_3   0.621564 0.869349 0.268484 0.105737
C2    C     C_R   0.906001 0.427763 0.104448 0.039790
C3    C     C_R   0.747043 0.398972 0.088014 -0.088907
C4    C     C_3   0.116334 0.725174 0.260458 0.385173
C5    C     C_R   0.678446 0.408780 0.021045 -0.092702
C6    C     C_R   0.768577 0.445051 0.966852 0.045771
C7    C     C_R   0.928338 0.477204 0.984131 -0.019465
C8    C     C_R   0.700879 0.454761 0.897774 0.147245
C9    C     C_R   0.804064 0.477099 0.841410 -0.078485
C10   C     C_R   0.959912 0.516903 0.860931 -0.014532
C11   C     C_R   0.017756 0.520307 0.933414 -0.008656
C12   C     C_3   0.625889 0.774529 0.296617 0.377572
C13   C     C_R   0.758441 0.462762 0.766569 -0.021875
C14   C     C_R   0.864182 0.492473 0.714994 -0.255299
C15   C     C_R   0.010586 0.541052 0.734210 0.038355
C16   C     C_3   0.121988 0.749411 0.182780 -0.064086
C17   C     C_R   0.056702 0.556039 0.808951 -0.036244
C18   C     C_R   0.148665 0.510969 0.074297 -0.001130
C19   C     C_R   0.213978 0.504272 0.144617 -0.008330
C20   C     C_R   0.123191 0.458543 0.194909 -0.067702
C21   C     C_R   0.973311 0.416771 0.171954 -0.038828
C22   C     C_R   0.194325 0.610903 0.834167 -0.074011
C23   C     C_3   0.649975 0.237905 0.308371 0.217040
C24   C     C_R   0.247418 0.617233 0.906886 -0.013212
C25   C     C_R   0.165259 0.566829 0.955456 0.009951
C26   C     C_R   0.231232 0.562425 0.025863 -0.004827
C27   C     C_R   0.384984 0.671330 0.931097 -0.117629
C28   C     C_3   0.140927 0.749472 0.606091 0.368099
C29   C     C_R   0.451189 0.670040 0.001492 0.212015
C30   C     C_R   0.379821 0.608698 0.047374 0.009577
C31   C     C_R   0.368461 0.544094 0.164447 -0.056237
C32   C     C_R   0.451500 0.592780 0.114209 -0.123800
C33   C     C_R   0.434866 0.534156 0.233969 0.014256
C34   C     C_3   0.601660 0.226039 0.228161 -0.047860
C35   C     C_R   0.346508 0.484185 0.281880 -0.228347
C36   C     C_R   0.184737 0.455295 0.266286 0.046191
C37   C     C_R   0.705960 0.936729 0.522680 -0.058669
C38   C     C_R   0.513695 0.800372 0.496091 0.010777
C39   C     C_R   0.370281 0.764284 0.461020 -0.248897
C40   C     C_3   0.084810 0.847646 0.617568 -0.379885
C41   C     C_R   0.263983 0.821929 0.431844 0.015348
C42   C     C_R   0.304997 0.914335 0.431532 -0.146631
C43   C     C_R   0.457827 0.950807 0.455691 -0.009390
C44   C     C_R   0.561201 0.895290 0.492074 -0.059758
C45   C     C_3   0.087538 0.189528 0.740894 0.467741
C46   C     C_R   0.644518 0.086229 0.481551 -0.038970
C47   C     C_R   0.748277 0.030526 0.517955 -0.013142
C48   C     C_R   0.681645 0.183819 0.487194 0.009154
C49   C     C_R   0.811354 0.221777 0.532446 -0.261953
C50   C     C_R   0.920829 0.166111 0.562094 -0.012913
C51   C     C_R   0.890783 0.070172 0.552780 -0.134165
C52   C     C_3   0.022303 0.256291 0.395988 0.327103
C53   C     C_R   0.505112 0.042665 0.445229 0.167378
C54   C     C_3   0.007914 0.150879 0.386586 -0.441066
C55   C     C_3   0.542277 0.748696 0.684733 0.461355
C56   C     C_3   0.181700 0.171043 0.809424 -0.308748
C57   C     C_3   0.485192 0.848136 0.697720 0.011971
C58   C     C_3   0.747092 0.720493 0.778732 -0.195598
C59   C     C_3   0.582768 0.935998 0.812505 -0.267446
C60   C     C_3   0.477459 0.873601 0.217415 -0.384282
C61   C     C_3   0.701318 0.169157 0.110230 -0.267352
C62   C     C_3   0.870863 0.966723 0.265154 -0.217721
C63   C     C_3   0.017826 0.285593 0.756309 -0.297184
C64   C     C_3   0.960515 0.109535 0.725546 -0.395717
C65   C     C_3   0.518478 0.117993 0.649041 -0.115343
C66   C     C_3   0.409677 0.401985 0.898786 -0.166199
C67   C     C_3   0.591323 0.230074 0.755749 0.570511
C68   C     C_3   0.613105 0.815184 0.992725 -0.278898
C69   C     C_3   0.428878 0.455818 0.348013 -0.230984
C70   C     C_3   0.392054 0.063595 0.325734 -0.240820
C71   C     C_3   0.975834 0.739222 0.068056 -0.250236
C72   C     C_3   0.650045 0.216914 0.832348 -0.416351
C73   C     C_R   0.995206 0.471282 0.054018 -0.001529
H1    H     H_    0.722403 0.777086 0.338497 0.100896
H2    H     H_    0.442096 0.704984 0.658865 0.032805
H3    H     H_    0.607813 0.920195 0.316433 0.044390
H4    H     H_    0.372007 0.847235 0.727743 0.075838
H5    H     H_    0.457267 0.872733 0.644866 0.006880
H6    H     H_    0.509472 0.760377 0.321818 -0.080534
H7    H     H_    0.738584 0.295817 0.318904 0.081710
H8    H     H_    0.699678 0.173132 0.320749 -0.008315
H9    H     H_    0.509741 0.168491 0.217299 0.084128
H10   H     H_    0.547518 0.290136 0.214099 0.077534
H11   H     H_    0.230976 0.721277 0.157860 0.050690
H12   H     H_    0.166248 0.892177 0.655753 0.086860
H13   H     H_    0.276236 0.225490 0.824413 0.137281
H14   H     H_    0.101626 0.170372 0.856080 0.047813
H15   H     H_    0.237278 0.103063 0.801353 0.101374
H16   H     H_    0.695318 0.243859 0.722552 -0.075065
H17   H     H_    0.711003 0.280492 0.859179 0.088697
H18   H     H_    0.734743 0.161321 0.831661 0.077756
H19   H     H_    0.054373 0.656321 0.261658 0.067679
H20   H     H_    0.548583 0.196232 0.865220 0.093803
H21   H     H_    0.673373 0.371254 0.127980 0.082812
H22   H     H_    0.555557 0.384920 0.013371 0.076524
H23   H     H_    0.082543 0.877197 0.565364 0.077722
H24   H     H_    0.828403 0.481134 0.658487 0.079589
H25   H     H_    0.905318 0.375879 0.206219 0.116953
H26   H     H_    0.262095 0.648633 0.797597 0.089234
H27   H     H_    0.443222 0.712501 0.893671 0.081860
H28   H     H_    0.574177 0.615843 0.126252 0.121050
H29   H     H_    0.242131 0.721173 0.280453 -0.120979
H30   H     H_    0.335394 0.691901 0.461007 0.059941
H31   H     H_    0.214545 0.956806 0.411990 0.072669
H32   H     H_    0.976838 0.026644 0.574383 0.064269
H33   H     H_    0.835381 0.295818 0.540024 0.059086
H34   H     H_    0.962975 0.847514 0.639830 0.126514
H35   H     H_    0.783989 0.897840 0.553240 0.104087
H36   H     H_    0.130546 0.825727 0.182800 0.102201
H37   H     H_    0.262757 0.751386 0.585631 -0.123340
H38   H     H_    0.061586 0.710419 0.564345 0.109166
H39   H     H_    0.529050 0.649117 0.757417 0.190532
H40   H     H_    0.756694 0.692080 0.831378 0.078365
H41   H     H_    0.794973 0.792929 0.786044 0.118414
H42   H     H_    0.822032 0.680814 0.739738 0.117115
H43   H     H_    0.719565 0.909782 0.718668 0.209874
H44   H     H_    0.678879 0.986917 0.834920 0.098538
H45   H     H_    0.913246 0.284843 0.419714 -0.038538
H46   H     H_    0.587190 0.873743 0.841166 0.124144
H47   H     H_    0.464926 0.966670 0.822176 0.103384
H48   H     H_    0.366485 0.865227 0.247424 0.077787
H49   H     H_    0.478549 0.941276 0.195358 0.114826
H50   H     H_    0.477932 0.818246 0.171839 0.132115
H51   H     H_    0.828311 0.172211 0.207291 0.206924
H52   H     H_    0.810877 0.172011 0.077964 0.116577
H53   H     H_    0.608703 0.209397 0.085763 0.111662
H54   H     H_    0.656461 0.096004 0.108514 0.108405
H55   H     H_    0.820146 0.838807 0.201721 0.269878
H56   H     H_    0.125508 0.278199 0.432881 0.110984
H57   H     H_    0.978704 0.974755 0.232439 0.097888
H58   H     H_    0.908688 0.953149 0.320293 0.145432
H59   H     H_    0.806666 0.031752 0.268159 0.093222
H60   H     H_    0.937589 0.301022 0.711647 0.021515
H61   H     H_    0.951704 0.291302 0.807032 0.047306
H62   H     H_    0.116494 0.339754 0.762176 0.124880
H63   H     H_    0.859421 0.129781 0.693204 0.072664
H64   H     H_    0.015231 0.048692 0.696639 0.104449
H65   H     H_    0.913431 0.085293 0.775338 0.085956
H66   H     H_    0.497526 0.091504 0.755290 0.185756
H67   H     H_    0.883446 0.124107 0.378912 0.071438
H68   H     H_    0.413788 0.071947 0.628907 0.132641
H69   H     H_    0.626159 0.077698 0.641303 0.054949
H70   H     H_    0.524325 0.178987 0.618401 0.133578
H71   H     H_    0.507133 0.527723 0.865946 0.215560
H72   H     H_    0.321714 0.398796 0.853160 0.143312
H73   H     H_    0.343244 0.418644 0.948462 0.082466
H74   H     H_    0.458666 0.333740 0.901325 0.095840
H75   H     H_    0.608259 0.741354 0.080996 0.210290
H76   H     H_    0.698442 0.863333 0.026476 0.106403
H77   H     H_    0.499418 0.850846 0.987051 0.107811
H78   H     H_    0.050396 0.123407 0.435846 0.093189
H79   H     H_    0.667524 0.798780 0.939591 0.115310
H80   H     H_    0.375724 0.390181 0.361932 0.127820
H81   H     H_    0.556178 0.441618 0.338273 0.129869
H82   H     H_    0.417013 0.509058 0.394523 0.139360
H83   H     H_    0.298911 0.106323 0.425365 0.223544
H84   H     H_    0.331067 0.116608 0.298469 0.132394
H85   H     H_    0.318384 0.998844 0.313791 0.082333
H86   H     H_    0.511784 0.055804 0.302857 0.109834
H87   H     H_    0.959537 0.641830 0.141459 0.221384
H88   H     H_    0.885721 0.694716 0.034171 0.143199
H89   H     H_    0.076453 0.122078 0.340122 0.127593
H90   H     H_    0.093466 0.732498 0.042200 0.106557
H91   H     H_    0.943354 0.812370 0.070569 0.115856
N1    N     N_2   0.581161 0.713520 0.753026 -0.444510
N2    N     N_2   0.603470 0.912793 0.735915 -0.421629
N3    N     N_2   0.739462 0.206967 0.183947 -0.442618
N4    N     N_2   0.766518 0.891792 0.231449 -0.409006
N5    N     N_2   0.503687 0.146021 0.724819 -0.395467
N6    N     N_2   0.534940 0.472628 0.892726 -0.421303
N7    N     N_2   0.585730 0.731116 0.026305 -0.434462
N8    N     N_2   0.405930 0.092805 0.402392 -0.397707
N9    N     N_2   0.982496 0.711570 0.140081 -0.412828
O1    O     O_2   0.887710 0.436190 0.327560 -0.481893
O2    O     O_2   0.240532 0.177510 0.549953 -0.496722
O3    O     O_3   0.196188 0.188111 0.683838 -0.542910
O4    O     O_3   0.135370 0.443490 0.416520 -0.507291
O5    O     O_3   0.551980 0.615210 0.532020 -0.477153
O6    O     O_2   0.394410 0.269100 0.474240 -0.432717
O7    O     O_3   0.515046 0.254804 0.349395 -0.636374
O8    O     O_2   0.432644 0.469961 0.748697 -0.475615
O9    O     O_3   0.484894 0.302360 0.759824 -0.573932
O10   O     O_3   0.634420 0.609440 0.364670 -0.496367
O11   O     O_2   0.772588 0.545345 0.244488 -0.488733
O12   O     O_3   0.674830 0.744178 0.640103 -0.631895
O13   O     O_3   0.043984 0.288343 0.328969 -0.648700
O14   O     O_3   0.654793 0.706084 0.240142 -0.620005
O15   O     O_2   0.795290 0.730930 0.525800 -0.458411
O16   O     O_3   0.044470 0.660110 0.398750 -0.482590
O17   O     O_2   0.929686 0.824255 0.434037 -0.508831
O18   O     O_3   0.036905 0.793483 0.303245 -0.611978
O19   O     O_2   0.301980 0.563840 0.672490 -0.461307
O20   O     O_3   0.054330 0.556590 0.583490 -0.498734
O21   O     O_3   0.555270 0.390630 0.635330 -0.450182
O22   O     O_3   0.142832 0.712153 0.672287 -0.663213
O23   O     O_3   0.637720 0.384870 0.467990 -0.476765
O24   O     O_3   0.145220 0.339960 0.601250 -0.454392
P1    P     P_3+3 0.061800 0.409390 0.339760 0.957341
P2    P     P_3+3 0.622760 0.718740 0.547830 0.961993
P3    P     P_3+3 0.068528 0.777084 0.393811 0.923429
P4    P     P_3+3 0.127890 0.590690 0.660240 0.970388
P5    P     P_3+3 0.115880 0.218976 0.601742 0.949489
P6    P     P_3+3 0.624272 0.597340 0.270156 0.932226
P7    P     P_3+3 0.567021 0.269608 0.441939 0.949671
P8    P     P_3+3 0.566083 0.403699 0.729245 0.967211

loop_
_geom_bond_atom_site_label_1
_geom_bond_atom_site_label_2
_ccdc_geom_bond_type
C46   C53   A    
Ba1   O1    S    
O20   P4    S    
C52   H45   S    
C59   H44   S    
O8    P8    D    
Ba1   O23   S    
Ba1   P2    S    
C60   H49   S    
C5    C6    A    
C43   C44   A    
C50   C51   A    
C38   C44   A    
C52   H56   S    
C34   N3    S    
C16   H11   S    
C70   H84   S    
C39   H30   S    
C33   C35   A    
C40   H34   S    
C22   C24   A    
Ba1   Ba2   S    
C45   O3    S    
O3    P5    S    
C40   H23   S    
Ba1   O5    S    
C55   C57   S    
C19   C31   A    
O4    P1    S    
O13   P1    S    
C8    N6    S    
C13   C14   A    
C20   C36   A    
H66   N5    S    
C59   H46   S    
Ba2   O20   S    
C67   N5    S    
C72   H17   S    
C15   P4    S    
C7    C11   A    
C2    C73   A    
C66   H74   S    
C15   C17   A    
C12   O14   S    
C9    C13   A    
C33   P6    S    
C37   H35   S    
C64   H64   S    
C62   H57   S    
O14   P6    S    
C14   C15   A    
C4    H19   S    
C65   H70   S    
C54   H78   S    
C70   H86   S    
C42   H31   S    
O16   P3    S    
C4    H29   S    
C45   C64   S    
C61   H53   S    
C66   H73   S    
C28   H38   S    
C63   H62   S    
C16   N9    S    
C46   C48   A    
C21   H25   S    
C65   H68   S    
C52   O13   S    
C19   C20   A    
C39   C41   A    
C72   H18   S    
Ba2   O5    S    
O1    P1    D    
C4    C16   S    
C65   H69   S    
C60   H48   S    
C56   H14   S    
H83   N8    S    
C48   C49   A    
C62   H59   S    
C67   C72   S    
C69   H82   S    
C52   C54   S    
C58   N1    S    
C68   H76   S    
C49   C50   A    
O10   P6    S    
H39   N1    S    
C68   H77   S    
C16   H36   S    
C71   H90   S    
O5    P2    S    
C57   H4    S    
C3    C5    A    
C2    C21   A    
C6    C7    A    
H87   N9    S    
C18   C26   A    
C65   N5    S    
O18   P3    S    
Ba2   O24   S    
C18   C73   A    
C28   H37   S    
C59   H47   S    
Ba2   O19   S    
Ba2   O6    S    
C30   C32   A    
C71   N9    S    
C41   C42   A    
C53   N8    S    
C35   C36   A    
C55   H2    S    
O23   P7    S    
C51   H32   S    
C29   C30   A    
C64   H63   S    
C38   P2    S    
C26   C30   A    
C69   H80   S    
H75   N7    S    
C41   P3    S    
C31   C32   A    
C24   C25   A    
O2    P5    D    
C58   H42   S    
O15   P2    D    
C10   C11   A    
C56   H15   S    
C63   H60   S    
C66   H72   S    
C37   C44   A    
Ba1   O16   S    
C6    C8    A    
C46   C47   A    
C37   C47   A    
H71   N6    S    
C49   H33   S    
C70   N8    S    
C67   O9    S    
C35   C69   S    
O24   P5    S    
C36   P1    S    
C58   H41   S    
Ba1   P1    S    
C1    C12   S    
Ba2   O4    S    
O19   P4    D    
C48   P7    S    
C68   H79   S    
C3    H21   S    
C42   C43   A    
C29   N7    S    
C1    C60   S    
O12   P2    S    
C62   H58   S    
C38   C39   A    
C5    H22   S    
O11   P6    D    
Ba1   O20   S    
Ba2   O23   S    
C72   H20   S    
C14   H24   S    
C28   C40   S    
Ba2   P4    S    
C2    C3    A    
C56   H13   S    
C57   H5    S    
C60   H50   S    
C9    C10   A    
C1    N4    S    
C55   N1    S    
Ba1   O10   S    
C34   H10   S    
C54   H89   S    
H55   N4    S    
C32   H28   S    
C70   H85   S    
C22   H26   S    
C59   N2    S    
O7    P7    S    
O21   P8    S    
C17   C22   A    
C54   H67   S    
O9    P8    S    
C71   H88   S    
H51   N3    S    
Ba1   O15   S    
C45   C56   S    
Ba1   O4    S    
C23   H7    S    
C34   H9    S    
C47   C51   A    
C69   H81   S    
C10   C17   A    
H43   N2    S    
C31   C33   A    
C27   H27   S    
O22   P4    S    
Ba2   O21   S    
C61   H54   S    
O6    P7    D    
C62   N4    S    
C71   H91   S    
C68   N7    S    
C61   H52   S    
C55   O12   S    
C63   H61   S    
C61   N3    S    
C8    C9    A    
C23   C34   S    
C28   O22   S    
C64   H65   S    
C18   C19   A    
C43   C53   A    
C24   C27   A    
C27   C29   A    
C25   C26   A    
C23   H8    S    
O17   P3    D    
C20   C21   A    
C11   C25   A    
C58   H40   S    
C40   H12   S    
C7    C73   A    
C12   H6    S    
C50   P5    S    
C67   H16   S    
C1    H3    S    
C45   C63   S    
C4    O18   S    
C13   P8    S    
C57   N2    S    
C66   N6    S    
C12   H1    S    
C23   O7    S    
