data_mof_unit_7088.cif
_audit_creation_date              2012-12-10T17:19:57-0500
_audit_creation_method            fapswitch 2.2
_symmetry_space_group_name_H-M    P1
_symmetry_Int_Tables_number       1
_space_group_crystal_system       triclinic
_cell_length_a                    9.589328
_cell_length_b                    10.863521
_cell_length_c                    15.412945
_cell_angle_alpha                 86.736211
_cell_angle_beta                  73.832059
_cell_angle_gamma                 91.286396
_cell_volume                      1538.39283481

loop_
_atom_site_label
_atom_site_type_symbol
_atom_type_description
_atom_site_fract_x
_atom_site_fract_y
_atom_site_fract_z
_atom_type_partial_charge
C1    C     C_R   0.995190 0.262246 0.507376 0.810901
C2    C     C_R   0.242085 0.610184 0.045480 0.124367
C3    C     C_R   0.337501 0.561902 0.092960 0.088412
C4    C     C_R   0.917944 0.505156 0.672054 0.842178
C5    C     C_R   0.094215 0.620289 0.090287 -0.202438
C6    C     C_R   0.039135 0.579851 0.181216 -0.210636
C7    C     C_R   0.278423 0.517109 0.183591 -0.234677
C8    C     C_R   0.147689 0.113355 0.620546 -0.003772
C9    C     C_R   0.267894 0.059519 0.638928 -0.170236
C10   C     C_R   0.316976 0.950318 0.601287 -0.143568
C11   C     C_R   0.237438 0.887954 0.553236 -0.167965
C12   C     C_R   0.683888 0.557994 0.907601 0.105166
C13   C     C_R   0.111330 0.938707 0.536130 0.089155
C14   C     C_R   0.082358 0.061831 0.558078 0.063024
C15   C     C_R   0.987137 0.127420 0.518329 -0.116074
C16   C     C_R   0.003253 0.738279 0.499187 0.777957
C17   C     C_R   0.896187 0.063835 0.477969 -0.194419
C18   C     C_R   0.903335 0.937488 0.472963 -0.193829
C19   C     C_R   0.010419 0.873224 0.500514 -0.098520
C20   C     C_R   0.703589 0.662700 0.376586 -0.168511
C21   C     C_R   0.660397 0.742390 0.316172 -0.227852
C22   C     C_R   0.516279 0.743734 0.317022 -0.197799
C23   C     C_R   0.784904 0.536053 0.958045 0.161252
C24   C     C_R   0.414589 0.665053 0.378046 -0.178842
C25   C     C_R   0.454161 0.580778 0.439790 0.197601
C26   C     C_R   0.603925 0.580207 0.439457 0.225515
C27   C     C_R   0.546176 0.423632 0.557704 -0.050121
C28   C     C_R   0.082701 0.504515 0.327478 0.779575
C29   C     C_R   0.398266 0.423725 0.557692 -0.049698
C30   C     C_R   0.873926 0.518960 0.770294 -0.044724
C31   C     C_R   0.131450 0.528991 0.228617 -0.048042
C32   C     C_R   0.930908 0.517372 0.913638 -0.208271
C33   C     C_R   0.976133 0.513545 0.819955 -0.140506
C34   C     C_R   0.538421 0.585861 0.952982 0.014381
C35   C     C_R   0.728297 0.538538 0.814866 -0.208321
C36   C     C_1   0.071833 0.198297 0.683647 0.213261
C37   C     C_R   0.488404 0.559317 0.048404 0.038571
C38   C     C_R   0.591660 0.535853 0.096778 -0.199654
C39   C     C_R   0.737965 0.528413 0.052168 -0.228105
C40   C     C_R   0.442105 0.642674 0.908481 0.122492
C41   C     C_R   0.295956 0.652540 0.954902 -0.249838
Cu1   Cu    Cu3+1 0.140660 0.499990 0.500010 0.939409
Cu2   Cu    Cu3+1 0.859340 0.500010 0.499990 0.948701
H1    H     H_    0.813400 0.510318 0.091692 0.149606
H2    H     H_    0.739534 0.804119 0.268707 0.154552
H3    H     H_    0.344893 0.471909 0.220811 0.153528
H4    H     H_    0.482600 0.806685 0.270347 0.160400
H5    H     H_    0.306449 0.675250 0.374422 0.198595
H6    H     H_    0.320342 0.361453 0.605097 0.137808
H7    H     H_    0.925679 0.591964 0.214908 0.150787
H8    H     H_    0.224199 0.696412 0.920284 0.173640
H9    H     H_    0.009529 0.502628 0.951357 0.145990
H10   H     H_    0.089662 0.499668 0.787115 0.169275
H11   H     H_    0.648557 0.532040 0.777738 0.182938
H12   H     H_    0.021760 0.662222 0.055431 0.140578
H13   H     H_    0.563344 0.527901 0.169730 0.154054
H14   H     H_    0.820365 0.112129 0.449018 0.164877
H15   H     H_    0.320323 0.099578 0.685170 0.146455
H16   H     H_    0.412237 0.909860 0.613871 0.179771
H17   H     H_    0.282723 0.803342 0.528369 0.184309
H18   H     H_    0.827565 0.890430 0.444229 0.161600
H19   H     H_    0.578674 0.360988 0.604960 0.138290
H20   H     H_    0.816313 0.669953 0.371102 0.189615
I1    I     I_    0.506582 0.749933 0.782018 -0.438980
N1    N     N_R   0.648320 0.501210 0.499140 -0.197465
N2    N     N_R   0.352470 0.501290 0.499110 -0.201367
N3    N     N_1   0.009664 0.262857 0.736872 -0.306175
O1    O     O_R   0.118810 0.319640 0.500010 -0.570998
O2    O     O_R   0.881240 0.319660 0.500000 -0.579190
O3    O     O_R   0.055570 0.499980 0.629840 -0.576206
O4    O     O_R   0.818000 0.500010 0.629830 -0.575655
O5    O     O_R   0.118760 0.680340 0.500000 -0.620812
O6    O     O_R   0.881190 0.680360 0.499990 -0.583319
O7    O     O_R   0.182000 0.499990 0.370170 -0.595086
O8    O     O_R   0.944430 0.500020 0.370160 -0.596918

loop_
_geom_bond_atom_site_label_1
_geom_bond_atom_site_label_2
_ccdc_geom_bond_type
Cu2   O6    S    
C27   C29   A    
C34   C37   A    
C16   O5    A    
C28   O7    A    
C4    O3    A    
C36   N3    T    
C29   H6    S    
C12   C23   A    
C30   C35   A    
C34   C40   A    
C18   C19   A    
C3    C7    A    
C5    C6    A    
C2    C41   A    
Cu1   O3    S    
C1    O1    A    
C9    H15   S    
C8    C36   S    
C32   H9    S    
C8    C9    A    
C8    C14   A    
C1    C15   S    
C9    C10   A    
C6    C31   A    
Cu2   O2    S    
C13   C14   A    
C35   H11   S    
Cu1   O1    S    
C21   H2    S    
C33   H10   S    
Cu1   O7    S    
C7    C31   A    
C13   C19   A    
C16   O6    A    
C24   H5    S    
C7    H3    S    
C24   C25   A    
C25   C26   A    
C1    O2    A    
C37   C38   A    
C27   N1    A    
C27   H19   S    
Cu2   N1    S    
Cu1   O5    S    
C17   C18   A    
C6    H7    S    
C12   C35   A    
C40   C41   A    
C22   C24   A    
C2    C5    A    
Cu1   Cu2   S    
C12   C34   A    
C11   H17   S    
Cu2   O8    S    
C15   C17   A    
Cu2   O4    S    
C30   C33   A    
C26   N1    A    
C5    H12   S    
C28   C31   S    
C25   N2    A    
C18   H18   S    
C39   H1    S    
C40   I1    S    
C23   C32   A    
C20   H20   S    
C2    C3    A    
C32   C33   A    
C11   C13   A    
C38   C39   A    
C20   C26   A    
C16   C19   S    
C23   C39   A    
C22   H4    S    
C10   C11   A    
C29   N2    A    
C38   H13   S    
C20   C21   A    
C3    C37   A    
Cu1   N2    S    
C14   C15   A    
C21   C22   A    
C28   O8    A    
C10   H16   S    
C41   H8    S    
C4    O4    A    
C4    C30   S    
C17   H14   S    
