data_mof_unit_42004.cif
_audit_creation_date              2012-12-11T14:21:05-0500
_audit_creation_method            fapswitch 2.2
_symmetry_space_group_name_H-M    P1
_symmetry_Int_Tables_number       1
_space_group_crystal_system       triclinic
_cell_length_a                    11.644993
_cell_length_b                    11.626401
_cell_length_c                    19.519391
_cell_angle_alpha                 90.17396
_cell_angle_beta                  89.863487
_cell_angle_gamma                 59.896506
_cell_volume                      2286.23641646

loop_
_atom_site_label
_atom_site_type_symbol
_atom_type_description
_atom_site_fract_x
_atom_site_fract_y
_atom_site_fract_z
_atom_type_partial_charge
C1    C     C_R   0.616609 0.086874 0.606264 0.544340
C2    C     C_1   0.626826 0.116235 0.676854 0.004423
C3    C     C_R   0.669034 0.655968 0.195854 -0.015636
C4    C     C_R   0.612005 0.746504 0.598536 0.541224
C5    C     C_R   0.541522 0.740153 0.222572 -0.072096
C6    C     C_R   0.522646 0.723318 0.291759 -0.021032
C7    C     C_R   0.760183 0.596901 0.310865 0.272048
C8    C     C_R   0.769909 0.570488 0.241618 0.339512
C9    C     C_R   0.430381 0.808347 0.179881 -0.159611
C10   C     C_R   0.308800 0.824871 0.200551 -0.118224
C11   C     C_R   0.295936 0.779217 0.264558 0.311326
C12   C     C_1   0.640595 0.704271 0.667934 0.010144
C13   C     C_R   0.402914 0.725339 0.310130 0.336570
C14   C     C_R   0.634445 0.681121 0.335986 -0.030980
C15   C     C_R   0.152951 0.179253 0.190467 -0.040895
C16   C     C_R   0.241558 0.144945 0.598116 0.538261
C17   C     C_R   0.230393 0.229614 0.216775 -0.069067
C18   C     C_R   0.220373 0.257621 0.287603 -0.012112
C19   C     C_R   0.126409 0.112580 0.305900 0.263577
C20   C     C_R   0.103326 0.117773 0.236054 0.282768
C21   C     C_R   0.298686 0.272928 0.172941 0.246079
C22   C     C_R   0.324753 0.370175 0.195902 -0.061396
C23   C     C_1   0.126673 0.199368 0.859444 0.010541
C24   C     C_R   0.292532 0.418055 0.262432 -0.063687
C25   C     C_R   0.238205 0.366158 0.308291 0.323007
C26   C     C_R   0.188709 0.178374 0.332230 -0.017214
C27   C     C_R   0.656940 0.183628 0.188753 0.053004
C28   C     C_R   0.622902 0.081637 0.394365 0.519663
C29   C     C_R   0.692025 0.051988 0.202885 0.002775
C30   C     C_R   0.704643 0.010799 0.271842 -0.022970
C31   C     C_R   0.595569 0.243166 0.307077 -0.082194
C32   C     C_R   0.609192 0.278592 0.241601 0.210010
C33   C     C_R   0.732242 0.957495 0.149600 -0.132769
C34   C     C_1   0.172006 0.169999 0.727769 -0.025927
C35   C     C_R   0.818481 0.825283 0.163360 -0.085970
C36   C     C_R   0.855364 0.785899 0.230452 0.270565
C37   C     C_R   0.789815 0.873997 0.285133 -0.038237
C38   C     C_R   0.642850 0.110319 0.323693 -0.027777
C39   C     C_R   0.081223 0.231625 0.928685 0.539902
C40   C     C_R   0.614053 0.738568 0.403330 0.517984
C41   C     C_R   0.683993 0.604124 0.929633 0.527876
C42   C     C_R   0.707571 0.205873 0.930824 0.535048
C43   C     C_R   0.087037 0.231055 0.123806 0.621830
C44   C     C_R   0.683051 0.611493 0.125343 0.573756
C45   C     C_1   0.150454 0.182526 0.799066 -0.027642
C46   C     C_R   0.705926 0.211368 0.125780 0.617812
C47   C     C_R   0.246371 0.142693 0.400780 0.517298
C48   C     C_1   0.670362 0.646680 0.860274 0.009122
C49   C     C_1   0.654258 0.684073 0.728441 -0.027585
C50   C     C_1   0.663201 0.667085 0.799767 -0.028303
C51   C     C_1   0.195853 0.160359 0.667358 0.010743
C52   C     C_1   0.669667 0.182478 0.864517 0.009908
C53   C     C_1   0.635331 0.138408 0.736542 -0.025074
C54   C     C_1   0.649578 0.162585 0.806214 -0.024902
Cl1   Cl    Cl    0.156549 0.472477 0.379190 -0.392422
Cl2   Cl    Cl    0.566141 0.443955 0.229414 -0.596754
Cl3   Cl    Cl    0.992804 0.629469 0.243121 -0.480946
Cl4   Cl    Cl    0.876334 0.406263 0.221253 -0.456634
Cl5   Cl    Cl    0.148414 0.781263 0.285456 -0.389677
Cl6   Cl    Cl    0.399176 0.622475 0.376408 -0.474548
Cl7   Cl    Cl    0.992045 0.064292 0.212672 -0.449078
Cr1   Cr    Cr6+3 0.404720 0.198220 0.499960 1.110234
Cr2   Cr    Cr6+3 0.698290 0.897110 0.500380 1.080450
Cr3   Cr    Cr6+3 0.396970 0.904720 0.499610 1.101843
Cr4   Cr    Cr6+3 0.926180 0.151990 0.028120 1.077117
Cr5   Cr    Cr6+3 0.921330 0.451820 0.027470 1.088068
Cr6   Cr    Cr6+3 0.626260 0.446870 0.028710 1.085646
H1    H     H_    0.367271 0.411308 0.161189 0.187942
H2    H     H_    0.056858 0.094790 0.393846 0.342836
H3    H     H_    0.343605 0.136892 0.103678 0.301774
H4    H     H_    0.305040 0.500386 0.277617 0.242375
H5    H     H_    0.553753 0.320184 0.346036 0.212450
H6    H     H_    0.709933 0.987205 0.096519 0.124701
H7    H     H_    0.863851 0.755403 0.121449 0.151248
H8    H     H_    0.816766 0.836408 0.336463 0.204535
H9    H     H_    0.440960 0.832961 0.127633 0.123176
H10   H     H_    0.228237 0.862824 0.164228 0.177397
H11   H     H_    0.840678 0.534417 0.400992 0.341059
O1    O     O_R   0.267740 0.231960 0.575440 -0.493368
O2    O     O_R   0.596130 0.579390 0.952730 -0.512354
O3    O     O_R   0.639060 0.321160 0.958670 -0.497688
O4    O     O_R   0.527280 0.186640 0.570530 -0.470548
O5    O     O_R   0.821240 0.124200 0.104370 -0.459484
O6    O     O_R   0.036890 0.167040 0.097840 -0.469610
O7    O     O_R   0.056180 0.349610 0.102880 -0.419621
O8    O     O_R   0.797660 0.564870 0.097950 -0.485837
O9    O     O_R   0.595880 0.584250 0.104270 -0.459336
O10   O     O_R   0.638830 0.325670 0.099150 -0.456317
O11   O     O_3   0.824590 0.350230 0.028100 -0.265344
O12   O     O_R   0.685970 0.784660 0.430010 -0.525856
O13   O     O_R   0.728090 0.003450 0.576380 -0.478113
O14   O     O_R   0.682970 0.789190 0.570490 -0.507588
O15   O     O_R   0.499290 0.771880 0.575530 -0.483398
O16   O     O_R   0.285330 0.030870 0.569730 -0.493116
O17   O     O_R   0.270980 0.227080 0.423890 -0.465287
O18   O     O_R   0.530280 0.182120 0.430050 -0.481127
O19   O     O_R   0.731330 0.998570 0.424830 -0.466196
O20   O     O_3   0.868889 0.523146 0.352393 -0.575768
O21   O     O_3   0.075694 0.052735 0.347854 -0.572926
O22   O     O_3   0.339155 0.224062 0.107395 -0.700404
O23   O     O_R   0.502530 0.767000 0.423990 -0.453071
O24   O     O_R   0.288330 0.026350 0.429250 -0.488252
O25   O     O_3   0.499990 0.000020 0.499980 -0.328488
O26   O     O_R   0.821500 0.119340 0.952830 -0.517598
O27   O     O_R   0.037130 0.162530 0.957360 -0.508295
O28   O     O_R   0.056440 0.344740 0.951340 -0.499731
O29   O     O_R   0.797900 0.560360 0.957470 -0.507894

loop_
_geom_bond_atom_site_label_1
_geom_bond_atom_site_label_2
_ccdc_geom_bond_type
C28   O19   A    
C39   O28   A    
C35   H7    S    
C23   C45   T    
C7    O20   S    
Cr1   O18   S    
C27   C29   A    
C19   C20   A    
C18   C26   A    
C16   C51   S    
Cr5   O29   S    
Cr5   O7    S    
C12   C49   T    
C7    C8    A    
C13   Cl6   S    
C53   C54   S    
Cr4   O11   S    
C42   O3    A    
Cr6   O10   S    
C36   C37   A    
Cr3   O15   S    
C5    C6    A    
C44   O8    A    
Cr4   O5    S    
C29   C33   A    
Cr6   O11   S    
C30   C38   A    
C15   C17   A    
C1    C2    S    
C20   Cl7   S    
C19   C26   A    
C8    Cl4   S    
C40   O23   A    
C7    C14   A    
C35   C36   A    
H3    O22   S    
Cr2   O14   S    
H11   O20   S    
C9    H9    S    
C4    C12   S    
C44   O9    A    
C9    C10   A    
C48   C50   T    
Cr1   O4    S    
C1    O13   A    
C47   O24   A    
C21   C22   A    
C43   O6    A    
Cr3   O16   S    
Cr3   O23   S    
C18   C25   A    
Cr5   O28   S    
C11   Cl5   S    
Cr4   O27   S    
C10   H10   S    
C52   C54   T    
Cr5   O11   S    
C46   O10   A    
C15   C20   A    
C3    C44   S    
C43   O7    A    
Cr1   O1    S    
C24   C25   A    
Cr2   O25   S    
C3    C8    A    
C21   O22   S    
C19   O21   S    
Cr4   O6    S    
C1    O4    A    
C17   C21   A    
C4    O15   A    
C30   C37   A    
Cr3   O24   S    
C5    C9    A    
C29   C30   A    
C6    C14   A    
C31   C32   A    
C28   C38   S    
C17   C18   A    
C34   C51   T    
C34   C45   S    
C22   H1    S    
C26   C47   S    
H2    O21   S    
C27   C46   S    
C33   H6    S    
C31   H5    S    
Cr6   O3    S    
C22   C24   A    
C36   Cl3   S    
Cr1   O25   S    
C39   O27   A    
C41   O29   A    
C27   C32   A    
C16   O16   A    
Cr6   O2    S    
C25   Cl1   S    
C3    C5    A    
C2    C53   T    
C42   O26   A    
Cr5   O8    S    
Cr6   O9    S    
C31   C38   A    
C28   O18   A    
C16   O1    A    
C15   C43   S    
Cr2   O19   S    
C6    C13   A    
C11   C13   A    
C23   C39   S    
Cr2   O12   S    
C33   C35   A    
C41   C48   S    
C37   H8    S    
Cr3   O25   S    
C10   C11   A    
C14   C40   S    
C46   O5    A    
C49   C50   S    
Cr2   O13   S    
C47   O17   A    
C41   O2    A    
Cr4   O26   S    
C40   O12   A    
Cr1   O17   S    
C32   Cl2   S    
C24   H4    S    
C42   C52   S    
C4    O14   A    
