data_mof_unit_11962.cif
_audit_creation_date              2013-03-05T15:49:04-0500
_audit_creation_method            fapswitch 2.2
_symmetry_space_group_name_H-M    P1
_symmetry_Int_Tables_number       1
_space_group_crystal_system       triclinic
_cell_length_a                    10.684582
_cell_length_b                    13.041193
_cell_length_c                    11.806645
_cell_angle_alpha                 100.818311
_cell_angle_beta                  94.211143
_cell_angle_gamma                 92.677596
_cell_volume                      1608.45691622

loop_
_atom_site_label
_atom_site_type_symbol
_atom_site_description
_atom_site_fract_x
_atom_site_fract_y
_atom_site_fract_z
_atom_type_partial_charge
O1    O     O_R   0.506670 0.354460 0.582000 -0.576126
O2    O     O_R   0.493330 0.645540 0.418000 -0.576126
O3    O     O_R   0.490800 0.341410 0.386200 -0.564052
O4    O     O_R   0.509200 0.658590 0.613800 -0.564043
C1    C     C_R   0.504946 0.299082 0.477030 0.870129
C2    C     C_R   0.495055 0.700918 0.522970 0.870135
O5    O     O_R   0.324790 0.506500 0.597880 -0.542841
O6    O     O_R   0.675210 0.493500 0.402120 -0.542843
O7    O     O_R   0.308910 0.493440 0.402080 -0.527032
O8    O     O_R   0.691090 0.506560 0.597920 -0.527031
C3    C     C_R   0.259915 0.501235 0.499594 0.933927
C4    C     C_R   0.740085 0.498765 0.500406 0.933926
Cu1   Cu    Cu3+1 0.509400 0.507730 0.615930 1.109537
Cu2   Cu    Cu3+1 0.490600 0.492270 0.384070 1.109533
C5    C     C_3   0.044389 0.418654 0.544639 -0.293490
C6    C     C_3   0.955611 0.581346 0.455361 -0.293492
C7    C     C_3   0.949638 0.410493 0.437485 0.251165
C8    C     C_3   0.050361 0.589507 0.562515 0.251167
H1    H     H_    0.080603 0.351542 0.579763 0.247340
H2    H     H_    0.919396 0.648458 0.420237 0.247340
C9    C     C_3   0.876227 0.498212 0.502191 -0.281719
C10   C     C_3   0.123772 0.501788 0.497808 -0.281720
C11   C     C_3   0.971075 0.508137 0.608696 0.307386
C12   C     C_3   0.028925 0.491863 0.391303 0.307384
C13   C     C_R   0.486367 0.815488 0.538896 -0.107242
C14   C     C_R   0.513637 0.184513 0.461104 -0.107241
C15   C     C_R   0.499936 0.008390 0.343562 0.298355
C16   C     C_R   0.500073 0.991611 0.656439 0.298352
C17   C     C_R   0.514057 0.117385 0.351043 -0.108975
C18   C     C_R   0.485952 0.882615 0.648959 -0.108975
C19   C     C_R   0.515863 0.141031 0.560745 -0.121451
C20   C     C_R   0.484140 0.858970 0.439256 -0.121456
C21   C     C_R   0.505348 0.033326 0.554722 0.003208
C22   C     C_R   0.494658 0.966675 0.445280 0.003205
H3    H     H_    0.476153 0.807787 0.355664 0.242493
H4    H     H_    0.523845 0.192214 0.644336 0.242498
N1    N     N_R   0.523540 0.519360 0.790140 -0.248469
N2    N     N_R   0.476460 0.480640 0.209860 -0.248473
C23   C     C_R   0.384406 0.397927 0.017664 -0.230779
C24   C     C_R   0.615594 0.602072 0.982336 -0.230785
C25   C     C_R   0.395621 0.404902 0.138325 0.136199
C26   C     C_R   0.604380 0.595098 0.861675 0.136204
C27   C     C_R   0.553182 0.543284 0.158361 0.526369
C28   C     C_R   0.446818 0.456716 0.841639 0.526369
C29   C     C_R   0.542955 0.536367 0.035509 -0.055265
C30   C     C_R   0.457045 0.463632 0.964491 -0.055266
H5    H     H_    0.319657 0.338262 0.965124 0.218175
H6    H     H_    0.680345 0.661736 0.034876 0.218174
N3    N     N_R   0.893942 0.310006 0.374544 0.191573
O9    O     O_R   0.957626 0.253273 0.299234 -0.222809
O10   O     O_R   0.804810 0.264080 0.419612 -0.325216
N4    N     N_R   0.106055 0.689994 0.625458 0.191578
O11   O     O_R   0.042358 0.746735 0.700750 -0.222822
O12   O     O_R   0.195205 0.735912 0.580404 -0.325217
N5    N     N_R   0.939355 0.511966 0.727457 0.195689
O13   O     O_R   0.990146 0.584973 0.810703 -0.222016
O14   O     O_R   0.872802 0.434482 0.752591 -0.280776
N6    N     N_R   0.060645 0.488036 0.272543 0.195692
O15   O     O_R   0.009849 0.415034 0.189295 -0.222007
O16   O     O_R   0.127200 0.565520 0.247411 -0.280781
C31   C     C_2   0.469340 0.843952 0.757837 0.510245
H7    H     H_    0.525479 0.880244 0.836724 0.094465
O17   O     O_2   0.387173 0.777126 0.762827 -0.446880
C32   C     C_2   0.530677 0.156048 0.242165 0.510225
H8    H     H_    0.474547 0.119753 0.163274 0.094478
O18   O     O_2   0.612841 0.222879 0.237181 -0.446884
N7    N     N_R   0.494584 0.939981 0.232451 0.097968
O19   O     O_R   0.389155 0.889832 0.187356 -0.303138
O20   O     O_R   0.593397 0.931828 0.173972 -0.292121
N8    N     N_R   0.505433 0.060019 0.767552 0.097973
O21   O     O_R   0.610856 0.110188 0.812629 -0.303137
O22   O     O_R   0.406631 0.068160 0.826047 -0.292133
N9    N     N_R   0.347043 0.391401 0.773368 0.117463
O23   O     O_R   0.359700 0.291445 0.745558 -0.349571
O24   O     O_R   0.234042 0.424361 0.774850 -0.314824
N10   N     N_R   0.652957 0.608600 0.226632 0.117463
O25   O     O_R   0.640299 0.708555 0.254442 -0.349564
O26   O     O_R   0.765957 0.575639 0.225150 -0.314825
C33   C     C_2   0.673600 0.682136 0.823361 0.497008
H9    H     H_    0.682252 0.758617 0.879664 0.053794
O27   O     O_2   0.729928 0.670856 0.736695 -0.487690
C34   C     C_2   0.326405 0.317862 0.176641 0.497017
H10   H     H_    0.317767 0.241378 0.120344 0.053785
O28   O     O_2   0.270065 0.329145 0.263300 -0.487685

loop_
_geom_bond_atom_site_label_1
_geom_bond_atom_site_label_2
_geom_bond_distance
_ccdc_geom_bond_type
N5    O13   1.299657 A    
C6    C9    1.551940 S    
C1    C14   1.478656 S    
C15   C17   1.407802 A    
N9    O23   1.299089 A    
C8    N4    1.456133 S    
C23   C25   1.406200 A    
C29   C30   1.397288 A    
O5    C3    1.295877 A    
O1    C1    1.310453 A    
N10   O26   1.300597 A    
C2    C13   1.478657 S    
N6    O16   1.300469 A    
N1    C26   1.391022 A    
C24   H6    1.083677 S    
O4    Cu1   1.972367 S    
C31   O17   1.220280 D    
C5    C10   1.551940 S    
C28   C30   1.432009 A    
N3    O10   1.299828 A    
C19   C21   1.391825 A    
N8    O21   1.300954 A    
Cu1   N1    2.027688 S    
C31   H7    1.084998 S    
O6    C4    1.295875 A    
C13   C20   1.397734 A    
C5    C11   1.545482 S    
C17   C32   1.485496 S    
C26   C33   1.484417 S    
C6    C12   1.545483 S    
Cu1   Cu2   2.698725 S    
N9    O24   1.300598 A    
O2    C2    1.310455 A    
N4    O12   1.299825 A    
C15   C22   1.411994 A    
C24   C29   1.393576 A    
C7    C12   1.530380 S    
C8    C11   1.530378 S    
C20   H3    1.077902 S    
N10   O25   1.299089 A    
N2    C25   1.391021 A    
O4    C2    1.297618 A    
C7    N3    1.456134 S    
C33   O27   1.213701 D    
C13   C18   1.424490 A    
N6    O15   1.299656 A    
C4    C9    1.453605 S    
C7    C9    1.533394 S    
N7    O19   1.300958 A    
N7    O20   1.301027 A    
C20   C22   1.391824 A    
C5    H1    1.109967 S    
O7    Cu2   1.968805 S    
Cu2   N2    2.027689 S    
C27   C29   1.432008 A    
O5    Cu1   1.967328 S    
C6    H2    1.109967 S    
C21   C22   1.409120 A    
O7    C3    1.288194 A    
O3    Cu2   1.972368 S    
O8    C4    1.288193 A    
C23   C30   1.393579 A    
C12   N6    1.458936 S    
C16   C21   1.411995 A    
N3    O9    1.299980 A    
C34   O28   1.213702 D    
N5    O14   1.300469 A    
C10   C12   1.537682 S    
O1    Cu1   1.961856 S    
N4    O11   1.299977 A    
C23   H5    1.083677 S    
C27   N10   1.429324 S    
C5    C7    1.545339 S    
O6    Cu2   1.967329 S    
C8    C10   1.533394 S    
C16   N8    1.437017 S    
C24   C26   1.406200 A    
O3    C1    1.297619 A    
O8    Cu1   1.968806 S    
C11   N5    1.458935 S    
C3    C10   1.453608 S    
C32   H8    1.084999 S    
N1    C28   1.380642 A    
C9    C11   1.537680 S    
N2    C27   1.380639 A    
C25   C34   1.484412 S    
C16   C18   1.407804 A    
C28   N9    1.429324 S    
O2    Cu2   1.961856 S    
C15   N7    1.437013 S    
C33   H9    1.085686 S    
C14   C19   1.397736 A    
C14   C17   1.424488 A    
C6    C8    1.545336 S    
C34   H10   1.085686 S    
C18   C31   1.485494 S    
C19   H4    1.077899 S    
N8    O22   1.301023 A    
C32   O18   1.220281 D    
