data_mof_unit_56984.cif
_audit_creation_date              2012-10-26T19:36:24-0400
_audit_creation_method            fapswitch 2.2
_symmetry_space_group_name_H-M    P1
_symmetry_Int_Tables_number       1
_space_group_crystal_system       triclinic
_cell_length_a                    10.822247
_cell_length_b                    15.99088
_cell_length_c                    14.759005
_cell_angle_alpha                 90.384263
_cell_angle_beta                  90.005365
_cell_angle_gamma                 89.901871
_cell_volume                      2554.0916677

loop_
_atom_site_label
_atom_site_type_symbol
_atom_type_description
_atom_site_fract_x
_atom_site_fract_y
_atom_site_fract_z
_atom_type_partial_charge
C1    C     C_R   0.500418 0.340931 0.499700 0.561699
C2    C     C_R   0.499705 0.087473 0.499984 -0.063140
C3    C     C_R   0.611728 0.956244 0.484090 0.243052
C4    C     C_R   0.388774 0.043789 0.515597 0.243782
C5    C     C_1   0.500409 0.822955 0.500572 0.025555
C6    C     C_1   0.499951 0.177073 0.499136 0.021867
C7    C     C_1   0.500375 0.252026 0.499066 0.011575
C8    C     C_1   0.499856 0.747996 0.500820 0.016830
C9    C     C_R   0.539557 0.570102 0.951862 -0.120921
C10   C     C_R   0.458782 0.430620 0.048163 -0.098864
C11   C     C_R   0.499084 0.499459 0.902881 -0.016332
C12   C     C_R   0.499653 0.659076 0.500285 0.565119
C13   C     C_R   0.499685 0.501080 0.097182 -0.001041
C14   C     C_R   0.457970 0.429227 0.952373 0.100429
C15   C     C_R   0.540118 0.571627 0.048165 0.104300
C16   C     C_R   0.261769 0.502124 0.499856 0.565034
C17   C     C_R   0.738223 0.497922 0.500114 0.562720
C18   C     C_1   0.499657 0.499867 0.802678 0.116417
C19   C     C_1   0.499793 0.500375 0.197338 0.143710
C20   C     C_R   0.243806 0.697377 0.291691 0.308008
C21   C     C_R   0.766260 0.294964 0.704070 0.307855
C22   C     C_R   0.175298 0.660186 0.361756 0.302980
C23   C     C_R   0.871867 0.496765 0.500414 0.014195
C24   C     C_R   0.831628 0.335727 0.634748 0.301051
C25   C     C_R   0.122095 0.580361 0.349192 0.035746
C26   C     C_R   0.878304 0.417192 0.648860 0.037127
C27   C     C_R   0.130298 0.540043 0.264135 0.085857
C28   C     C_R   0.866016 0.456117 0.734387 0.090922
C29   C     C_R   0.192701 0.579531 0.192978 -0.154448
C30   C     C_R   0.806476 0.413409 0.804651 -0.152679
C31   C     C_R   0.248811 0.657070 0.206311 -0.162986
C32   C     C_R   0.757587 0.333837 0.790024 -0.173179
C33   C     C_R   0.933338 0.533655 0.427583 -0.132869
C34   C     C_R   0.128099 0.503524 0.499452 0.013742
C35   C     C_R   0.066586 0.466707 0.572278 -0.133386
C36   C     C_3   0.412443 0.784083 0.266359 -0.105187
C37   C     C_3   0.604214 0.202175 0.725578 -0.108802
C38   C     C_3   0.063188 0.752692 0.444503 -0.068068
C39   C     C_3   0.949976 0.247196 0.551374 -0.067424
C40   C     C_3   0.269605 0.124006 0.611350 -0.121196
C41   C     C_3   0.731870 0.876675 0.388521 -0.120656
C42   C     C_3   0.263261 0.893527 0.617254 -0.079389
C43   C     C_3   0.738872 0.107442 0.384277 -0.074414
C44   C     C_R   0.938774 0.462015 0.573128 0.020616
C45   C     C_R   0.061225 0.537875 0.426415 0.019067
C46   C     C_R   0.389592 0.956075 0.515311 0.265727
C47   C     C_R   0.610963 0.043980 0.484572 0.263570
C48   C     C_R   0.500743 0.912559 0.499584 -0.059721
Cu1   Cu    Cu3+1 0.500040 0.500000 0.589220 0.988909
Cu2   Cu    Cu3+1 0.499960 0.500000 0.410780 0.996514
H1    H     H_    0.295277 0.685351 0.149403 0.132068
H2    H     H_    0.470674 0.726985 0.273522 0.144466
H3    H     H_    0.462389 0.836280 0.299870 0.131885
H4    H     H_    0.541381 0.256533 0.715225 0.116128
H5    H     H_    0.612835 0.186988 0.798598 0.106711
H6    H     H_    0.560936 0.147267 0.692147 0.141596
H7    H     H_    0.976816 0.717755 0.428735 0.076007
H8    H     H_    0.075661 0.804864 0.395870 0.171906
H9    H     H_    0.051810 0.780526 0.512964 0.161022
H10   H     H_    0.938910 0.193563 0.598274 0.175067
H11   H     H_    0.034135 0.283644 0.569417 0.075962
H12   H     H_    0.714283 0.302706 0.846470 0.112461
H13   H     H_    0.964504 0.221335 0.482322 0.157112
H14   H     H_    0.126782 0.416504 0.290090 0.241860
H15   H     H_    0.085784 0.439445 0.183601 0.226253
H16   H     H_    0.860419 0.579936 0.710146 0.242293
H17   H     H_    0.901723 0.557173 0.816601 0.223640
H18   H     H_    0.295348 0.190928 0.606293 0.112302
H19   H     H_    0.327243 0.093427 0.664387 0.076297
H20   H     H_    0.172243 0.121625 0.634675 0.138582
H21   H     H_    0.677753 0.909286 0.334956 0.077580
H22   H     H_    0.702477 0.810364 0.392136 0.111111
H23   H     H_    0.570959 0.624383 0.914892 0.106467
H24   H     H_    0.830081 0.876952 0.367003 0.137628
H25   H     H_    0.255020 0.950922 0.659622 0.111594
H26   H     H_    0.339224 0.853249 0.643092 0.106511
H27   H     H_    0.175912 0.858155 0.624741 0.144676
H28   H     H_    0.662175 0.146632 0.357634 0.106234
H29   H     H_    0.750200 0.050425 0.341725 0.110714
H30   H     H_    0.825084 0.144300 0.378209 0.147661
H31   H     H_    0.601266 0.692954 0.051171 0.218497
H32   H     H_    0.663169 0.629815 0.129317 0.229236
H33   H     H_    0.485145 0.333105 0.865131 0.218666
H34   H     H_    0.426984 0.376093 0.084547 0.131244
H35   H     H_    0.339954 0.372444 0.865660 0.234835
H36   H     H_    0.199320 0.549763 0.127025 0.128616
H37   H     H_    0.797089 0.441980 0.871038 0.126693
H38   H     H_    0.881608 0.561235 0.372324 0.133037
H39   H     H_    0.118290 0.438948 0.627448 0.131508
H40   H     H_    0.401421 0.801132 0.193999 0.115602
N1    N     N_1   0.500040 0.499980 0.276710 -0.197299
N2    N     N_1   0.499960 0.500020 0.723290 -0.198704
N3    N     N_3   0.076222 0.458824 0.251049 -0.620236
N4    N     N_3   0.913644 0.538964 0.748980 -0.619924
N5    N     N_3   0.580615 0.644943 0.096431 -0.657425
N6    N     N_3   0.414393 0.355598 0.906889 -0.643763
O1    O     O_R   0.500060 0.380310 0.575320 -0.503509
O2    O     O_3   0.721692 0.214892 0.686487 -0.526739
O3    O     O_3   0.167403 0.699625 0.445207 -0.544651
O4    O     O_3   0.843176 0.297873 0.550652 -0.544701
O5    O     O_3   0.276839 0.085229 0.525084 -0.524689
O6    O     O_3   0.723696 0.914774 0.475072 -0.524396
O7    O     O_3   0.279529 0.913062 0.524949 -0.497906
O8    O     O_3   0.721216 0.087013 0.476197 -0.492686
O9    O     O_R   0.499940 0.619690 0.424680 -0.499078
O10   O     O_R   0.500000 0.380310 0.424640 -0.491286
O11   O     O_R   0.500000 0.619690 0.575360 -0.491550
O12   O     O_R   0.319670 0.500010 0.575340 -0.498111
O13   O     O_R   0.680330 0.499990 0.424660 -0.498376
O14   O     O_R   0.319610 0.500010 0.424650 -0.500895
O15   O     O_R   0.680390 0.499990 0.575350 -0.501517
O16   O     O_3   0.295978 0.775504 0.308374 -0.533563

loop_
_geom_bond_atom_site_label_1
_geom_bond_atom_site_label_2
_ccdc_geom_bond_type
C11   C18   S    
C27   C29   A    
C33   C45   A    
C42   O7    S    
C16   O14   A    
Cu1   O11   S    
C4    C46   A    
C43   H28   S    
C42   H25   S    
C17   C23   S    
C40   H20   S    
C33   H38   S    
C24   C26   A    
H14   N3    S    
C15   N5    S    
C12   O9    A    
H31   N5    S    
H35   N6    S    
C39   H10   S    
C43   H29   S    
C3    C48   A    
Cu2   O14   S    
C41   O6    S    
C28   N4    S    
C34   C35   A    
C10   H34   S    
C43   O8    S    
C36   H3    S    
C16   C34   S    
C40   O5    S    
C20   O16   S    
C37   H6    S    
C23   C33   A    
C22   C25   A    
C36   O16   S    
Cu2   O9    S    
H32   N5    S    
C36   H2    S    
C1    O10   A    
Cu1   O15   S    
H15   N3    S    
C41   H24   S    
C1    C7    S    
C2    C6    S    
C9    H23   S    
C17   O15   A    
C14   N6    S    
C37   O2    S    
C21   C32   A    
Cu1   O12   S    
C39   H11   S    
C5    C48   S    
C46   C48   A    
C40   H19   S    
C13   C19   S    
C26   C44   S    
C10   C14   A    
C1    O1    A    
C43   H30   S    
Cu2   O13   S    
C23   C44   A    
C2    C4    A    
H17   N4    S    
C38   H7    S    
C8    C12   S    
C4    O5    S    
C34   C45   A    
C38   H8    S    
C35   C44   A    
C9    C11   A    
C29   H36   S    
C41   H22   S    
C37   H4    S    
C35   H39   S    
C3    O6    S    
C20   C22   A    
C13   C15   A    
C27   N3    S    
C5    C8    T    
Cu1   N2    S    
C25   C45   S    
C36   H40   S    
C22   O3    S    
C24   O4    S    
C26   C28   A    
C31   H1    S    
C38   O3    S    
C10   C13   A    
C17   O13   A    
C12   O11   A    
C6    C7    T    
C2    C47   A    
C25   C27   A    
C39   H13   S    
C46   O7    S    
C42   H26   S    
C41   H21   S    
C18   N2    T    
C28   C30   A    
C9    C15   A    
C32   H12   S    
C29   C31   A    
C30   C32   A    
C21   O2    S    
C39   O4    S    
C47   O8    S    
H33   N6    S    
C3    C47   A    
C11   C14   A    
C19   N1    T    
C16   O12   A    
Cu1   O1    S    
C38   H9    S    
C37   H5    S    
Cu2   N1    S    
C42   H27   S    
Cu1   Cu2   S    
C40   H18   S    
C21   C24   A    
Cu2   O10   S    
H16   N4    S    
C30   H37   S    
C20   C31   A    
