data_mof_unit_11981.cif
_audit_creation_date              2012-12-10T18:13:28-0500
_audit_creation_method            fapswitch 2.2
_symmetry_space_group_name_H-M    P1
_symmetry_Int_Tables_number       1
_space_group_crystal_system       triclinic
_cell_length_a                    12.596235
_cell_length_b                    13.113929
_cell_length_c                    16.556171
_cell_angle_alpha                 92.272715
_cell_angle_beta                  98.160397
_cell_angle_gamma                 97.439074
_cell_volume                      2679.67635677

loop_
_atom_site_label
_atom_site_type_symbol
_atom_type_description
_atom_site_fract_x
_atom_site_fract_y
_atom_site_fract_z
_atom_type_partial_charge
C1    C     C_R   0.560004 0.691631 0.513515 0.913556
C2    C     C_R   0.554498 0.451006 0.210720 0.420771
C3    C     C_R   0.592666 0.640690 0.854512 -0.083633
C4    C     C_R   0.586918 0.601506 0.774843 -0.200021
C5    C     C_R   0.405547 0.514336 0.778567 -0.225461
C6    C     C_R   0.412700 0.551236 0.859546 -0.213513
C7    C     C_R   0.507485 0.612204 0.898411 0.192982
C8    C     C_2   0.608039 0.618186 0.037424 0.564138
C9    C     C_2   0.519271 0.635064 0.986810 -0.372549
C10   C     C_R   0.494017 0.537263 0.736938 -0.023415
C11   C     C_R   0.284924 0.065323 0.529997 -0.178997
C12   C     C_R   0.513860 0.499069 0.349066 0.901027
C13   C     C_R   0.402846 0.197982 0.477230 -0.133471
C14   C     C_R   0.702267 0.837511 0.507233 -0.201807
C15   C     C_R   0.732127 0.941685 0.498932 -0.160716
C16   C     C_R   0.656006 0.009161 0.501216 -0.090440
C17   C     C_R   0.549955 0.973798 0.515900 0.032567
C18   C     C_R   0.527596 0.872849 0.541044 -0.036129
C19   C     C_R   0.466761 0.036866 0.508318 -0.009448
C20   C     C_R   0.368239 0.003980 0.537507 0.045912
C21   C     C_R   0.354138 0.910688 0.574253 -0.339705
C22   C     C_R   0.435938 0.846780 0.581017 0.535506
C23   C     C_R   0.440260 0.308317 0.486064 0.823387
C24   C     C_R   0.476527 0.127793 0.466371 0.455974
C25   C     C_R   0.303238 0.163142 0.501638 -0.274528
C26   C     C_R   0.598719 0.801867 0.525256 -0.104252
C27   C     C_R   0.905995 0.372622 0.627823 -0.253649
C28   C     C_R   0.211096 0.627919 0.405676 -0.042040
C29   C     C_R   0.111505 0.662707 0.390163 -0.348753
C30   C     C_R   0.024474 0.618531 0.427377 0.565890
C31   C     C_R   0.040279 0.536852 0.480760 -0.108351
C32   C     C_R   0.145721 0.508424 0.497422 0.109967
C33   C     C_R   0.957775 0.483939 0.520232 -0.069000
C34   C     C_R   0.488103 0.505954 0.651291 0.876055
C35   C     C_R   0.985686 0.418758 0.584627 0.063916
C36   C     C_R   0.091500 0.396940 0.603217 0.467566
C37   C     C_R   0.168209 0.436651 0.555840 -0.292003
C38   C     C_R   0.847533 0.490570 0.497508 0.024889
C39   C     C_R   0.799880 0.388361 0.605452 -0.034011
C40   C     C_R   0.530282 0.524487 0.267016 -0.204084
C41   C     C_R   0.532142 0.627705 0.248065 -0.251678
C42   C     C_R   0.560636 0.658961 0.174102 -0.309375
C43   C     C_R   0.588696 0.587318 0.118945 -0.141431
C44   C     C_R   0.585037 0.482684 0.136712 0.482298
H1    H     H_    0.513885 0.684550 0.291538 0.172166
H2    H     H_    0.242563 0.214016 0.503803 0.165873
H3    H     H_    0.279382 0.887923 0.598040 0.158765
H4    H     H_    0.208602 0.040526 0.551066 0.144024
H5    H     H_    0.681829 0.089146 0.493336 0.140264
H6    H     H_    0.812618 0.969440 0.486528 0.146610
H7    H     H_    0.653965 0.623786 0.741943 0.159715
H8    H     H_    0.924834 0.323945 0.677782 0.193032
H9    H     H_    0.816440 0.528442 0.444834 0.189247
H10   H     H_    0.278171 0.663272 0.377696 0.159024
H11   H     H_    0.103894 0.727215 0.352017 0.161653
H12   H     H_    0.245968 0.412530 0.567670 0.217395
H13   H     H_    0.332346 0.467132 0.748946 0.184441
H14   H     H_    0.445027 0.641905 0.012005 0.128391
H15   H     H_    0.664351 0.691545 0.882148 0.166834
H16   H     H_    0.561082 0.738872 0.159710 0.176652
N1    N     N_R   0.774070 0.445420 0.541180 -0.119994
N2    N     N_R   0.226730 0.554050 0.459240 -0.102360
O1    O     O_R   0.631480 0.627510 0.519670 -0.618778
O2    O     O_R   0.455770 0.662400 0.493360 -0.576305
O3    O     O_R   0.598240 0.480510 0.398910 -0.615426
O4    O     O_R   0.422540 0.515400 0.372600 -0.624832
O5    O     O_R   0.544230 0.337600 0.506640 -0.633894
O6    O     O_R   0.368520 0.372490 0.480330 -0.627735
O7    O     O_R   0.577460 0.484600 0.627400 -0.618421
O8    O     O_R   0.401760 0.519490 0.601090 -0.590869
Zn1   Zn    Zn3+2 0.617320 0.476700 0.517570 0.933150
Zn2   Zn    Zn3+2 0.382680 0.523300 0.482430 0.959146
H17   H     H_    0.345937 0.529295 0.892768 0.145604
O9    O     O_3   0.521361 0.121347 0.394203 -0.632775
C45   C     C_3   0.589626 0.210893 0.381191 -0.229111
H18   H     H_    0.652833 0.235606 0.434656 0.155511
H19   H     H_    0.541813 0.273317 0.363288 0.211680
H20   H     H_    0.632578 0.193663 0.329309 0.210507
H21   H     H_    0.758925 0.784572 0.496927 0.194081
O10   O     O_3   0.429997 0.760071 0.627075 -0.593412
C46   C     C_3   0.390306 0.779369 0.701180 -0.310266
H22   H     H_    0.300425 0.766067 0.691531 0.173964
H23   H     H_    0.421445 0.857919 0.729720 0.145569
H24   H     H_    0.418024 0.724516 0.745668 0.209751
H25   H     H_    0.737446 0.354941 0.638870 0.145220
O11   O     O_3   0.120520 0.344541 0.672513 -0.612546
C47   C     C_3   0.159872 0.252835 0.651442 -0.377563
H26   H     H_    0.246550 0.269070 0.644072 0.171392
H27   H     H_    0.110425 0.210694 0.596086 0.156591
H28   H     H_    0.155028 0.201135 0.702592 0.202493
O12   O     O_3   0.932500 0.667090 0.423516 -0.626206
C48   C     C_3   0.883682 0.670601 0.341472 -0.387121
H29   H     H_    0.882444 0.597039 0.304980 0.158948
H30   H     H_    0.924032 0.736440 0.311990 0.179567
H31   H     H_    0.798209 0.683241 0.341257 0.206466
O13   O     O_3   0.614548 0.411008 0.083409 -0.562504
C49   C     C_3   0.528255 0.378906 0.019342 -0.228534
H32   H     H_    0.451043 0.409940 0.025252 0.097510
H33   H     H_    0.511016 0.293601 0.016338 0.174847
H34   H     H_    0.553837 0.401907 0.960496 0.206851
O14   O     O_3   0.550645 0.348455 0.227569 -0.609707
C50   C     C_3   0.442116 0.301072 0.209183 -0.348012
H35   H     H_    0.406461 0.311521 0.145141 0.161153
H36   H     H_    0.391400 0.330223 0.252372 0.155580
H37   H     H_    0.440051 0.217066 0.216006 0.217427
O15   O     O_3   0.699800 0.595527 0.006169 -0.587011
C51   C     C_3   0.793594 0.627571 0.063371 -0.283071
H38   H     H_    0.800049 0.574720 0.114154 0.183981
H39   H     H_    0.796187 0.708429 0.087721 0.135849
H40   H     H_    0.865517 0.624683 0.032125 0.185587

loop_
_geom_bond_atom_site_label_1
_geom_bond_atom_site_label_2
_ccdc_geom_bond_type
C2    C44   A    
C47   H26   S    
O14   C50   S    
C41   C42   A    
C35   C36   A    
C18   C26   A    
C8    C43   S    
C43   C44   A    
C46   H24   S    
C49   H32   S    
C28   C29   A    
C3    C7    A    
C30   C31   A    
O10   C46   S    
O15   C51   S    
C11   C25   A    
C15   C16   A    
C13   C23   S    
C50   H37   S    
C9    H14   S    
C15   H6    S    
C23   O5    A    
O7    Zn1   S    
C46   H23   S    
C37   H12   S    
O4    Zn2   S    
C19   C20   A    
C27   C39   A    
C16   C17   A    
C51   H38   S    
C31   C33   A    
C34   O8    A    
C38   N1    A    
N1    Zn1   S    
C21   C22   A    
C51   H39   S    
C13   C25   A    
C11   H4    S    
C1    O1    A    
C49   H33   S    
C46   H22   S    
C39   N1    A    
C11   C20   A    
C32   C37   A    
O9    C45   S    
C4    H7    S    
C16   H5    S    
C42   H16   S    
O12   C48   S    
C28   H10   S    
O11   C47   S    
C8    C9    D    
C29   H11   S    
C2    O14   S    
C36   O11   S    
O3    Zn1   S    
C12   O4    A    
C48   H31   S    
C13   C24   A    
C23   O6    A    
C12   C40   S    
C45   H18   S    
C29   C30   A    
C44   O13   S    
C31   C32   A    
O6    Zn2   S    
O13   C49   S    
C48   H30   S    
C17   C18   A    
N2    Zn2   S    
C10   C34   S    
C14   H21   S    
C14   C26   A    
C50   H36   S    
C45   H19   S    
C34   O7    A    
C40   C41   A    
O1    Zn1   S    
C47   H27   S    
C1    C26   S    
C51   H40   S    
C42   C43   A    
C39   H25   S    
C4    C10   A    
C3    C4    A    
C1    O2    A    
C49   H34   S    
C27   H8    S    
C6    H17   S    
C7    C9    S    
C36   C37   A    
C18   C22   A    
C30   O12   S    
C8    O15   S    
C6    C7    A    
C12   O3    A    
C33   C38   A    
C5    H13   S    
C27   C35   A    
C19   C24   A    
C22   O10   S    
C5    C10   A    
C24   O9    S    
C5    C6    A    
C38   H9    S    
C48   H29   S    
C33   C35   A    
O5    Zn1   S    
O2    Zn2   S    
C50   H35   S    
C45   H20   S    
C32   N2    A    
C17   C19   A    
C2    C40   A    
C20   C21   A    
C47   H28   S    
C41   H1    S    
C14   C15   A    
O8    Zn2   S    
C25   H2    S    
C28   N2    A    
C21   H3    S    
C3    H15   S    
