data_mof_unit_19651.cif
_audit_creation_date              2012-12-11T15:07:37-0500
_audit_creation_method            fapswitch 2.2
_symmetry_space_group_name_H-M    P1
_symmetry_Int_Tables_number       1
_space_group_crystal_system       triclinic
_cell_length_a                    21.654827
_cell_length_b                    7.207341
_cell_length_c                    18.564891
_cell_angle_alpha                 89.974179
_cell_angle_beta                  95.941365
_cell_angle_gamma                 90.081494
_cell_volume                      2881.92427482

loop_
_atom_site_label
_atom_site_type_symbol
_atom_type_description
_atom_site_fract_x
_atom_site_fract_y
_atom_site_fract_z
_atom_type_partial_charge
O1    O     O_R   0.449650 0.506500 0.414480 -0.533420
O2    O     O_R   0.550350 0.006500 0.585520 -0.533168
O3    O     O_R   0.432010 0.173150 0.560250 -0.535886
O4    O     O_R   0.567990 0.673150 0.439750 -0.540482
C1    C     C_R   0.415507 0.344556 0.580198 0.685456
C2    C     C_R   0.583983 0.844780 0.419119 0.685141
O5    O     O_R   0.442320 0.176650 0.413480 -0.534443
O6    O     O_R   0.557680 0.676650 0.586520 -0.533725
O7    O     O_R   0.560730 0.008380 0.437700 -0.536423
O8    O     O_R   0.439270 0.508380 0.562300 -0.538805
C3    C     C_R   0.428540 0.345088 0.387519 0.683889
C4    C     C_R   0.571425 0.845191 0.612494 0.686566
O9    O     O_3   0.538840 0.339860 0.508120 -0.371493
O10   O     O_3   0.461160 0.839860 0.491880 -0.371705
V1    V     V_3+5 0.492800 0.064220 0.498490 1.428328
V2    V     V_3+5 0.507200 0.564220 0.501510 1.423048
C5    C     C_R   0.873766 0.923151 0.688248 0.417064
C6    C     C_R   0.126351 0.427000 0.311764 0.417236
H1    H     H_    0.961913 0.948061 0.752305 0.121058
H2    H     H_    0.038230 0.451862 0.247689 0.119333
H3    H     H_    0.790099 0.921509 0.571848 0.169248
H4    H     H_    0.210165 0.428990 0.428071 0.169174
C7    C     C_R   0.886767 0.937892 0.819351 -0.115927
C8    C     C_R   0.113286 0.438426 0.180613 -0.115062
C9    C     C_R   0.584478 0.821722 0.744921 -0.200401
C10   C     C_R   0.415249 0.317782 0.255228 -0.200035
C11   C     C_R   0.620300 0.803121 0.810836 -0.171705
C12   C     C_R   0.379288 0.297740 0.189467 -0.171598
C13   C     C_R   0.685158 0.817337 0.816026 0.200142
C14   C     C_R   0.314486 0.313521 0.184296 0.200713
C15   C     C_R   0.715579 0.865618 0.753774 0.097329
C16   C     C_R   0.284315 0.364918 0.246333 0.096806
C17   C     C_R   0.677962 0.873140 0.685265 0.025985
C18   C     C_R   0.322042 0.374220 0.314742 0.025930
C19   C     C_R   0.781691 0.897147 0.755480 0.039158
C20   C     C_R   0.218299 0.397674 0.244562 0.039562
C21   C     C_R   0.808631 0.909233 0.688746 0.022014
C22   C     C_R   0.191461 0.412379 0.311273 0.021299
C23   C     C_R   0.770516 0.908905 0.623019 -0.168676
C24   C     C_R   0.229658 0.414022 0.376943 -0.169296
C25   C     C_R   0.706531 0.896036 0.621387 -0.191881
C26   C     C_R   0.293617 0.400241 0.378538 -0.189908
C27   C     C_R   0.822150 0.923193 0.820325 -0.184759
C28   C     C_R   0.177853 0.422383 0.179634 -0.185028
C29   C     C_R   0.912108 0.936404 0.753399 -0.247278
C30   C     C_R   0.088003 0.439301 0.246594 -0.247169
C31   C     C_R   0.612344 0.851430 0.681565 -0.078034
C32   C     C_R   0.387585 0.350847 0.318462 -0.076952
H5    H     H_    0.805195 0.941084 0.872266 0.159231
H6    H     H_    0.194824 0.438444 0.127598 0.158779
H7    H     H_    0.534591 0.804420 0.742873 0.115990
H8    H     H_    0.465061 0.298891 0.257307 0.112784
H9    H     H_    0.597508 0.769075 0.858413 0.124918
H10   H     H_    0.401895 0.261191 0.142052 0.124922
H11   H     H_    0.679535 0.899962 0.568938 0.112834
H12   H     H_    0.320693 0.405831 0.430916 0.111026
C33   C     C_R   0.636098 0.013300 0.323868 -0.188121
C34   C     C_R   0.356036 0.214522 0.678310 -0.201748
C35   C     C_R   0.633452 0.857579 0.369326 -0.106010
C36   C     C_R   0.364705 0.356108 0.628209 -0.100497
C37   C     C_R   0.678516 0.717639 0.367467 -0.196734
C38   C     C_R   0.325652 0.512730 0.625372 -0.192815
C39   C     C_R   0.726117 0.732407 0.321196 0.095890
C40   C     C_R   0.278931 0.530732 0.672481 0.091544
C41   C     C_R   0.727630 0.889079 0.275297 -0.007151
C42   C     C_R   0.271914 0.389777 0.723996 -0.003467
C43   C     C_R   0.682475 0.029629 0.276847 0.100572
C44   C     C_R   0.310320 0.230892 0.726498 0.091972
C45   C     C_R   0.772667 0.595520 0.320215 0.187068
C46   C     C_R   0.238932 0.685979 0.669183 0.181784
C47   C     C_R   0.818435 0.612395 0.272134 -0.247108
C48   C     C_R   0.194517 0.703318 0.718954 -0.241469
C49   C     C_R   0.819532 0.766027 0.225860 0.060709
C50   C     C_R   0.187980 0.565546 0.771005 0.063172
C51   C     C_R   0.774545 0.906267 0.228013 0.047843
C52   C     C_R   0.226154 0.406699 0.772826 0.050487
C53   C     C_R   0.776477 0.063994 0.182949 0.103388
C54   C     C_R   0.218374 0.264002 0.823213 0.101956
C55   C     C_R   0.731339 0.202661 0.185324 -0.195729
C56   C     C_R   0.256464 0.106333 0.824712 -0.192128
C57   C     C_R   0.684604 0.185224 0.231572 -0.185886
C58   C     C_R   0.302196 0.090389 0.777092 -0.188706
C59   C     C_R   0.865253 0.782142 0.177822 -0.192078
C60   C     C_R   0.143024 0.582239 0.820279 -0.204343
C61   C     C_R   0.867542 0.938446 0.132442 -0.080705
C62   C     C_R   0.134451 0.439475 0.870095 -0.079579
C63   C     C_R   0.823276 0.079965 0.136066 -0.224600
C64   C     C_R   0.172385 0.280619 0.870925 -0.216774
H13   H     H_    0.601545 0.121868 0.324495 0.125366
H14   H     H_    0.385762 0.093266 0.680882 0.129316
H15   H     H_    0.676819 0.598742 0.402920 0.170225
H16   H     H_    0.331842 0.620618 0.586097 0.169701
H17   H     H_    0.853490 0.505303 0.271493 0.133211
H18   H     H_    0.164619 0.824200 0.716213 0.136814
H19   H     H_    0.899622 0.673293 0.176409 0.125609
H20   H     H_    0.113529 0.703943 0.818470 0.122967
H21   H     H_    0.824483 0.200794 0.101437 0.129388
H22   H     H_    0.166369 0.169898 0.909152 0.131900
H23   H     H_    0.732172 0.324851 0.151402 0.132568
H24   H     H_    0.250881 0.995031 0.862776 0.130465
H25   H     H_    0.650423 0.294652 0.232471 0.129452
H26   H     H_    0.330921 0.967099 0.779415 0.131747
O11   O     O_R   0.060820 0.290050 0.937800 -0.537775
O12   O     O_R   0.939180 0.790050 0.062200 -0.538366
O13   O     O_R   0.057690 0.616620 0.086540 -0.537029
O14   O     O_R   0.942310 0.116620 0.913460 -0.535964
C65   C     C_R   0.071494 0.448541 0.112595 0.710234
C66   C     C_R   0.928539 0.948438 0.887384 0.713998
O15   O     O_R   0.068010 0.619890 0.939770 -0.541687
O16   O     O_R   0.931990 0.119890 0.060230 -0.541823
O17   O     O_R   0.949640 0.787940 0.914460 -0.530837
O18   O     O_R   0.050360 0.287940 0.085540 -0.531134
C67   C     C_R   0.084467 0.451173 0.919219 0.695286
C68   C     C_R   0.916101 0.950999 0.081499 0.696209
O19   O     O_3   0.961210 0.453080 0.991940 -0.373131
O20   O     O_3   0.038790 0.953080 0.008060 -0.374600
V3    V     V_3+5 0.007200 0.728820 0.001500 1.415835
V4    V     V_3+5 0.992800 0.228820 0.998500 1.416733
N1    N     N_3   0.774604 0.441233 0.369141 -0.680131
H27   H     H_    0.816635 0.447465 0.402296 0.232769
H28   H     H_    0.774829 0.319047 0.338933 0.246757
N2    N     N_3   0.242166 0.824254 0.614189 -0.682637
H29   H     H_    0.199219 0.827664 0.582789 0.235740
H30   H     H_    0.248766 0.953281 0.639335 0.244138
O21   O     O_3   0.900182 0.932980 0.623650 -0.557743
C69   C     C_3   0.919148 0.753068 0.605569 0.077215
H31   H     H_    0.879667 0.652927 0.603182 0.124566
H32   H     H_    0.957399 0.703181 0.645615 0.124909
C70   C     C_3   0.942844 0.758255 0.531302 -0.684153
H33   H     H_    0.983529 0.852437 0.532255 0.220407
H34   H     H_    0.957053 0.616911 0.516099 0.177582
H35   H     H_    0.905674 0.808194 0.490155 0.221376
O22   O     O_3   0.099919 0.437857 0.376315 -0.557945
C71   C     C_3   0.080975 0.258074 0.394893 0.076810
H36   H     H_    0.120867 0.159601 0.399286 0.124713
H37   H     H_    0.043801 0.205068 0.354061 0.124527
C72   C     C_3   0.055256 0.265356 0.467999 -0.685425
H38   H     H_    0.014021 0.357424 0.464809 0.219524
H39   H     H_    0.041288 0.124027 0.483767 0.178454
H40   H     H_    0.091171 0.319063 0.509904 0.221588
N3    N     N_3   0.718879 0.763159 0.883114 -0.702437
H41   H     H_    0.707099 0.626073 0.894227 0.236148
H42   H     H_    0.704699 0.847367 0.924209 0.222193
N4    N     N_3   0.280495 0.257664 0.117567 -0.703954
H43   H     H_    0.291784 0.119849 0.107221 0.235839
H44   H     H_    0.294901 0.339869 0.075955 0.222046

loop_
_geom_bond_atom_site_label_1
_geom_bond_atom_site_label_2
_ccdc_geom_bond_type
C42   C44   A    
C39   C41   A    
C69   H31   S    
C7    C29   A    
C11   C13   A    
C65   O18   A    
O1    C3    A    
O2    C4    A    
O16   V4    S    
C2    O7    A    
O15   V3    S    
C23   C25   A    
C57   H25   S    
O5    C3    A    
O13   C65   A    
C33   H13   S    
C62   C67   S    
C16   C20   A    
C55   H23   S    
C61   C68   S    
C22   C24   A    
C60   C62   A    
C70   H33   S    
N3    H42   S    
C54   C56   A    
C33   C35   A    
C54   C64   A    
C14   N4    S    
O20   V3    S    
C6    O22   S    
C36   C38   A    
C60   H20   S    
C45   C47   A    
C25   H11   S    
C38   C40   A    
C26   H12   S    
C39   C45   A    
C18   C26   A    
C41   C43   A    
C38   H16   S    
C15   C17   A    
O11   C67   A    
C40   C46   A    
C14   C16   A    
C19   C27   A    
C9    C31   A    
O15   C67   A    
C70   H35   S    
C48   H18   S    
C61   C63   A    
H4    C24   S    
O6    V2    S    
O14   V4    S    
C49   C51   A    
O13   V3    S    
C3    C32   S    
C33   C43   A    
C4    C31   S    
C6    C30   A    
N1    H28   S    
C72   H40   S    
C35   C37   A    
C52   C54   A    
C17   C25   A    
C48   C50   A    
C47   C49   A    
C12   H10   S    
C27   H5    S    
C71   H37   S    
O5    V1    S    
C69   C70   S    
C45   N1    S    
H1    C29   S    
C5    C29   A    
C40   C42   A    
O4    V2    S    
C9    H7    S    
C10   H8    S    
C72   H39   S    
C46   N2    S    
H3    C23   S    
C64   H22   S    
O6    C4    A    
O19   V4    S    
C13   N3    S    
C37   C39   A    
C58   H26   S    
C53   C55   A    
C8    C65   S    
C5    C21   A    
C59   H19   S    
C71   C72   S    
O2    V1    S    
C34   H14   S    
C50   C52   A    
O12   C68   A    
N4    H44   S    
C59   C61   A    
C43   C57   A    
O22   C71   S    
C17   C31   A    
C15   C19   A    
C20   C28   A    
O4    C2    A    
C18   C32   A    
N2    H30   S    
O3    V1    S    
C55   C57   A    
O12   V3    S    
C28   H6    S    
O16   C68   A    
C69   H32   S    
C1    C36   S    
C19   C21   A    
C7    C27   A    
C2    C35   S    
C50   C60   A    
N4    H43   S    
O3    C1    A    
N1    H27   S    
C11   H9    S    
O9    V2    S    
C71   H36   S    
C47   H17   S    
C10   C32   A    
C9    C11   A    
O1    V2    S    
C72   H38   S    
C10   C12   A    
C41   C51   A    
C66   O17   A    
O17   V3    S    
C44   C58   A    
C20   C22   A    
C6    C22   A    
C8    C30   A    
C12   C14   A    
C13   C15   A    
O8    V2    S    
N3    H41   S    
O18   V4    S    
C5    O21   S    
O21   C69   S    
O14   C66   A    
C8    C28   A    
C7    C66   S    
C24   C26   A    
C56   C58   A    
C62   C64   A    
O7    V1    S    
H2    C30   S    
C34   C44   A    
O11   V4    S    
C1    O8    A    
C53   C63   A    
C21   C23   A    
C51   C53   A    
O10   V1    S    
C46   C48   A    
C70   H34   S    
N2    H29   S    
C34   C36   A    
C49   C59   A    
C56   H24   S    
C42   C52   A    
C37   H15   S    
C16   C18   A    
C63   H21   S    
