data_mof_unit_9988.cif
_audit_creation_date              2012-12-11T14:01:17-0500
_audit_creation_method            fapswitch 2.2
_symmetry_space_group_name_H-M    P1
_symmetry_Int_Tables_number       1
_space_group_crystal_system       triclinic
_cell_length_a                    18.904629
_cell_length_b                    10.987981
_cell_length_c                    18.705204
_cell_angle_alpha                 89.833695
_cell_angle_beta                  89.339713
_cell_angle_gamma                 89.687245
_cell_volume                      3885.18270526

loop_
_atom_site_label
_atom_site_type_symbol
_atom_type_description
_atom_site_fract_x
_atom_site_fract_y
_atom_site_fract_z
_atom_type_partial_charge
C1    C     C_R   0.271932 0.043333 0.853260 0.545903
C2    C     C_R   0.727313 0.040484 0.145849 0.580985
C3    C     C_R   0.769537 0.547648 0.849679 0.581109
C4    C     C_R   0.228036 0.543552 0.146692 0.557872
C5    C     C_R   0.485336 0.054715 0.072798 -0.070885
C6    C     C_R   0.511678 0.056479 0.925945 -0.078268
C7    C     C_R   0.999356 0.559511 0.068120 -0.058309
C8    C     C_R   0.023909 0.551285 0.921089 -0.060824
C9    C     C_R   0.007999 0.667079 0.029340 -0.116544
C10   C     C_R   0.022332 0.662783 0.956347 -0.093630
C11   C     C_R   0.489225 0.164898 0.035866 -0.089814
C12   C     C_R   0.504476 0.165847 0.962987 -0.088575
C13   C     C_2   0.279569 0.699662 0.935899 0.034361
C14   C     C_2   0.758441 0.589090 0.080907 0.063139
C15   C     C_2   0.772409 0.196015 0.936230 0.033783
C16   C     C_2   0.220590 0.199597 0.064007 0.031464
C17   C     C_2   0.247272 0.586942 0.075791 -0.037447
C18   C     C_2   0.734095 0.609684 0.908053 -0.075316
C19   C     C_2   0.744576 0.069603 0.072680 -0.039997
C20   C     C_2   0.252687 0.086632 0.924149 -0.035045
C21   C     C_2   0.313284 0.595032 0.049293 -0.082801
C22   C     C_2   0.771094 0.663407 0.958198 -0.132033
C23   C     C_2   0.809684 0.096395 0.049334 -0.113977
C24   C     C_2   0.186761 0.095958 0.950760 -0.084370
C25   C     C_2   0.324187 0.625993 0.972600 -0.159222
C26   C     C_2   0.739359 0.667123 0.028861 -0.171729
C27   C     C_2   0.820211 0.130174 0.973694 -0.185501
C28   C     C_2   0.176088 0.126631 0.027465 -0.159706
C29   C     C_2   0.519817 0.837731 0.587920 -0.111214
C30   C     C_2   0.544496 0.827095 0.434404 -0.107821
C31   C     C_2   0.019818 0.337732 0.587921 -0.109777
C32   C     C_2   0.044494 0.327096 0.434403 -0.107753
C33   C     C_2   0.570707 0.744902 0.480103 -0.163903
C34   C     C_2   0.546667 0.739855 0.554597 -0.149414
C35   C     C_2   0.070706 0.244905 0.480103 -0.164290
C36   C     C_2   0.046668 0.239858 0.554598 -0.148343
C37   C     C_2   0.242337 0.558340 0.586740 -0.102851
C38   C     C_2   0.753498 0.565606 0.416988 -0.097822
C39   C     C_2   0.742339 0.058347 0.586737 -0.104146
C40   C     C_2   0.253490 0.065643 0.417001 -0.101527
C41   C     C_2   0.221748 0.519569 0.434570 -0.095273
C42   C     C_2   0.762068 0.571131 0.572372 -0.088651
C43   C     C_2   0.721753 0.019589 0.434569 -0.094577
C44   C     C_2   0.262057 0.071163 0.572385 -0.089722
C45   C     C_R   0.471967 0.822141 0.852670 0.529789
C46   C     C_R   0.528646 0.822336 0.146801 0.547205
C47   C     C_R   0.972509 0.321764 0.852232 0.533022
C48   C     C_R   0.029362 0.322761 0.146305 0.569138
C49   C     C_2   0.168065 0.538192 0.480273 -0.167990
C50   C     C_2   0.818037 0.559377 0.527735 -0.146540
C51   C     C_2   0.668069 0.038202 0.480272 -0.167979
C52   C     C_2   0.318027 0.059427 0.527747 -0.147026
C53   C     C_2   0.179716 0.572705 0.554506 -0.149801
C54   C     C_2   0.813442 0.583613 0.451928 -0.156514
C55   C     C_2   0.679718 0.072717 0.554503 -0.149946
C56   C     C_2   0.313431 0.083670 0.451944 -0.158296
C57   C     C_R   0.276942 0.696159 0.857001 0.567298
C58   C     C_R   0.741707 0.632043 0.151642 0.559836
C59   C     C_R   0.775958 0.195859 0.857349 0.568931
C60   C     C_R   0.223037 0.196075 0.142970 0.566526
C61   C     C_R   0.273677 0.043300 0.646575 0.554751
C62   C     C_R   0.708309 0.997441 0.360088 0.551162
C63   C     C_R   0.773683 0.543285 0.646567 0.548034
C64   C     C_R   0.208306 0.497433 0.360086 0.550973
C65   C     C_R   0.473418 0.824112 0.649761 0.552231
C66   C     C_R   0.562667 0.819119 0.359539 0.548478
C67   C     C_R   0.973420 0.324113 0.649763 0.553211
C68   C     C_R   0.062666 0.319120 0.359538 0.552340
C69   C     C_R   0.259439 0.632953 0.647920 0.567513
C70   C     C_R   0.740018 0.633883 0.352579 0.547776
C71   C     C_R   0.759440 0.132957 0.647918 0.565304
C72   C     C_R   0.240016 0.133888 0.352579 0.549824
C73   C     C_R   0.501766 0.830338 0.073944 0.011116
C74   C     C_R   0.501354 0.831059 0.924397 0.000790
C75   C     C_R   0.004389 0.332633 0.072815 0.023347
C76   C     C_R   0.003449 0.328997 0.923312 0.011572
C77   C     C_R   0.496693 0.942960 0.037001 0.025978
C78   C     C_R   0.503467 0.943588 0.961560 0.020977
C79   C     C_R   0.005550 0.444735 0.034304 0.032483
C80   C     C_R   0.011496 0.441669 0.958791 0.037240
C81   C     C_R   0.505025 0.721669 0.962406 -0.160914
C82   C     C_R   0.503113 0.721178 0.035454 -0.149441
C83   C     C_R   0.002691 0.220665 0.962679 -0.164448
C84   C     C_R   0.000611 0.222680 0.035686 -0.168398
Cr1   Cr    Cr6+3 0.230530 0.836340 0.748870 1.038722
Cr2   Cr    Cr6+3 0.769470 0.836340 0.251130 1.029053
Cr3   Cr    Cr6+3 0.730530 0.336340 0.748870 1.045674
Cr4   Cr    Cr6+3 0.269470 0.336340 0.251130 1.040002
Cr5   Cr    Cr6+3 0.387420 0.989430 0.750820 1.013384
Cr6   Cr    Cr6+3 0.612580 0.989430 0.249180 1.022614
Cr7   Cr    Cr6+3 0.887420 0.489430 0.750820 1.013380
Cr8   Cr    Cr6+3 0.112580 0.489430 0.249180 1.017814
Cr9   Cr    Cr6+3 0.385640 0.677860 0.749230 1.019910
Cr10  Cr    Cr6+3 0.614360 0.677860 0.250770 1.026315
Cr11  Cr    Cr6+3 0.885640 0.177860 0.749230 1.017453
Cr12  Cr    Cr6+3 0.114360 0.177860 0.250770 1.017516
H1    H     H_    0.505086 0.634181 0.935788 0.145889
H2    H     H_    0.506162 0.633236 0.061645 0.147233
H3    H     H_    0.998801 0.132515 0.937245 0.139233
H4    H     H_    0.999168 0.135619 0.063018 0.138695
H5    H     H_    0.114165 0.541497 0.460961 0.131996
H6    H     H_    0.870572 0.539258 0.547900 0.153519
H7    H     H_    0.614168 0.041495 0.460960 0.131929
H8    H     H_    0.370564 0.039311 0.547909 0.153029
H9    H     H_    0.137148 0.623798 0.580150 0.153659
H10   H     H_    0.858520 0.627842 0.426572 0.158846
H11   H     H_    0.637150 0.123811 0.580146 0.153912
H12   H     H_    0.358508 0.127903 0.426590 0.158011
H13   H     H_    0.276483 0.519948 0.451198 0.117108
H14   H     H_    0.708946 0.590764 0.553988 0.083073
H15   H     H_    0.776488 0.019983 0.451195 0.117847
H16   H     H_    0.208934 0.090791 0.554003 0.083559
H17   H     H_    0.283891 0.500779 0.564724 0.102291
H18   H     H_    0.710219 0.514429 0.440935 0.105412
H19   H     H_    0.783892 0.000784 0.564722 0.102120
H20   H     H_    0.210211 0.014464 0.440949 0.105451
H21   H     H_    0.471816 0.058059 0.129073 0.144885
H22   H     H_    0.525263 0.061422 0.869712 0.139493
H23   H     H_    0.985243 0.568072 0.123999 0.156792
H24   H     H_    0.035956 0.551560 0.864418 0.134662
H25   H     H_    0.003951 0.754072 0.056137 0.116549
H26   H     H_    0.030860 0.746245 0.926673 0.144463
H27   H     H_    0.481342 0.249856 0.064091 0.143545
H28   H     H_    0.509830 0.251591 0.934850 0.145840
H29   H     H_    0.358122 0.566376 0.081087 0.154583
H30   H     H_    0.828031 0.674692 0.952752 0.182285
H31   H     H_    0.854944 0.088291 0.084299 0.139130
H32   H     H_    0.141864 0.068279 0.919112 0.151543
H33   H     H_    0.364198 0.573062 0.944288 0.137422
H34   H     H_    0.701328 0.739886 0.039508 0.119941
H35   H     H_    0.865304 0.088752 0.946595 0.134545
H36   H     H_    0.136245 0.074062 0.055934 0.135809
H37   H     H_    0.202294 0.605810 0.041920 0.139335
H38   H     H_    0.678308 0.590070 0.917456 0.126971
H39   H     H_    0.700248 0.069795 0.036197 0.115262
H40   H     H_    0.297683 0.104621 0.957943 0.142463
H41   H     H_    0.604413 0.671471 0.460612 0.131933
H42   H     H_    0.544604 0.650506 0.579537 0.153808
H43   H     H_    0.104412 0.171475 0.460612 0.131798
H44   H     H_    0.044606 0.150509 0.579537 0.153772
H45   H     H_    0.508695 0.899293 0.451289 0.102322
H46   H     H_    0.526101 0.928509 0.565740 0.091853
H47   H     H_    0.008692 0.399293 0.451288 0.102956
H48   H     H_    0.026101 0.428511 0.565741 0.091522
O1    O     O_R   0.215090 0.709860 0.828130 -0.477455
O2    O     O_R   0.784910 0.709860 0.171870 -0.512339
O3    O     O_R   0.715090 0.209860 0.828130 -0.476233
O4    O     O_R   0.284910 0.209860 0.171870 -0.468584
O5    O     O_R   0.445660 0.919250 0.676780 -0.504857
O6    O     O_R   0.554340 0.919250 0.323220 -0.513982
O7    O     O_R   0.945660 0.419250 0.676780 -0.505739
O8    O     O_R   0.054340 0.419250 0.323220 -0.507506
O9    O     O_R   0.456260 0.718170 0.670000 -0.507486
O10   O     O_R   0.543740 0.718170 0.330000 -0.486344
O11   O     O_R   0.956260 0.218170 0.670000 -0.507607
O12   O     O_R   0.043740 0.218170 0.330000 -0.482581
O13   O     O_R   0.320940 0.626760 0.674370 -0.489151
O14   O     O_R   0.679060 0.626760 0.325630 -0.519015
O15   O     O_R   0.820940 0.126760 0.674370 -0.490547
O16   O     O_R   0.179060 0.126760 0.325630 -0.515380
O17   O     O_3   0.334530 0.834540 0.749640 -0.276797
O18   O     O_3   0.665470 0.834540 0.250360 -0.296541
O19   O     O_3   0.834530 0.334540 0.749640 -0.273949
O20   O     O_3   0.165470 0.334540 0.250360 -0.324680
O21   O     O_R   0.236990 0.958390 0.823710 -0.497578
O22   O     O_R   0.763010 0.958390 0.176290 -0.499588
O23   O     O_R   0.736990 0.458390 0.823710 -0.493013
O24   O     O_R   0.263010 0.458390 0.176290 -0.489074
O25   O     O_R   0.332380 0.074750 0.830850 -0.509765
O26   O     O_R   0.667620 0.074750 0.169150 -0.493593
O27   O     O_R   0.832380 0.574750 0.830850 -0.506277
O28   O     O_R   0.167620 0.574750 0.169150 -0.509992
O29   O     O_R   0.445800 0.917770 0.825070 -0.510745
O30   O     O_R   0.554200 0.917770 0.174930 -0.509638
O31   O     O_R   0.945800 0.417770 0.825070 -0.502989
O32   O     O_R   0.054200 0.417770 0.174930 -0.508662
O33   O     O_R   0.456410 0.716580 0.829970 -0.533139
O34   O     O_R   0.543590 0.716580 0.170030 -0.514057
O35   O     O_R   0.956410 0.216580 0.829970 -0.535953
O36   O     O_R   0.043590 0.216580 0.170030 -0.525735
O37   O     O_R   0.321080 0.625290 0.822650 -0.516077
O38   O     O_R   0.678920 0.625290 0.177350 -0.499566
O39   O     O_R   0.821080 0.125290 0.822650 -0.514895
O40   O     O_R   0.178920 0.125290 0.177350 -0.511776
O41   O     O_R   0.214930 0.711450 0.668160 -0.515171
O42   O     O_R   0.785070 0.711450 0.331840 -0.516592
O43   O     O_R   0.714930 0.211450 0.668160 -0.514566
O44   O     O_R   0.285070 0.211450 0.331840 -0.517635
O45   O     O_R   0.236850 0.959870 0.675420 -0.496607
O46   O     O_R   0.763150 0.959870 0.324580 -0.489582
O47   O     O_R   0.736850 0.459870 0.675420 -0.499512
O48   O     O_R   0.263150 0.459870 0.324580 -0.493136
O49   O     O_R   0.332230 0.076350 0.670880 -0.511695
O50   O     O_R   0.667770 0.076350 0.329120 -0.497018
O51   O     O_R   0.832230 0.576350 0.670880 -0.517075
O52   O     O_R   0.167770 0.576350 0.329120 -0.498975
C85   C     C_2   0.235513 0.792632 0.973757 0.537041
O53   O     O_2   0.176725 0.819296 0.951913 -0.535339
O54   O     O_R   0.261153 0.847344 0.035678 -0.703471
H49   H     H_    0.224503 0.900219 0.060547 0.339090
C86   C     C_2   0.813989 0.492812 0.072593 0.597307
O55   O     O_2   0.838829 0.444513 0.125787 -0.514245
O56   O     O_R   0.836028 0.453521 0.004867 -0.693334
H50   H     H_    0.868351 0.379945 0.006947 0.340812
C87   C     C_2   0.715356 0.273810 0.971687 0.579896
O57   O     O_2   0.664902 0.311049 0.937449 -0.520803
O58   O     O_R   0.719240 0.305962 0.043716 -0.674886
H51   H     H_    0.677015 0.355897 0.060639 0.331383
C88   C     C_2   0.264579 0.291951 0.025922 0.535487
O59   O     O_2   0.323482 0.317202 0.047522 -0.530672
O60   O     O_R   0.238725 0.347743 0.964089 -0.707470
H52   H     H_    0.275209 0.400557 0.939240 0.338426

loop_
_geom_bond_atom_site_label_1
_geom_bond_atom_site_label_2
_ccdc_geom_bond_type
C16   C28   D    
C69   O41   A    
Cr3   O19   S    
O56   H50   S    
C38   C70   S    
C60   O40   A    
C37   C69   S    
C42   C63   S    
C27   H35   S    
C86   O55   D    
C46   O34   A    
C35   C36   S    
Cr2   O22   S    
C53   H9    S    
Cr5   O29   S    
Cr6   O6    S    
C25   H33   S    
Cr10  O38   S    
C57   O37   A    
C81   C82   A    
C3    O23   A    
C9    H25   S    
C62   O46   A    
Cr12  O12   S    
C77   C78   A    
Cr8   O32   S    
C31   C67   S    
C50   C54   S    
C30   H45   S    
Cr3   O3    S    
Cr6   O18   S    
Cr11  O15   S    
C7    C79   A    
C16   C88   S    
Cr1   O1    S    
C47   C76   S    
C66   O6    A    
C45   O29   A    
C6    C12   A    
C38   H18   S    
C49   C53   S    
C75   C84   A    
C6    C78   A    
C37   H17   S    
C19   H39   S    
C20   H40   S    
C14   C86   S    
Cr1   O17   S    
C3    C18   S    
C7    C9    A    
C16   C60   S    
C41   C49   D    
C31   H48   S    
C85   O54   S    
C20   C24   D    
C72   O44   A    
C32   H47   S    
C65   O9    A    
C35   H43   S    
Cr9   O37   S    
C39   C55   D    
O60   H52   S    
C63   O51   A    
C33   H41   S    
C40   C56   D    
Cr6   O50   S    
Cr8   O8    S    
C69   O13   A    
C46   O30   A    
Cr2   O18   S    
C23   C27   S    
C74   C78   A    
C4    O28   A    
C9    C10   A    
Cr10  O18   S    
C51   C55   S    
C26   H34   S    
C45   O33   A    
C32   C68   S    
C37   C53   D    
Cr8   O20   S    
Cr5   O5    S    
O54   H49   S    
Cr10  O14   S    
C41   H13   S    
C21   H29   S    
C61   O45   A    
C86   O56   S    
C48   C75   S    
Cr7   O19   S    
C43   H15   S    
Cr12  O40   S    
Cr2   O2    S    
C76   C83   A    
Cr5   O17   S    
C64   O48   A    
C33   C34   S    
C87   O58   S    
Cr1   O41   S    
C14   C58   S    
Cr3   O23   S    
Cr2   O46   S    
C82   H2    S    
C67   O7    A    
O58   H51   S    
C84   H4    S    
C32   C35   D    
C7    H23   S    
C51   H7    S    
C24   H32   S    
C66   O10   A    
C54   H10   S    
Cr3   O43   S    
Cr4   O24   S    
C39   C71   S    
C87   O57   D    
C29   C34   D    
C34   H42   S    
C14   C26   D    
Cr12  O20   S    
C5    H21   S    
C45   C74   S    
C28   H36   S    
C19   C23   D    
C30   C33   D    
C68   O8    A    
Cr11  O19   S    
Cr7   O51   S    
C57   O1    A    
C15   C27   D    
C83   C84   A    
C38   C54   D    
C1    O21   A    
Cr10  O10   S    
Cr5   O49   S    
Cr6   O26   S    
C88   O59   D    
Cr4   O4    S    
Cr7   O31   S    
C15   C87   S    
Cr12  O36   S    
C59   O39   A    
C36   H44   S    
C30   C66   S    
C13   C85   S    
C42   C50   D    
C10   H26   S    
C4    C17   S    
C44   H16   S    
Cr11  O35   S    
Cr12  O16   S    
C2    O26   A    
Cr9   O17   S    
C50   H6    S    
C39   H19   S    
C47   O35   A    
C3    O27   A    
C5    C11   A    
C17   H37   S    
C29   C65   S    
C76   C80   A    
C62   O50   A    
C74   C81   A    
C5    C77   A    
C61   O49   A    
C73   C82   A    
C48   O36   A    
C8    H24   S    
Cr3   O47   S    
Cr4   O48   S    
C21   C25   S    
C52   H8    S    
C1    C20   S    
Cr9   O33   S    
C40   C72   S    
Cr11  O39   S    
C2    C19   S    
C18   C22   D    
C15   C59   S    
C11   H27   S    
C24   C28   S    
C71   O43   A    
Cr8   O52   S    
C68   O12   A    
Cr10  O34   S    
C44   C52   D    
C11   C12   A    
C58   O2    A    
Cr2   O42   S    
C67   O11   A    
C44   C61   S    
C71   O15   A    
Cr6   O30   S    
C23   H31   S    
C72   O16   A    
Cr7   O27   S    
C58   O38   A    
Cr1   O21   S    
Cr7   O7    S    
Cr9   O9    S    
C42   H14   S    
Cr5   O25   S    
Cr4   O20   S    
C75   C79   A    
C49   H5    S    
Cr9   O13   S    
C43   C51   D    
C40   H20   S    
C81   H1    S    
C13   C25   D    
Cr8   O28   S    
C63   O47   A    
C29   H46   S    
C64   O52   A    
C1    O25   A    
C88   O60   S    
C2    O22   A    
C18   H38   S    
Cr11  O11   S    
C65   O5    A    
C85   O53   D    
C17   C21   D    
C22   H30   S    
C70   O42   A    
C79   C80   A    
C4    O24   A    
Cr4   O44   S    
C13   C57   S    
C73   C77   A    
C8    C10   A    
C22   C26   S    
C55   H11   S    
C8    C80   A    
C56   H12   S    
C31   C36   D    
C83   H3    S    
C60   O4    A    
C41   C64   S    
C70   O14   A    
Cr1   O45   S    
C12   H28   S    
C6    H22   S    
C46   C73   S    
C47   O31   A    
C52   C56   S    
C43   C62   S    
C48   O32   A    
C59   O3    A    
