data_mof_unit_10208.cif
_audit_creation_date              2012-12-10T19:46:55-0500
_audit_creation_method            fapswitch 2.2
_symmetry_space_group_name_H-M    P1
_symmetry_Int_Tables_number       1
_space_group_crystal_system       triclinic
_cell_length_a                    10.878799
_cell_length_b                    10.875401
_cell_length_c                    13.118258
_cell_angle_alpha                 89.998257
_cell_angle_beta                  90.29536
_cell_angle_gamma                 90.127118
_cell_volume                      1552.01373573

loop_
_atom_site_label
_atom_site_type_symbol
_atom_type_description
_atom_site_fract_x
_atom_site_fract_y
_atom_site_fract_z
_atom_type_partial_charge
C1    C     C_R   0.506255 0.259671 0.499827 0.844939
C2    C     C_R   0.440616 0.877292 0.764885 -0.205019
C3    C     C_R   0.619410 0.119886 0.330017 0.010968
C4    C     C_R   0.380569 0.880112 0.669969 0.010957
C5    C     C_R   0.739269 0.171243 0.339269 0.359947
C6    C     C_R   0.260692 0.828803 0.660707 0.359922
C7    C     C_R   0.794067 0.224797 0.253556 -0.110675
C8    C     C_R   0.205873 0.775244 0.746409 -0.110686
C9    C     C_R   0.732455 0.230250 0.159891 0.410623
C10   C     C_R   0.267484 0.769736 0.840071 0.410627
C11   C     C_R   0.547619 0.933378 0.418201 -0.224963
C12   C     C_R   0.493744 0.740329 0.500172 0.844916
C13   C     C_R   0.452383 0.066621 0.581799 -0.224946
C14   C     C_R   0.493783 0.872827 0.500745 -0.110541
C15   C     C_R   0.506220 0.127173 0.499255 -0.110547
C16   C     C_R   0.259750 0.490694 0.499593 0.844270
C17   C     C_R   0.740250 0.509309 0.500407 0.844308
C18   C     C_R   0.444384 0.939505 0.583117 0.004263
C19   C     C_R   0.555615 0.060494 0.416880 0.004266
C20   C     C_1   0.500002 0.499971 0.173564 0.178703
C21   C     C_1   0.499998 0.500029 0.826436 0.178698
C22   C     C_1   0.499996 0.499978 0.050687 -0.032522
C23   C     C_R   0.873022 0.510309 0.501108 -0.087722
C24   C     C_1   0.500004 0.500021 0.949313 -0.032559
C25   C     C_R   0.149272 0.419716 0.133374 -0.129074
C26   C     C_R   0.850700 0.580285 0.866619 -0.129054
C27   C     C_R   0.102353 0.472010 0.222429 -0.175173
C28   C     C_R   0.897622 0.527989 0.777565 -0.175111
C29   C     C_R   0.115327 0.410946 0.316239 0.099830
C30   C     C_R   0.884671 0.589062 0.683758 0.099815
C31   C     C_R   0.175001 0.296609 0.319560 -0.137364
C32   C     C_R   0.825019 0.703410 0.680436 -0.137427
C33   C     C_R   0.220813 0.244173 0.230289 -0.145457
C34   C     C_R   0.126977 0.489696 0.498892 -0.087734
C35   C     C_R   0.779206 0.755849 0.769706 -0.145467
C36   C     C_R   0.208053 0.305529 0.137162 0.212153
C37   C     C_R   0.791941 0.694485 0.862831 0.212159
C38   C     C_R   0.932749 0.475630 0.411562 -0.177540
C39   C     C_R   0.067251 0.524377 0.588437 -0.177586
C40   C     C_R   0.940728 0.537780 0.590267 0.013091
C41   C     C_R   0.059271 0.462225 0.409733 0.013101
C42   C     C_R   0.614523 0.178254 0.151028 -0.225410
C43   C     C_R   0.385438 0.821681 0.848945 -0.225437
C44   C     C_R   0.559364 0.122650 0.235100 -0.205077
Cu1   Cu    Cu3+1 0.499990 0.499990 0.592680 0.995133
Cu2   Cu    Cu3+1 0.500010 0.500010 0.407320 0.995131
H1    H     H_    0.886225 0.261862 0.259562 0.169886
H2    H     H_    0.815961 0.752760 0.609064 0.132938
H3    H     H_    0.264469 0.155075 0.233386 0.145510
H4    H     H_    0.735570 0.844958 0.766609 0.145512
H5    H     H_    0.880120 0.454656 0.343417 0.158931
H6    H     H_    0.119879 0.545355 0.656582 0.158943
H7    H     H_    0.565594 0.180170 0.078985 0.171941
H8    H     H_    0.434368 0.819721 0.920986 0.171926
H9    H     H_    0.469205 0.081698 0.226311 0.168131
H10   H     H_    0.530792 0.918205 0.773681 0.168126
H11   H     H_    0.761683 0.124402 0.481989 0.328400
H12   H     H_    0.113702 0.738214 0.740395 0.169904
H13   H     H_    0.238312 0.875658 0.517986 0.328404
H14   H     H_    0.734301 0.283446 0.018667 0.325975
H15   H     H_    0.265623 0.716488 0.981282 0.325969
H16   H     H_    0.586744 0.881352 0.355736 0.172949
H17   H     H_    0.413256 0.118646 0.644263 0.172949
H18   H     H_    0.138777 0.467301 0.061384 0.178658
H19   H     H_    0.861176 0.532694 0.938607 0.178660
H20   H     H_    0.055523 0.559668 0.218320 0.160171
H21   H     H_    0.944435 0.440323 0.781675 0.160169
H22   H     H_    0.184077 0.247266 0.390934 0.132917
I1    I     I_    0.274444 0.224226 0.002260 -0.415948
I2    I     I_    0.725545 0.775790 0.997730 -0.415951
N1    N     N_1   0.500030 0.500030 0.268070 -0.137024
N2    N     N_1   0.499970 0.499970 0.731930 -0.137016
O1    O     O_R   0.499980 0.319630 0.578260 -0.582241
O2    O     O_3   0.193172 0.830072 0.571212 -0.738190
O3    O     O_3   0.790144 0.285986 0.078647 -0.722446
O4    O     O_3   0.209775 0.713995 0.921304 -0.722438
O5    O     O_R   0.500020 0.680370 0.421740 -0.582245
O6    O     O_R   0.500000 0.319650 0.421740 -0.576026
O7    O     O_R   0.500000 0.680350 0.578260 -0.576027
O8    O     O_R   0.319630 0.500000 0.578260 -0.583400
O9    O     O_R   0.680370 0.500000 0.421740 -0.583395
O10   O     O_R   0.319650 0.500020 0.421740 -0.570573
O11   O     O_R   0.680350 0.499980 0.578260 -0.570571
O12   O     O_3   0.806789 0.170024 0.428765 -0.738204

loop_
_geom_bond_atom_site_label_1
_geom_bond_atom_site_label_2
_ccdc_geom_bond_type
C27   C29   A    
C14   C18   A    
C11   H16   S    
Cu1   Cu2   S    
C15   C19   A    
C11   C19   A    
C9    C42   A    
C17   C23   S    
C13   C18   A    
C35   C37   A    
C42   H7    S    
C11   C14   A    
C33   H3    S    
C23   C40   A    
C12   O7    A    
C33   C36   A    
Cu1   O1    S    
C16   C34   S    
Cu2   O10   S    
C10   O4    S    
C31   C33   A    
C20   N1    T    
C3    C19   S    
C1    C15   S    
C4    C18   S    
C39   H6    S    
C37   I2    S    
Cu1   N2    S    
C1    O6    A    
C32   H2    S    
Cu1   O11   S    
C34   C41   A    
C42   C44   A    
C6    O2    S    
H15   O4    S    
C31   H22   S    
C3    C44   A    
C21   N2    T    
C34   C39   A    
C32   C35   A    
C28   H21   S    
C38   C41   A    
C4    C6    A    
C39   C40   A    
C5    C7    A    
C5    O12   S    
C6    C8    A    
C38   H5    S    
C17   O11   A    
C25   H18   S    
C7    H1    S    
C2    C4    A    
Cu2   O9    S    
C43   H8    S    
C13   H17   S    
C2    C43   A    
C12   O5    A    
C35   H4    S    
C16   O10   A    
H11   O12   S    
C30   C40   S    
Cu1   O7    S    
H13   O2    S    
Cu2   N1    S    
C12   C14   S    
C13   C15   A    
C22   C24   T    
C36   I1    S    
Cu2   O6    S    
C7    C9    A    
C8    H12   S    
C29   C41   S    
C10   C43   A    
C26   H19   S    
C20   C22   S    
C3    C5    A    
Cu2   O5    S    
C26   C37   A    
C25   C27   A    
C23   C38   A    
H14   O3    S    
C26   C28   A    
C1    O1    A    
C28   C30   A    
C29   C31   A    
C27   H20   S    
C2    H10   S    
C30   C32   A    
C44   H9    S    
Cu1   O8    S    
C17   O9    A    
C25   C36   A    
C8    C10   A    
C21   C24   S    
C9    O3    S    
C16   O8    A    
