data_mof_unit_41911.cif
_audit_creation_date              2013-03-05T15:55:17-0500
_audit_creation_method            fapswitch 2.2
_symmetry_space_group_name_H-M    P1
_symmetry_Int_Tables_number       1
_space_group_crystal_system       triclinic
_cell_length_a                    27.745733
_cell_length_b                    10.620009
_cell_length_c                    9.905937
_cell_angle_alpha                 89.94139
_cell_angle_beta                  89.900446
_cell_angle_gamma                 91.792399
_cell_volume                      2917.44849073

loop_
_atom_site_label
_atom_site_type_symbol
_atom_site_description
_atom_site_fract_x
_atom_site_fract_y
_atom_site_fract_z
_atom_type_partial_charge
O1    O     O_R   0.500000 0.316780 0.614690 -0.646026
O2    O     O_R   0.500000 0.316750 0.385360 -0.634588
C1    C     C_R   0.501280 0.260729 0.500087 0.851263
O3    O     O_R   0.428760 0.500030 0.614650 -0.591995
O4    O     O_R   0.428750 0.500010 0.385320 -0.643719
C2    C     C_R   0.406101 0.501249 0.500292 0.900308
Zn1   Zn    Zn3+2 0.500000 0.500020 0.653130 0.965988
Zn2   Zn    Zn3+2 0.500000 0.499980 0.346870 0.978299
O5    O     O_R   0.500000 0.683250 0.614640 -0.602602
O6    O     O_R   0.500000 0.683220 0.385310 -0.615184
O7    O     O_R   0.571250 0.499990 0.614680 -0.654121
O8    O     O_R   0.571240 0.499970 0.385350 -0.547079
C3    C     C_R   0.501475 0.739469 0.499901 0.879632
C4    C     C_R   0.593958 0.500238 0.499863 0.895795
C5    C     C_R   0.176456 0.376352 0.490239 0.518129
O9    O     O_2   0.200443 0.267917 0.497729 -0.539773
N1    N     N_R   0.201430 0.489116 0.484105 -0.351392
C6    C     C_R   0.178496 0.600836 0.476403 0.517508
C7    C     C_R   0.276305 0.541318 0.603050 -0.120913
C8    C     C_R   0.326413 0.546742 0.609115 0.256387
C9    C     C_R   0.329198 0.448824 0.386763 -0.250948
C10   C     C_R   0.279207 0.444593 0.381837 -0.077489
C11   C     C_R   0.252782 0.490862 0.489882 0.252208
C12   C     C_R   0.101492 0.487330 0.486197 -0.051054
C13   C     C_R   0.125998 0.373268 0.490662 -0.025497
C14   C     C_R   0.099815 0.259146 0.498059 -0.130458
C15   C     C_R   0.128141 0.602149 0.478265 -0.026090
C16   C     C_R   0.353362 0.499454 0.499930 -0.109692
H1    H     H_    0.348940 0.411688 0.302048 0.176656
H2    H     H_    0.260945 0.405987 0.293899 0.159252
H3    H     H_    0.117888 0.170292 0.503435 0.191267
C17   C     C_R   0.646724 0.496994 0.500612 -0.137139
C18   C     C_R   0.972955 0.369758 0.491428 0.046533
C19   C     C_R   0.975693 0.602167 0.506516 0.047144
C20   C     C_R   0.949125 0.485796 0.501846 0.076468
C21   C     C_R   0.944655 0.257243 0.478528 -0.207299
C22   C     C_R   0.894693 0.258416 0.481075 -0.120284
C23   C     C_R   0.871068 0.371563 0.496411 -0.032602
C24   C     C_R   0.898114 0.485563 0.507278 -0.049846
C25   C     C_R   0.874025 0.599455 0.522892 -0.029747
C26   C     C_R   0.823649 0.597285 0.526464 0.552734
N2    N     N_R   0.798313 0.485726 0.513737 -0.335917
C27   C     C_R   0.820689 0.373913 0.499035 0.572345
C28   C     C_R   0.719915 0.458619 0.625893 0.341316
C29   C     C_R   0.670015 0.463436 0.620723 -0.363538
C30   C     C_R   0.674128 0.526178 0.383781 0.454638
C31   C     C_R   0.724424 0.520476 0.390085 -0.263931
C32   C     C_R   0.747043 0.487111 0.510111 0.214834
O10   O     O_2   0.794173 0.265840 0.486218 -0.528252
C33   C     C_R   0.024030 0.369982 0.493394 0.047346
C34   C     C_R   0.050458 0.486675 0.490475 0.073217
C35   C     C_R   0.026472 0.602821 0.492458 0.046845
C36   C     C_R   0.049815 0.257242 0.499474 -0.210111
H4    H     H_    0.649486 0.440307 0.711010 0.207362
H5    H     H_    0.874625 0.169794 0.470566 0.193187
H6    H     H_    0.959908 0.166402 0.462901 0.139452
H7    H     H_    0.032519 0.165476 0.509010 0.138739
O11   O     O_2   0.204466 0.710183 0.467207 -0.536557
C37   C     C_R   0.104154 0.715506 0.472471 -0.127554
H8    H     H_    0.255359 0.577741 0.685869 0.173284
H9    H     H_    0.123871 0.804827 0.463440 0.193557
C38   C     C_R   0.950415 0.714263 0.526705 -0.209175
C39   C     C_R   0.900530 0.712677 0.534463 -0.125870
O12   O     O_2   0.800013 0.705583 0.541803 -0.538463
C40   C     C_R   0.054274 0.716100 0.479153 -0.211350
H10   H     H_    0.968148 0.805049 0.540076 0.139717
H11   H     H_    0.882801 0.801120 0.549176 0.191640
H12   H     H_    0.746316 0.542951 0.302104 0.160870
H13   H     H_    0.038572 0.807244 0.470708 0.139522
H14   H     H_    0.439322 0.109224 0.381539 0.147039
C41   C     C_R   0.581953 0.137922 0.625190 -0.174385
H15   H     H_    0.583988 0.239671 0.624679 0.152839
C42   C     C_R   0.619671 0.075294 0.685933 -0.101538
H16   H     H_    0.649182 0.128665 0.731974 0.171695
C43   C     C_R   0.619716 0.944266 0.685860 -0.108311
H17   H     H_    0.649257 0.895788 0.731909 0.162207
C44   C     C_R   0.582070 0.875424 0.624921 -0.182108
H18   H     H_    0.584195 0.773947 0.624119 0.144401
C45   C     C_R   0.543218 0.937532 0.564241 0.092466
C46   C     C_R   0.543146 0.069503 0.564422 0.096440
C47   C     C_R   0.504626 0.128734 0.499856 -0.078608
C48   C     C_R   0.468312 0.061717 0.431951 -0.185258
H19   H     H_    0.439451 0.880877 0.381265 0.165999
C49   C     C_R   0.468392 0.933144 0.431756 -0.167068
C50   C     C_R   0.504783 0.872032 0.499458 -0.094988
H20   H     H_    0.554300 0.641444 0.124883 0.171819
C51   C     C_R   0.436809 0.334700 0.140484 -0.209793
H21   H     H_    0.434764 0.329078 0.247517 0.213844
C52   C     C_R   0.405520 0.253361 0.070815 -0.326450
H22   H     H_    0.381456 0.190534 0.127246 0.159102
C53   C     C_R   0.405225 0.252981 0.929947 0.487043
C54   C     C_R   0.436649 0.334863 0.860334 -0.120104
H23   H     H_    0.434753 0.329984 0.753250 0.217558
C55   C     C_R   0.468778 0.418562 0.927959 0.091551
C56   C     C_R   0.468821 0.418556 0.072481 0.181078
N3    N     N_R   0.499540 0.498800 0.142780 -0.117888
C57   C     C_R   0.529885 0.577850 0.071281 -0.063504
H24   H     H_    0.554278 0.641391 0.874028 0.143407
C58   C     C_R   0.529877 0.577809 0.928101 -0.079199
N4    N     N_R   0.499520 0.498720 0.857170 -0.109545
O13   O     O_3   0.651497 0.561878 0.266229 -0.747732
H25   H     H_    0.676101 0.578830 0.195200 0.342732
O14   O     O_3   0.374728 0.173779 0.857040 -0.738076
H26   H     H_    0.354883 0.121989 0.920810 0.350258
Br1   Br    Br    0.750114 0.414977 0.792671 -0.473171
Br2   Br    Br    0.354695 0.626574 0.765547 -0.460939

loop_
_geom_bond_atom_site_label_1
_geom_bond_atom_site_label_2
_geom_bond_distance
_ccdc_geom_bond_type
C51   H21   1.063204 S    
O13   H25   0.991894 S    
C56   N3    1.376750 A    
C26   N2    1.364625 A    
C20   C24   1.416197 A    
C7    C8    1.391077 A    
Zn2   N3    2.021814 S    
C12   C15   1.408174 A    
C45   C50   1.410613 A    
C47   C48   1.390207 A    
C28   Br1   1.916715 S    
Zn1   O7    2.012601 S    
N1    C11   1.425614 S    
C25   C39   1.394640 A    
C21   C22   1.386864 A    
C22   C23   1.394974 A    
C23   C24   1.408604 A    
O7    C4    1.299225 A    
C5    C13   1.399349 A    
C5    O9    1.350010 S    
C19   C38   1.414692 A    
C18   C21   1.415151 A    
C5    N1    1.365917 A    
C19   C20   1.419901 A    
C42   H16   1.082832 S    
H20   C57   1.081808 S    
O5    C3    1.283320 A    
C6    O11   1.350276 S    
C2    C16   1.462826 S    
H19   C49   1.084970 S    
C51   C56   1.408175 A    
C1    C47   1.407756 S    
C52   C53   1.395475 A    
C12   C34   1.416322 A    
C14   H3    1.083652 S    
C9    C10   1.387290 A    
C42   C43   1.391556 A    
O3    Zn1   2.013681 S    
C41   C46   1.415590 A    
C57   C58   1.418331 A    
C33   C34   1.420330 A    
C8    Br2   1.923845 S    
C44   C45   1.415749 A    
C30   O13   1.382198 S    
C39   H11   1.083685 S    
C37   H9    1.083655 S    
C33   C36   1.415116 A    
Zn1   N4    2.021257 S    
C38   H10   1.077046 S    
C34   C35   1.419886 A    
C31   C32   1.395978 A    
C49   C50   1.390282 A    
O3    C2    1.296787 A    
C4    C17   1.465528 S    
C24   C25   1.408613 A    
C41   C42   1.394464 A    
C36   H7    1.076732 S    
C27   O10   1.349992 S    
C8    C16   1.415232 A    
C18   C33   1.417209 A    
C44   H18   1.081177 S    
C9    H1    1.082776 S    
O1    C1    1.283336 A    
C7    C11   1.397024 A    
C43   H17   1.082679 S    
C38   C39   1.385661 A    
C21   H6    1.076742 S    
C58   N4    1.366615 A    
C55   N4    1.376674 A    
Zn2   O8    2.013678 S    
N3    C57   1.366674 A    
C54   C55   1.409689 A    
N1    C6    1.365892 A    
C17   C29   1.405875 A    
N2    C32   1.423558 S    
C12   C13   1.408245 A    
C43   C44   1.394713 A    
C25   C26   1.397580 A    
C9    C16   1.405918 A    
O8    C4    1.298648 A    
C29   H4    1.083381 S    
C48   C49   1.365517 A    
C51   C52   1.390158 A    
N2    C27   1.364882 A    
C14   C36   1.386864 A    
C31   H12   1.083578 S    
C53   C54   1.393253 A    
C28   C29   1.388102 A    
Zn1   O5    1.982525 S    
C30   C31   1.400202 A    
C10   H2    1.083020 S    
O1    Zn1   1.983298 S    
C17   C30   1.412462 A    
O2    Zn2   1.982522 S    
C6    C15   1.397723 A    
C53   O14   1.379824 S    
C46   C47   1.410881 A    
O6    C3    1.283386 A    
O4    Zn2   2.012604 S    
C7    H8    1.083276 S    
C19   C35   1.415329 A    
O2    C1    1.283314 A    
C13   C14   1.395199 A    
C41   H15   1.080287 S    
C15   C37   1.394853 A    
C37   C40   1.385631 A    
O4    C2    1.300095 A    
C40   H13   1.077063 S    
C54   H23   1.063402 S    
C18   C20   1.420372 A    
C55   C56   1.431634 A    
H14   C48   1.084987 S    
C45   C46   1.401603 A    
C22   H5    1.083650 S    
C23   C27   1.398985 A    
Zn2   O6    1.983297 S    
H24   C58   1.081949 S    
C3    C50   1.407941 S    
O14   H26   0.991904 S    
C10   C11   1.394775 A    
C26   O12   1.350239 S    
C52   H22   1.083287 S    
C35   C40   1.414548 A    
C28   C32   1.398423 A    
