data_mof_unit_39441.cif
_audit_creation_date              2013-03-05T15:42:57-0500
_audit_creation_method            fapswitch 2.2
_symmetry_space_group_name_H-M    P1
_symmetry_Int_Tables_number       1
_space_group_crystal_system       triclinic
_cell_length_a                    6.897861
_cell_length_b                    14.350326
_cell_length_c                    15.985065
_cell_angle_alpha                 90.001463
_cell_angle_beta                  90.079655
_cell_angle_gamma                 90.077479
_cell_volume                      1582.30352423

loop_
_atom_site_label
_atom_site_type_symbol
_atom_site_description
_atom_site_fract_x
_atom_site_fract_y
_atom_site_fract_z
_atom_type_partial_charge
O1    O     O_R   0.469910 0.836130 0.163900 -0.556121
O2    O     O_R   0.530090 0.163870 0.836100 -0.571473
O3    O     O_R   0.530090 0.163870 0.663900 -0.534101
O4    O     O_R   0.469910 0.836130 0.336100 -0.563326
O5    O     O_R   0.969910 0.663870 0.336100 -0.529588
O6    O     O_R   0.030090 0.336130 0.663900 -0.562131
O7    O     O_R   0.030090 0.336130 0.836100 -0.571204
O8    O     O_R   0.969910 0.663870 0.163900 -0.561224
O9    O     O_R   0.140100 0.847470 0.335520 -0.506265
O10   O     O_R   0.859900 0.152530 0.664480 -0.550033
O11   O     O_R   0.859900 0.152530 0.835520 -0.525812
O12   O     O_R   0.140100 0.847470 0.164480 -0.570953
O13   O     O_R   0.640100 0.652530 0.164480 -0.530015
O14   O     O_R   0.359900 0.347470 0.835520 -0.534490
O15   O     O_R   0.359900 0.347470 0.664480 -0.505166
O16   O     O_R   0.640100 0.652530 0.335520 -0.545973
C1    C     C_R   0.312489 0.873818 0.361420 0.889477
C2    C     C_R   0.688125 0.131873 0.633958 0.772060
C3    C     C_R   0.687345 0.125576 0.861240 0.843433
C4    C     C_R   0.311468 0.868460 0.134196 0.812529
C5    C     C_R   0.812260 0.625423 0.138905 0.752926
C6    C     C_R   0.188870 0.368869 0.865584 0.728693
C7    C     C_R   0.187625 0.373843 0.638575 0.893656
C8    C     C_R   0.811787 0.631860 0.366057 0.782100
O17   O     O_3   0.303300 0.689750 0.250000 -0.259324
O18   O     O_3   0.696700 0.310250 0.750000 -0.266408
O19   O     O_3   0.803300 0.810250 0.250000 -0.279427
O20   O     O_3   0.196700 0.189750 0.750000 -0.265730
V1    V     V_3+5 0.028490 0.761170 0.250000 1.227068
V2    V     V_3+5 0.971510 0.238830 0.750000 1.228120
V3    V     V_3+5 0.528490 0.738830 0.250000 1.228380
V4    V     V_3+5 0.471510 0.261170 0.750000 1.247614
C9    C     C_2   0.840506 0.558226 0.431175 -0.189058
C10   C     C_2   0.163288 0.445622 0.570776 -0.213115
C11   C     C_2   0.163246 0.441789 0.931788 -0.190385
C12   C     C_2   0.836510 0.551211 0.072735 -0.204300
C13   C     C_2   0.338798 0.940988 0.067918 -0.175030
C14   C     C_2   0.661385 0.050860 0.927155 -0.222269
C15   C     C_2   0.659322 0.058324 0.568774 -0.181626
C16   C     C_2   0.336937 0.945613 0.429183 -0.210505
C17   C     C_2   0.971466 0.570363 0.495821 -0.063550
C18   C     C_2   0.000798 0.501671 0.565660 -0.121098
C19   C     C_2   0.039823 0.427328 0.998743 0.007467
C20   C     C_2   0.004963 0.498688 0.066526 0.027572
C21   C     C_2   0.460429 0.926180 0.000276 -0.049041
C22   C     C_2   0.494717 0.997244 0.932213 -0.122516
C23   C     C_2   0.528796 0.070545 0.504035 -0.066651
C24   C     C_2   0.499357 0.001883 0.434188 -0.119806
C25   C     C_2   0.858734 0.508667 0.635547 0.575404
H1    H     H_    0.895855 0.486071 0.698258 -0.005242
O21   O     O_2   0.698728 0.542681 0.623944 -0.570127
C26   C     C_2   0.069235 0.660714 0.510488 0.527305
H2    H     H_    0.026098 0.703367 0.563284 0.061281
O22   O     O_2   0.206321 0.684756 0.467378 -0.535149
C27   C     C_2   0.149695 0.495667 0.135889 0.563827
H3    H     H_    0.111739 0.517319 0.198723 -0.003335
O23   O     O_2   0.312428 0.465025 0.124031 -0.576027
C28   C     C_2   0.956062 0.333363 0.015299 0.584301
H4    H     H_    0.002866 0.273225 0.980013 0.071014
O24   O     O_2   0.834943 0.322077 0.070049 -0.535369
C29   C     C_2   0.350472 0.994327 0.862752 0.610217
H5    H     H_    0.388742 0.016481 0.800073 -0.027779
O25   O     O_2   0.187420 0.963803 0.874526 -0.572670
C30   C     C_2   0.544427 0.833135 0.980634 0.507801
H6    H     H_    0.667937 0.828684 0.938775 -0.010529
O26   O     O_2   0.472335 0.761050 0.006581 -0.549059
C31   C     C_2   0.641308 0.009028 0.364258 0.588573
H7    H     H_    0.604159 0.986258 0.301586 -0.027485
O27   O     O_2   0.801258 0.043344 0.375784 -0.568207
C32   C     C_2   0.431440 0.160877 0.489396 0.529476
H8    H     H_    0.474916 0.203605 0.436666 0.067046
O28   O     O_2   0.294316 0.184820 0.532449 -0.534904
C33   C     C_2   0.308324 0.446032 0.502570 0.576767
H9    H     H_    0.313218 0.501729 0.456811 0.015856
O29   O     O_2   0.421824 0.381531 0.495534 -0.541478
C34   C     C_2   0.749602 0.466788 0.413007 0.559969
H10   H     H_    0.634830 0.462503 0.366626 0.005515
O30   O     O_2   0.806597 0.395029 0.445861 -0.520353
C35   C     C_2   0.675657 0.542712 0.011277 0.565037
H11   H     H_    0.543877 0.581724 0.021640 0.102739
O31   O     O_2   0.687375 0.494045 0.948876 -0.585030
C36   C     C_2   0.249308 0.534317 0.912493 0.529056
H12   H     H_    0.352138 0.540499 0.861448 0.030935
O32   O     O_2   0.202963 0.604696 0.950358 -0.542360
C37   C     C_2   0.812131 0.042468 0.992614 0.597478
H13   H     H_    0.813794 0.984132 0.035775 -0.044758
O33   O     O_2   0.935259 0.102729 0.000021 -0.546949
C38   C     C_2   0.262074 0.034549 0.089260 0.551282
H14   H     H_    0.154831 0.041112 0.138557 0.001437
O34   O     O_2   0.321656 0.105251 0.055381 -0.518774
C39   C     C_2   0.191905 0.945926 0.497412 0.574167
H15   H     H_    0.187226 0.001608 0.543186 0.015671
O35   O     O_2   0.078125 0.881388 0.504436 -0.541761
C40   C     C_2   0.750147 0.966943 0.586799 0.550063
H16   H     H_    0.864846 0.962686 0.633205 -0.003785
O36   O     O_2   0.693181 0.895191 0.553793 -0.524475

loop_
_geom_bond_atom_site_label_1
_geom_bond_atom_site_label_2
_geom_bond_distance
_ccdc_geom_bond_type
O17   V3    1.704679 S    
C27   H3    1.083916 S    
O18   V4    1.704679 S    
O12   V1    1.998913 S    
O19   V1    1.706413 S    
C17   C18   1.502974 S    
C13   C38   1.483741 S    
C10   C18   1.382780 D    
C19   C20   1.510576 S    
O15   V4    1.998739 S    
C23   C32   1.479203 S    
C5    C12   1.510576 S    
C21   C22   1.509888 S    
O16   V3    1.998738 S    
C6    C11   1.499048 S    
O11   C3    1.317378 A    
O8    V1    2.000993 S    
C34   O30   1.221193 D    
C28   O24   1.221420 D    
O1    V3    2.001804 S    
O3    C2    1.277118 A    
O2    V4    2.001803 S    
C33   H9    1.083980 S    
C29   O25   1.221281 D    
C19   C28   1.490110 S    
O11   V2    1.998912 S    
C25   O21   1.221352 D    
C32   H8    1.084711 S    
C11   C19   1.383989 D    
C17   C26   1.479200 S    
O9    V1    1.997404 S    
O15   C7    1.314034 A    
C18   C25   1.490522 S    
C24   C31   1.490497 S    
O7    V2    2.000992 S    
C33   O29   1.218414 D    
C29   H5    1.084038 S    
C11   C36   1.486274 S    
C26   O22   1.220256 D    
O5    V1    2.001813 S    
C37   O33   1.216928 D    
O17   V1    2.156150 S    
C14   C37   1.479164 S    
O19   V3    2.153712 S    
C31   H7    1.084028 S    
O20   V4    2.153711 S    
C34   H10   1.085567 S    
C39   H15   1.083984 S    
C35   O31   1.220490 D    
C22   C29   1.490438 S    
C28   H4    1.080921 S    
C37   H13   1.084882 S    
C31   O27   1.221355 D    
C1    C16   1.504061 S    
C30   O26   1.220077 D    
C2    C15   1.495992 S    
C15   C40   1.482192 S    
C3    C14   1.513910 S    
C39   O35   1.218442 D    
O10   V2    1.997405 S    
C9    C34   1.482074 S    
C23   C24   1.502478 S    
C7    C10   1.504578 S    
O12   C4    1.312633 A    
O8    C5    1.282085 A    
O13   C5    1.315780 A    
O3    V4    2.002528 S    
C40   O36   1.221180 D    
O4    C1    1.279930 A    
O9    C1    1.313690 A    
O6    V2    2.001815 S    
C38   O34   1.221120 D    
O18   V2    2.156150 S    
C36   O32   1.220629 D    
C27   O23   1.221160 D    
C25   H1    1.084032 S    
C12   C20   1.389536 D    
C13   C21   1.386070 D    
C26   H2    1.084709 S    
C15   C23   1.382086 D    
C16   C24   1.382371 D    
O1    C4    1.278710 A    
O2    C3    1.280828 A    
O13   V3    2.000160 S    
O14   V4    2.000158 S    
C12   C35   1.485831 S    
O7    C6    1.280460 A    
C21   C30   1.489868 S    
C8    C9    1.496454 S    
C9    C17   1.382462 D    
C30   H6    1.085981 S    
O14   C6    1.311332 A    
O20   V2    1.706414 S    
C4    C13   1.497107 S    
C20   C27   1.491633 S    
O5    C8    1.276740 A    
O10   C2    1.314261 A    
O6    C7    1.279541 A    
C16   C39   1.481007 S    
C40   H16   1.085563 S    
C14   C22   1.384961 D    
O4    V3    2.002527 S    
C10   C33   1.480766 S    
C35   H11   1.081171 S    
C38   H14   1.085760 S    
O16   C8    1.314577 A    
C36   H12   1.085456 S    
C32   O28   1.220259 D    
