data_mof_unit_11441.cif
_audit_creation_date              2012-12-10T18:53:04-0500
_audit_creation_method            fapswitch 2.2
_symmetry_space_group_name_H-M    P1
_symmetry_Int_Tables_number       1
_space_group_crystal_system       triclinic
_cell_length_a                    9.89504
_cell_length_b                    10.644305
_cell_length_c                    16.6254
_cell_angle_alpha                 90.481871
_cell_angle_beta                  83.498401
_cell_angle_gamma                 89.784411
_cell_volume                      1739.74107543

loop_
_atom_site_label
_atom_site_type_symbol
_atom_type_description
_atom_site_fract_x
_atom_site_fract_y
_atom_site_fract_z
_atom_type_partial_charge
C1    C     C_R   0.500433 0.739533 0.497562 0.915882
C2    C     C_R   0.057869 0.551422 0.563587 0.023926
C3    C     C_R   0.085421 0.449617 0.436810 -0.095108
C4    C     C_R   0.914690 0.550491 0.563208 -0.088560
C5    C     C_R   0.479351 0.507189 0.653041 0.917570
C6    C     C_R   0.520865 0.499768 0.346373 0.907933
C7    C     C_R   0.464519 0.554787 0.735199 -0.045538
C8    C     C_R   0.538004 0.508912 0.258672 -0.056902
C9    C     C_R   0.369731 0.503846 0.794113 -0.089330
C10   C     C_R   0.430791 0.476320 0.214927 -0.123332
C11   C     C_R   0.364416 0.547677 0.873227 -0.168164
C12   C     C_R   0.499538 0.260480 0.502570 0.931534
C13   C     C_R   0.442813 0.494962 0.132295 -0.112175
C14   C     C_R   0.451814 0.644065 0.892963 -0.008610
C15   C     C_R   0.561086 0.548229 0.092637 0.066479
C16   C     C_R   0.536236 0.706458 0.831746 0.051381
C17   C     C_R   0.672086 0.579181 0.135604 0.019813
C18   C     C_R   0.542598 0.658885 0.752951 -0.210792
C19   C     C_R   0.658772 0.557956 0.218962 -0.163005
C20   C     C_2   0.477776 0.652889 0.977644 -0.217921
C21   C     C_2   0.564334 0.567518 0.005593 -0.096985
C22   C     C_2   0.650632 0.476377 0.953119 0.978169
C23   C     C_R   0.571614 0.932246 0.553149 -0.217403
C24   C     C_2   0.398837 0.748123 0.031231 1.039212
C25   C     C_2   0.626624 0.812834 0.848710 0.962141
C26   C     C_2   0.799980 0.637157 0.096955 0.940088
C27   C     C_2   0.637353 0.121760 0.625090 0.936492
C28   C     C_2   0.362874 0.878391 0.374951 0.950142
C29   C     C_2   0.889622 0.389485 0.365943 0.935597
C30   C     C_2   0.111365 0.609419 0.634049 0.956920
C31   C     C_R   0.428229 0.067754 0.447133 -0.212257
C32   C     C_R   0.569761 0.061422 0.559250 -0.026009
C33   C     C_R   0.430141 0.938599 0.440982 -0.029562
C34   C     C_R   0.498358 0.127948 0.504552 -0.103547
C35   C     C_R   0.501539 0.872054 0.495685 -0.098054
C36   C     C_R   0.942297 0.448470 0.436420 0.029886
H1    H     H_    0.358694 0.469690 0.098988 0.143139
H2    H     H_    0.237921 0.753493 0.965156 0.313688
H3    H     H_    0.787147 0.921102 0.808914 0.366183
H4    H     H_    0.997683 0.676354 0.104717 0.369005
H5    H     H_    0.785942 0.112256 0.698590 0.357812
H6    H     H_    0.215003 0.888201 0.300958 0.371866
H7    H     H_    0.773028 0.255254 0.323103 0.342522
H8    H     H_    0.225618 0.745278 0.677194 0.336858
H9    H     H_    0.150718 0.408224 0.386837 0.155663
H10   H     H_    0.849529 0.591842 0.613265 0.170498
H11   H     H_    0.299730 0.500163 0.920349 0.153999
H12   H     H_    0.623175 0.877507 0.595379 0.182796
H13   H     H_    0.376756 0.122540 0.404871 0.182517
H14   H     H_    0.305976 0.426111 0.779826 0.170553
H15   H     H_    0.337248 0.437617 0.244694 0.163293
H16   H     H_    0.740144 0.585327 0.253779 0.213926
H17   H     H_    0.610052 0.701559 0.704993 0.168367
H18   H     H_    0.746888 0.308382 0.945241 0.363393
N1    N     N_R   0.142790 0.500030 0.500020 -0.124529
N2    N     N_R   0.857210 0.499970 0.499980 -0.125669
O1    O     O_R   0.385380 0.683250 0.500010 -0.556799
O2    O     O_R   0.687006 0.361947 0.985632 -0.782688
O3    O     O_2   0.445591 0.789308 0.090987 -0.521489
O4    O     O_R   0.273386 0.795140 0.013444 -0.752293
O5    O     O_2   0.607705 0.871477 0.912548 -0.577238
O6    O     O_R   0.733058 0.847557 0.790605 -0.774678
O7    O     O_2   0.803166 0.689488 0.031582 -0.577801
O8    O     O_R   0.917397 0.633762 0.136555 -0.767859
O9    O     O_2   0.593266 0.220154 0.656428 -0.633475
O10   O     O_R   0.749458 0.063157 0.653252 -0.769504
O11   O     O_2   0.407090 0.780072 0.343611 -0.622984
O12   O     O_R   0.614620 0.316750 0.499990 -0.551364
O13   O     O_R   0.251122 0.937167 0.346481 -0.777624
O14   O     O_2   0.931503 0.424299 0.297777 -0.620549
O15   O     O_R   0.800164 0.288451 0.376290 -0.761659
O16   O     O_2   0.074940 0.569994 0.701892 -0.614543
O17   O     O_R   0.196742 0.713502 0.624093 -0.767167
O18   O     O_R   0.614710 0.683220 0.500000 -0.630994
O19   O     O_R   0.385290 0.316780 0.500000 -0.627476
O20   O     O_R   0.371780 0.500040 0.615800 -0.620259
O21   O     O_R   0.628220 0.499960 0.384200 -0.621991
O22   O     O_R   0.601110 0.500010 0.615800 -0.593000
O23   O     O_R   0.398890 0.499990 0.384200 -0.606321
O24   O     O_2   0.693877 0.502036 0.883458 -0.579107
Zn1   Zn    Zn3+2 0.346870 0.500020 0.500000 1.014431
Zn2   Zn    Zn3+2 0.653130 0.499980 0.500000 1.018645

loop_
_geom_bond_atom_site_label_1
_geom_bond_atom_site_label_2
_ccdc_geom_bond_type
C11   H11   S    
C28   O13   S    
C4    H10   S    
C12   O12   A    
C29   C36   S    
C36   N2    A    
C17   C26   S    
O21   Zn2   S    
C31   H13   S    
C2    N1    A    
C11   C14   A    
C15   C17   A    
C26   O8    S    
C18   H17   S    
C17   C19   A    
C3    N1    A    
C19   H16   S    
C20   C24   S    
C31   C33   A    
N1    Zn1   S    
C13   H1    S    
C21   C22   S    
C4    N2    A    
O18   Zn2   S    
C10   H15   S    
C8    C19   A    
C14   C20   S    
C28   O11   D    
C5    C7    S    
C30   O17   S    
O19   Zn1   S    
C6    O21   A    
C6    C8    S    
C3    H9    S    
H6    O13   S    
C32   C34   A    
C2    C4    A    
C26   O7    D    
C27   O9    D    
C1    O1    A    
O22   Zn2   S    
C24   O4    S    
C7    C18   A    
C31   C34   A    
C25   O5    D    
C9    C11   A    
H2    O4    S    
C16   C18   A    
C28   C33   S    
C23   C35   A    
C13   C15   A    
C14   C16   A    
C1    O18   A    
C12   C34   S    
C1    C35   S    
O23   Zn1   S    
C29   O14   D    
H18   O2    S    
C16   C25   S    
C7    C9    A    
H3    O6    S    
H7    O15   S    
C23   H12   S    
C27   C32   S    
C9    H14   S    
C10   C13   A    
O20   Zn1   S    
C22   O2    S    
C30   O16   D    
N2    Zn2   S    
H5    O10   S    
H4    O8    S    
C2    C30   S    
O12   Zn2   S    
C23   C32   A    
C5    O20   A    
C22   O24   D    
C27   O10   S    
C6    O23   A    
C3    C36   A    
C24   O3    D    
C33   C35   A    
O1    Zn1   S    
C25   O6    S    
H8    O17   S    
C15   C21   S    
C20   C21   D    
C8    C10   A    
C12   O19   A    
C5    O22   A    
C29   O15   S    
