data_mof_unit_58979.cif
_audit_creation_date              2012-12-10T17:43:37-0500
_audit_creation_method            fapswitch 2.2
_symmetry_space_group_name_H-M    P1
_symmetry_Int_Tables_number       1
_space_group_crystal_system       triclinic
_cell_length_a                    14.955771
_cell_length_b                    10.710463
_cell_length_c                    9.953706
_cell_angle_alpha                 90.891216
_cell_angle_beta                  89.753784
_cell_angle_gamma                 93.730415
_cell_volume                      1590.83748677

loop_
_atom_site_label
_atom_site_type_symbol
_atom_type_description
_atom_site_fract_x
_atom_site_fract_y
_atom_site_fract_z
_atom_type_partial_charge
C1    C     C_R   0.509399 0.261961 0.499372 0.863830
C2    C     C_R   0.909495 0.568299 0.605170 0.098648
C3    C     C_R   0.948928 0.403809 0.279584 -0.298169
C4    C     C_R   0.042041 0.406037 0.276491 0.206270
C5    C     C_R   0.091497 0.461495 0.384759 0.094161
C6    C     C_R   0.047411 0.518041 0.493864 -0.034433
C7    C     C_R   0.096468 0.575658 0.602255 0.101819
C8    C     C_R   0.051521 0.633098 0.709452 0.210884
C9    C     C_R   0.957957 0.626957 0.710859 -0.303365
C10   C     C_R   0.183942 0.458664 0.388294 -0.245638
C11   C     C_R   0.231790 0.511199 0.497260 -0.104261
C12   C     C_R   0.327135 0.503062 0.499818 0.898655
C13   C     C_R   0.189203 0.571369 0.602237 -0.261793
C14   C     C_R   0.580101 0.130961 0.733255 -0.160077
C15   C     C_R   0.576221 0.075874 0.859109 -0.135393
C16   C     C_R   0.530083 0.960218 0.874457 -0.180166
C17   C     C_R   0.496285 0.894246 0.761820 -0.184970
C18   C     C_R   0.508810 0.943419 0.630714 0.103638
C19   C     C_R   0.538416 0.069366 0.620679 0.090785
C20   C     C_R   0.521954 0.130323 0.499291 -0.130134
C21   C     C_R   0.500900 0.062503 0.381792 -0.228270
C22   C     C_R   0.489549 0.935023 0.385687 -0.213950
C23   C     C_R   0.495554 0.739949 0.502225 0.874182
C24   C     C_R   0.493238 0.874155 0.508554 -0.125224
C25   C     C_R   0.401630 0.313741 0.144090 -0.129516
C26   C     C_R   0.373109 0.202004 0.082701 -0.265712
C27   C     C_R   0.377963 0.191103 0.945135 -0.218920
C28   C     C_R   0.401541 0.297010 0.867957 0.275809
C29   C     C_R   0.451088 0.403743 0.928571 0.098171
C30   C     C_R   0.451101 0.407068 0.073065 0.079548
C31   C     C_R   0.549815 0.588649 0.071266 0.255470
C32   C     C_R   0.546697 0.589185 0.927903 -0.156108
C33   C     C_R   0.673074 0.501610 0.499885 0.875359
C34   C     C_R   0.816600 0.562243 0.606941 -0.243032
C35   C     C_R   0.768956 0.505504 0.499466 -0.068951
C36   C     C_R   0.812702 0.453916 0.390202 -0.242983
C37   C     C_R   0.905202 0.457417 0.387864 0.096900
C38   C     C_R   0.954163 0.515123 0.495404 0.053961
H1    H     H_    0.781390 0.603241 0.690551 0.154816
H2    H     H_    0.615537 0.221877 0.724966 0.159482
H3    H     H_    0.605499 0.125354 0.945559 0.141569
H4    H     H_    0.457098 0.808327 0.781249 0.172858
H5    H     H_    0.476449 0.884419 0.291937 0.181149
H6    H     H_    0.341276 0.126879 0.140961 0.160130
H7    H     H_    0.346698 0.107537 0.897901 0.152635
H8    H     H_    0.583531 0.660690 0.871269 0.167522
H9    H     H_    0.910826 0.360725 0.196678 0.148736
H10   H     H_    0.219066 0.412312 0.308258 0.184443
H11   H     H_    0.228789 0.612638 0.684423 0.185862
H12   H     H_    0.923161 0.669193 0.794032 0.147909
H13   H     H_    0.491322 0.107764 0.286915 0.180418
N1    N     N_R   0.499150 0.498800 0.142780 -0.158323
N2    N     N_R   0.499120 0.498720 0.857170 -0.139246
O1    O     O_R   0.500000 0.316780 0.614690 -0.624765
O2    O     O_R   0.499990 0.316750 0.385360 -0.639503
O3    O     O_R   0.367850 0.499980 0.614680 -0.584752
O4    O     O_R   0.367840 0.499960 0.385350 -0.644906
O5    O     O_R   0.500010 0.683250 0.614640 -0.637882
O6    O     O_R   0.500000 0.683220 0.385310 -0.632332
O7    O     O_R   0.632160 0.500040 0.614650 -0.625166
O8    O     O_R   0.632150 0.500020 0.385320 -0.644281
Zn1   Zn    Zn3+2 0.500010 0.500020 0.653130 0.939181
Zn2   Zn    Zn3+2 0.499990 0.499980 0.346870 0.923564
H14   H     H_    0.521089 0.920947 0.973555 0.154010
N3    N     N_2   0.604933 0.682529 0.141257 -0.294491
H15   H     H_    0.618987 0.661955 0.238320 0.295795
C39   C     C_3   0.682865 0.740489 0.074052 -0.876093
H16   H     H_    0.723351 0.799538 0.147088 0.250559
H17   H     H_    0.662468 0.803097 0.993652 0.251734
H18   H     H_    0.725413 0.667850 0.032241 0.246683
H19   H     H_    0.384181 0.324411 0.247270 0.208533
N4    N     N_2   0.353304 0.302045 0.746416 -0.229987
H20   H     H_    0.357997 0.222029 0.688253 0.217789
C40   C     C_3   0.259552 0.324438 0.766943 -0.787887
H21   H     H_    0.224157 0.319537 0.669256 0.237502
H22   H     H_    0.253624 0.418279 0.813719 0.254586
H23   H     H_    0.225844 0.251715 0.831486 0.221821
H24   H     H_    0.774609 0.409523 0.307913 0.158990
N5    N     N_2   0.085298 0.352614 0.163992 -0.317131
H25   H     H_    0.051449 0.272712 0.126267 0.226026
C41   C     C_3   0.108160 0.441471 0.059594 -0.798738
H26   H     H_    0.142474 0.393752 0.976793 0.244283
H27   H     H_    0.153884 0.519356 0.098929 0.255000
H28   H     H_    0.046544 0.479528 0.019001 0.237048
N6    N     N_2   0.099681 0.695390 0.816910 -0.316176
H29   H     H_    0.066575 0.690111 0.907990 0.227161
C42   C     C_3   0.132071 0.822358 0.787664 -0.812780
H30   H     H_    0.074746 0.881788 0.773241 0.244011
H31   H     H_    0.174541 0.825004 0.695800 0.248099
H32   H     H_    0.173249 0.861304 0.872901 0.237505

loop_
_geom_bond_atom_site_label_1
_geom_bond_atom_site_label_2
_ccdc_geom_bond_type
O5    Zn1   S    
C23   O5    A    
C42   H30   S    
C35   C36   A    
C31   N1    A    
C41   H26   S    
C26   H6    S    
C7    C8    A    
N6    H29   S    
C23   O6    A    
C26   C27   A    
C29   C30   A    
C40   H22   S    
C18   C24   A    
C36   C37   A    
C34   C35   A    
C5    C6    A    
C15   C16   A    
C18   C19   A    
O7    Zn1   S    
C8    N6    S    
O8    Zn2   S    
C17   H4    S    
C19   C20   A    
C8    C9    A    
N3    C39   S    
C40   H23   S    
O2    Zn2   S    
C23   C24   S    
C6    C38   A    
C25   H19   S    
C2    C34   A    
C21   C22   A    
C28   N4    S    
C41   H27   S    
O4    Zn2   S    
N6    C42   S    
C40   H21   S    
C39   H16   S    
C15   H3    S    
C4    N5    S    
N4    C40   S    
N5    C41   S    
C4    C5    A    
O1    Zn1   S    
C25   C26   A    
C34   H1    S    
C39   H17   S    
C1    O1    A    
C37   C38   A    
N2    Zn1   S    
C2    C38   A    
C31   C32   A    
C17   C18   A    
C12   O3    A    
C13   H11   S    
C12   O4    A    
C33   O7    A    
C42   H31   S    
C10   H10   S    
O3    Zn1   S    
C3    C4    A    
C32   N2    A    
C21   H13   S    
C41   H28   S    
C25   C30   A    
C31   N3    S    
C30   N1    A    
C28   C29   A    
C1    C20   S    
C32   H8    S    
C14   C19   A    
C9    H12   S    
N4    H20   S    
N1    Zn2   S    
C11   C12   S    
C6    C7    A    
O6    Zn2   S    
C39   H18   S    
C1    O2    A    
C5    C10   A    
C36   H24   S    
C11   C13   A    
C27   H7    S    
C16   C17   A    
C29   N2    A    
C3    H9    S    
C33   C35   S    
C22   C24   A    
C10   C11   A    
C14   H2    S    
N5    H25   S    
C7    C13   A    
C20   C21   A    
C3    C37   A    
C33   O8    A    
N3    H15   S    
C42   H32   S    
C27   C28   A    
C14   C15   A    
C16   H14   S    
C2    C9    A    
C22   H5    S    
