data_mof_unit_12046.cif
_audit_creation_date              2012-12-10T16:42:54-0500
_audit_creation_method            fapswitch 2.2
_symmetry_space_group_name_H-M    P1
_symmetry_Int_Tables_number       1
_space_group_crystal_system       triclinic
_cell_length_a                    7.496557
_cell_length_b                    8.70673
_cell_length_c                    12.929238
_cell_angle_alpha                 87.323092
_cell_angle_beta                  78.988012
_cell_angle_gamma                 102.614425
_cell_volume                      804.913059825

loop_
_atom_site_label
_atom_site_type_symbol
_atom_type_description
_atom_site_fract_x
_atom_site_fract_y
_atom_site_fract_z
_atom_type_partial_charge
Br1   Br    Br    0.302206 0.208419 0.220262 -0.481102
Br2   Br    Br    0.697808 0.791575 0.779736 -0.481092
Br3   Br    Br    0.212839 0.928040 0.627831 -0.429566
Br4   Br    Br    0.787166 0.071961 0.372172 -0.429573
C1    C     C_R   0.453843 0.200263 0.504773 0.885866
C2    C     C_R   0.669708 0.656011 0.126528 0.064568
C3    C     C_R   0.557201 0.595956 0.862251 0.165604
C4    C     C_R   0.442802 0.404043 0.137749 0.165605
C5    C     C_R   0.557703 0.569921 0.970108 0.039947
C6    C     C_R   0.442293 0.430081 0.029893 0.039947
C7    C     C_2   0.431159 0.033862 0.522276 0.019765
C8    C     C_2   0.568842 0.966138 0.477725 0.019761
C9    C     C_R   0.546157 0.799737 0.495227 0.885867
C10   C     C_R   0.466262 0.494902 0.700900 0.884600
C11   C     C_R   0.533737 0.505097 0.299100 0.884598
C12   C     C_R   0.552636 0.519696 0.185626 -0.078779
C13   C     C_R   0.447363 0.480305 0.814374 -0.078778
C14   C     C_R   0.327589 0.320110 0.980756 -0.176780
C15   C     C_R   0.672396 0.679900 0.019247 -0.176777
C16   C     C_R   0.330276 0.344000 0.873475 0.064572
Cu1   Cu    Cu3+1 0.686350 0.517570 0.488220 1.077166
Cu2   Cu    Cu3+1 0.313650 0.482430 0.511780 1.077166
H1    H     H_    0.236193 0.213652 0.023932 0.198220
H2    H     H_    0.069992 0.765223 0.413324 0.259861
H3    H     H_    0.763780 0.786367 0.976074 0.198219
H4    H     H_    0.743520 0.880491 0.164331 0.258021
H5    H     H_    0.921244 0.787994 0.138737 0.241925
H6    H     H_    0.256361 0.119513 0.835703 0.258021
H7    H     H_    0.078713 0.212099 0.861255 0.241913
H8    H     H_    0.933451 0.367381 0.676854 0.226773
H9    H     H_    0.929994 0.234780 0.586692 0.259854
H10   H     H_    0.066554 0.632639 0.323153 0.226775
N1    N     N_2   0.033570 0.455950 0.529530 0.017996
N2    N     N_2   0.966430 0.544050 0.470470 0.017989
N3    N     N_3   0.781415 0.773411 0.176441 -0.552483
N4    N     N_3   0.218539 0.226619 0.823567 -0.552483
N5    N     N_3   0.903908 0.345292 0.602470 -0.385365
N6    N     N_3   0.096091 0.654719 0.397538 -0.385367
O1    O     O_R   0.621060 0.286250 0.492350 -0.558389
O2    O     O_R   0.378940 0.713750 0.507650 -0.558389
O3    O     O_R   0.306310 0.256580 0.512240 -0.551373
O4    O     O_R   0.693690 0.743420 0.487760 -0.551377
O5    O     O_R   0.631800 0.512400 0.642670 -0.557137
O6    O     O_R   0.368200 0.487600 0.357330 -0.557138
O7    O     O_R   0.317060 0.482730 0.662570 -0.569327
O8    O     O_R   0.682940 0.517270 0.337430 -0.569325

loop_
_geom_bond_atom_site_label_1
_geom_bond_atom_site_label_2
_ccdc_geom_bond_type
H2    N6    S    
C7    C8    D    
Cu1   N2    S    
H10   N6    S    
Br4   C8    S    
Br1   C4    S    
C5    C6    A    
Br2   C3    S    
Cu1   O1    S    
Cu2   O2    S    
Cu2   O7    S    
N1    N2    D    
C4    C12   A    
Cu1   O5    S    
Cu1   Cu2   S    
C2    N3    S    
C2    C15   A    
H7    N4    S    
C6    C14   A    
C9    O4    A    
C11   O6    A    
C1    C7    S    
C10   O7    A    
C14   C16   A    
C1    O1    A    
C15   H3    S    
N1    N5    S    
Cu2   O3    S    
Br3   C7    S    
C2    C12   A    
C14   H1    S    
C16   N4    S    
H9    N5    S    
H4    N3    S    
C13   C16   A    
C8    C9    S    
H6    N4    S    
C4    C6    A    
Cu1   O8    S    
C3    C5    A    
Cu2   N1    S    
C1    O3    A    
C9    O2    A    
Cu1   O4    S    
C11   O8    A    
H5    N3    S    
N2    N6    S    
C5    C15   A    
Cu2   O6    S    
C11   C12   S    
H8    N5    S    
C10   O5    A    
C3    C13   A    
C10   C13   S    
