data_mof_unit_23293.cif
_audit_creation_date              2012-12-11T16:05:02-0500
_audit_creation_method            fapswitch 2.2
_symmetry_space_group_name_H-M    P1
_symmetry_Int_Tables_number       1
_space_group_crystal_system       triclinic
_cell_length_a                    10.676854
_cell_length_b                    10.677367
_cell_length_c                    16.877677
_cell_angle_alpha                 99.084128
_cell_angle_beta                  98.650628
_cell_angle_gamma                 61.323311
_cell_volume                      1660.69224686

loop_
_atom_site_label
_atom_site_type_symbol
_atom_type_description
_atom_site_fract_x
_atom_site_fract_y
_atom_site_fract_z
_atom_type_partial_charge
C1    C     C_R   0.355772 0.773158 0.398001 0.556086
C2    C     C_3   0.400067 0.683820 0.248196 -0.135137
C3    C     C_3   0.351150 0.805523 0.317388 0.060441
C4    C     C_R   0.405674 0.373238 0.357129 0.546529
C5    C     C_3   0.424057 0.876993 0.284399 0.018954
C6    C     C_3   0.281602 0.966124 0.236283 -0.089353
C7    C     C_3   0.209870 0.891115 0.269192 -0.127647
C8    C     C_3   0.257443 0.770848 0.199385 -0.124150
C9    C     C_3   0.329067 0.844851 0.167020 0.045476
C10   C     C_3   0.463605 0.273786 0.779910 -0.141779
C11   C     C_3   0.395443 0.415455 0.739695 -0.167059
C12   C     C_3   0.743359 0.292134 0.238809 -0.152043
C13   C     C_3   0.344147 0.340726 0.666096 0.020554
C14   C     C_3   0.413300 0.200070 0.705120 -0.110357
C15   C     C_3   0.269399 0.251687 0.739443 -0.034285
C16   C     C_R   0.719918 0.408091 0.389845 0.538054
C17   C     C_3   0.201358 0.392335 0.700168 0.042051
C18   C     C_3   0.251998 0.464686 0.775142 0.025238
C19   C     C_3   0.320390 0.324220 0.814599 0.026317
C20   C     C_1   0.809084 0.346380 0.711214 -0.029616
C21   C     C_1   0.834865 0.318825 0.779685 -0.042891
C22   C     C_1   0.360012 0.760513 0.714925 -0.041898
C23   C     C_3   0.785228 0.367698 0.314837 0.041120
C24   C     C_1   0.329334 0.805749 0.783102 -0.019516
C25   C     C_R   0.954750 0.286525 0.102906 0.548655
C26   C     C_R   0.321610 0.302743 0.119311 0.537468
C27   C     C_R   0.296702 0.887003 0.086623 0.541227
C28   C     C_R   0.380113 0.714533 0.631320 0.541177
C29   C     C_R   0.880267 0.301301 0.862203 0.539627
C30   C     C_R   0.309011 0.294846 0.892830 0.574427
C31   C     C_R   0.284040 0.877250 0.860715 0.554174
C32   C     C_R   0.369635 0.348016 0.586769 0.583985
C33   C     C_R   0.770011 0.381958 0.630625 0.565225
C34   C     C_3   0.944327 0.272763 0.304185 0.067665
C35   C     C_1   0.373352 0.360475 0.272642 -0.066152
C36   C     C_1   0.347784 0.343125 0.201566 -0.072813
C37   C     C_3   0.904597 0.195204 0.227085 -0.147607
C38   C     C_3   0.206267 0.151749 0.741070 -0.281274
C39   C     C_3   0.160749 0.102106 0.657150 -0.396051
C40   C     C_2   0.063292 0.461381 0.648911 0.580072
C41   C     C_2   0.161148 0.611145 0.814813 0.601038
C42   C     C_2   0.053880 0.208603 0.372784 0.572534
C43   C     C_3   0.523447 0.930645 0.334400 -0.260000
C44   C     C_3   0.602483 0.966524 0.280682 -0.405581
C45   C     C_3   0.941312 0.384727 0.255613 -0.124617
C46   C     C_3   0.780750 0.480623 0.267056 -0.143383
C47   C     C_3   0.738775 0.405070 0.189963 -0.112764
C48   C     C_3   0.898588 0.309546 0.179575 0.031106
C49   C     C_3   0.471649 0.757805 0.213785 -0.126060
Cr1   Cr    Cr6+3 0.608340 0.611040 0.520430 1.026859
Cr2   Cr    Cr6+3 0.287650 0.601120 0.489350 1.067252
Cr3   Cr    Cr6+3 0.604040 0.287870 0.490280 1.025943
Cr4   Cr    Cr6+3 0.054020 0.052700 0.970850 1.030180
Cr5   Cr    Cr6+3 0.059230 0.375120 0.993390 1.050401
Cr6   Cr    Cr6+3 0.374950 0.061200 0.992340 1.018805
H1    H     H_    0.661996 0.254295 0.233872 0.118163
H2    H     H_    0.733979 0.596368 0.288275 0.128171
H3    H     H_    0.656290 0.456738 0.140604 0.131966
H4    H     H_    0.450244 0.567982 0.255768 0.089709
H5    H     H_    0.573011 0.709073 0.184488 0.111540
H6    H     H_    0.073277 0.193634 0.627206 0.200388
H7    H     H_    0.252904 0.047626 0.619457 0.180926
H8    H     H_    0.119895 0.026058 0.662284 0.177634
H9    H     H_    0.291115 0.058021 0.769721 0.171463
H10   H     H_    0.115001 0.204911 0.778556 0.159068
H11   H     H_    0.961949 0.470164 0.537564 0.374783
H12   H     H_    0.234327 0.082172 0.229092 0.120594
H13   H     H_    0.076681 0.732796 0.916353 0.346340
H14   H     H_    0.233232 0.193316 0.439112 0.348432
H15   H     H_    0.673032 0.868833 0.243424 0.136390
H16   H     H_    0.524885 0.047987 0.240453 0.184234
H17   H     H_    0.670998 0.008860 0.318431 0.168627
H18   H     H_    0.459507 0.026367 0.374840 0.193004
H19   H     H_    0.603875 0.845951 0.372119 0.154722
H20   H     H_    0.105635 0.937150 0.295005 0.153738
H21   H     H_    0.190141 0.726015 0.162605 0.138394
H22   H     H_    0.450281 0.480177 0.737161 0.101712
H23   H     H_    0.570512 0.226708 0.814190 0.145166
H24   H     H_    0.478044 0.091794 0.674486 0.149682
H25   H     H_    0.950810 0.080400 0.204101 0.121578
H26   H     H_    0.023946 0.421088 0.260266 0.147042
O1    O     O_R   0.751220 0.499230 0.435170 -0.523050
O2    O     O_R   0.412990 0.180750 0.091610 -0.517265
O3    O     O_R   0.366620 0.943130 0.065760 -0.504110
O4    O     O_R   0.477220 0.727600 0.436870 -0.531895
O5    O     O_R   0.160510 0.906330 0.879210 -0.470583
O6    O     O_R   0.930190 0.179050 0.889450 -0.490009
O7    O     O_R   0.909140 0.398170 0.896710 -0.493016
O8    O     O_R   0.186190 0.363460 0.918830 -0.459749
O9    O     O_R   0.401670 0.173200 0.913310 -0.520798
O10   O     O_R   0.356120 0.936130 0.900470 -0.509594
O11   O     O_3   0.162740 0.163010 0.985530 -0.286844
O12   O     O_R   0.297880 0.469080 0.560050 -0.476628
O13   O     O_R   0.258650 0.745120 0.411470 -0.501761
O14   O     O_R   0.297070 0.467240 0.395960 -0.459724
O15   O     O_R   0.488830 0.252610 0.387790 -0.526934
O16   O     O_R   0.724400 0.302390 0.420980 -0.475905
O17   O     O_R   0.752100 0.501210 0.612190 -0.466655
O18   O     O_R   0.478040 0.729440 0.600970 -0.492538
O19   O     O_R   0.259530 0.747110 0.588490 -0.485135
O20   O     O_2   0.961995 0.568978 0.676123 -0.456301
O21   O     O_R   0.054461 0.406810 0.568585 -0.691947
O22   O     O_2   0.097588 0.712414 0.774099 -0.465114
O23   O     O_R   0.489720 0.254590 0.564810 -0.524445
O24   O     O_R   0.147019 0.630990 0.897432 -0.687327
O25   O     O_2   0.040982 0.131589 0.413867 -0.505889
O26   O     O_R   0.168344 0.240199 0.390565 -0.685803
O27   O     O_R   0.725220 0.304230 0.585080 -0.490704
O28   O     O_3   0.500010 0.500010 0.500020 -0.331346
O29   O     O_R   0.171830 0.913880 0.057510 -0.531244
O30   O     O_R   0.940690 0.186050 0.054730 -0.497799
O31   O     O_R   0.920470 0.405720 0.075010 -0.513478
O32   O     O_R   0.196690 0.370460 0.084120 -0.506482

loop_
_geom_bond_atom_site_label_1
_geom_bond_atom_site_label_2
_ccdc_geom_bond_type
Cr4   O29   S    
C43   H18   S    
C11   C18   S    
C26   O2    A    
C34   C37   S    
H11   O21   S    
C13   C32   S    
C35   C36   T    
C34   C42   S    
C30   O9    A    
C6    C9    S    
H14   O26   S    
C7    C8    S    
C45   C46   S    
C15   C19   S    
C12   C23   S    
Cr1   O1    S    
Cr1   O18   S    
C49   H5    S    
C41   O24   S    
C27   O3    A    
C33   O17   A    
Cr6   O9    S    
C3    C7    S    
C30   O8    A    
C38   C39   S    
C16   O16   A    
Cr5   O32   S    
Cr3   O16   S    
C8    H21   S    
C44   H16   S    
C18   C19   S    
C12   C37   S    
C29   O7    A    
Cr6   O10   S    
C11   H22   S    
Cr1   O4    S    
C40   O20   D    
C4    O15   A    
C44   H17   S    
C27   O29   A    
C8    C9    S    
C32   O23   A    
C44   H15   S    
Cr4   O5    S    
C42   O26   S    
C25   O31   A    
Cr4   O30   S    
C43   H19   S    
C32   O12   A    
C5    C43   S    
C4    C35   S    
Cr2   O28   S    
C23   C46   S    
C22   C28   S    
C13   C14   S    
C1    O4    A    
C5    C49   S    
C33   O27   A    
C12   C47   S    
C38   H9    S    
C10   H23   S    
C39   H6    S    
C37   H25   S    
C45   H26   S    
Cr1   O17   S    
C29   O6    A    
C9    C49   S    
Cr5   O8    S    
C10   C14   S    
C18   C41   S    
C2    H4    S    
C1    O13   A    
C7    H20   S    
C21   C29   S    
Cr1   O28   S    
C41   O22   D    
C1    C3    S    
C17   C40   S    
C43   C44   S    
C15   C38   S    
Cr5   O11   S    
Cr6   O11   S    
C2    C49   S    
C4    O14   A    
C47   C48   S    
C38   H10   S    
C10   C19   S    
C23   C34   S    
Cr4   O11   S    
C16   O1    A    
C17   C18   S    
Cr5   O31   S    
Cr4   O6    S    
C34   C45   S    
C14   H24   S    
C37   C48   S    
C42   O25   D    
C25   C48   S    
C12   H1    S    
Cr2   O12   S    
C20   C33   S    
C28   O18   A    
C26   C36   S    
C6    H12   S    
C16   C23   S    
C31   O10   A    
C46   H2    S    
C22   C24   T    
H13   O24   S    
Cr6   O2    S    
C9    C27   S    
C45   C48   S    
Cr2   O19   S    
C15   C17   S    
C39   H7    S    
C46   C47   S    
Cr3   O23   S    
C2    C8    S    
C3    C5    S    
C6    C7    S    
C39   H8    S    
C13   C17   S    
C2    C3    S    
C24   C31   S    
C47   H3    S    
Cr5   O7    S    
C11   C13   S    
C28   O19   A    
C5    C6    S    
Cr3   O28   S    
Cr3   O15   S    
C26   O32   A    
C10   C11   S    
C25   O30   A    
Cr2   O13   S    
C40   O21   S    
C20   C21   T    
Cr3   O27   S    
C31   O5    A    
C14   C15   S    
Cr6   O3    S    
C19   C30   S    
Cr2   O14   S    
