data_mof_unit_14627.cif
_audit_creation_date              2012-12-11T15:45:06-0500
_audit_creation_method            fapswitch 2.2
_symmetry_space_group_name_H-M    P1
_symmetry_Int_Tables_number       1
_space_group_crystal_system       triclinic
_cell_length_a                    19.189489
_cell_length_b                    11.055714
_cell_length_c                    18.684259
_cell_angle_alpha                 90.178232
_cell_angle_beta                  90.174162
_cell_angle_gamma                 89.615462
_cell_volume                      3963.80446702

loop_
_atom_site_label
_atom_site_type_symbol
_atom_type_description
_atom_site_fract_x
_atom_site_fract_y
_atom_site_fract_z
_atom_type_partial_charge
C1    C     C_R   0.760153 0.534710 0.646667 0.534194
C2    C     C_R   0.238468 0.532387 0.353876 0.535309
C3    C     C_R   0.260140 0.034748 0.646687 0.535683
C4    C     C_R   0.738463 0.032377 0.353885 0.537789
C5    C     C_R   0.721948 0.002001 0.550160 -0.163286
C6    C     C_R   0.162870 0.117862 0.480702 -0.167614
C7    C     C_R   0.222156 0.501804 0.550163 -0.163923
C8    C     C_R   0.662859 0.618036 0.480717 -0.167591
C9    C     C_R   0.711363 0.985442 0.477032 -0.113157
C10   C     C_R   0.174383 0.091495 0.552877 -0.162971
C11   C     C_R   0.211551 0.485223 0.477037 -0.111838
C12   C     C_R   0.674392 0.591587 0.552878 -0.162774
C13   C     C_3   0.792113 0.281565 0.435065 -0.293916
C14   C     C_3   0.366163 0.145583 0.532014 -0.252126
C15   C     C_3   0.291808 0.781753 0.434954 -0.296747
C16   C     C_3   0.866221 0.645336 0.531934 -0.252514
C17   C     C_3   0.801152 0.302330 0.514766 -0.256045
C18   C     C_3   0.353073 0.174266 0.453699 -0.262063
C19   C     C_3   0.300814 0.802619 0.514662 -0.254016
C20   C     C_3   0.853122 0.674133 0.453636 -0.262009
C21   C     C_R   0.761600 0.099894 0.572954 0.035162
C22   C     C_R   0.217561 0.160517 0.438319 -0.000014
C23   C     C_R   0.261602 0.599955 0.572943 0.035186
C24   C     C_R   0.717567 0.660580 0.438314 0.000462
C25   C     C_R   0.002579 0.347656 0.428483 -0.046369
C26   C     C_R   0.009444 0.329618 0.578905 -0.046437
C27   C     C_R   0.502333 0.847678 0.428355 -0.047512
C28   C     C_R   0.509265 0.829705 0.578780 -0.046595
C29   C     C_R   0.965670 0.134874 0.421574 -0.089901
C30   C     C_R   0.991821 0.107852 0.567198 -0.078096
C31   C     C_R   0.465430 0.634939 0.421468 -0.089747
C32   C     C_R   0.491636 0.607912 0.567087 -0.078193
C33   C     C_R   0.957670 0.022367 0.453680 -0.118803
C34   C     C_R   0.972337 0.008222 0.526019 -0.127324
C35   C     C_R   0.457406 0.522448 0.453587 -0.118427
C36   C     C_R   0.472101 0.508297 0.525922 -0.127298
C37   C     C_R   0.996571 0.224615 0.536684 0.007516
C38   C     C_R   0.988500 0.235919 0.461673 -0.011659
C39   C     C_R   0.496371 0.724681 0.536572 0.007422
C40   C     C_R   0.488271 0.735968 0.461561 -0.011461
C41   C     C_R   0.029909 0.436922 0.545307 0.002806
C42   C     C_R   0.015311 0.452360 0.472237 0.008972
C43   C     C_R   0.529611 0.937071 0.545144 0.002406
C44   C     C_R   0.514960 0.952427 0.472084 0.008773
C45   C     C_R   0.773331 0.124673 0.646743 0.537673
C46   C     C_R   0.208454 0.171753 0.360919 0.564103
C47   C     C_R   0.273334 0.624689 0.646741 0.539044
C48   C     C_R   0.708445 0.671787 0.360916 0.561639
C49   C     C_R   0.059183 0.533404 0.585047 -0.080831
C50   C     C_R   0.014578 0.573123 0.446012 -0.072824
C51   C     C_R   0.558826 0.033686 0.584824 -0.080824
C52   C     C_R   0.514108 0.073153 0.445815 -0.072935
C53   C     C_R   0.065561 0.647944 0.555264 -0.117648
C54   C     C_R   0.040793 0.668771 0.486571 -0.131176
C55   C     C_R   0.565064 0.148228 0.555012 -0.117765
C56   C     C_R   0.540245 0.168919 0.486326 -0.131156
C57   C     C_R   0.736522 0.062216 0.071692 -0.002824
C58   C     C_R   0.240980 0.114211 0.914050 -0.022550
C59   C     C_R   0.258039 0.604645 0.085010 -0.021439
C60   C     C_R   0.760657 0.543113 0.930751 -0.015778
C61   C     C_R   0.767882 0.166667 0.049125 -0.023549
C62   C     C_R   0.176555 0.100701 0.947260 0.004063
C63   C     C_R   0.316434 0.568523 0.047449 0.038343
C64   C     C_R   0.726929 0.462549 0.975865 0.025744
C65   C     C_R   0.775294 0.186704 0.976892 -0.008443
C66   C     C_R   0.168357 0.122367 0.020071 -0.004693
C67   C     C_R   0.322229 0.588375 0.975298 -0.029213
C68   C     C_R   0.725613 0.479372 0.048506 -0.018171
C69   C     C_R   0.703005 0.018310 0.947480 0.083030
C70   C     C_R   0.280902 0.216765 0.023724 0.098061
C71   C     C_R   0.208694 0.686821 0.973022 0.098362
C72   C     C_R   0.791372 0.664852 0.032472 0.086899
C73   C     C_R   0.695299 0.997822 0.021683 -0.114985
C74   C     C_R   0.290299 0.184554 0.950508 -0.178633
C75   C     C_R   0.206946 0.670695 0.048337 -0.183689
C76   C     C_R   0.801546 0.632933 0.960983 -0.174379
C77   C     C_3   0.837726 0.214545 0.066436 -0.276133
C78   C     C_3   0.140117 0.985471 0.953685 -0.283426
C79   C     C_3   0.391335 0.596452 0.060725 -0.270712
C80   C     C_3   0.656525 0.406888 0.973160 -0.263230
C81   C     C_3   0.845923 0.233187 0.986539 -0.245483
C82   C     C_3   0.132647 0.005712 0.031937 -0.277371
C83   C     C_3   0.397538 0.616659 0.980935 -0.263480
C84   C     C_3   0.655976 0.418458 0.054008 -0.272804
C85   C     C_R   0.751954 0.104157 0.925903 0.022797
C86   C     C_R   0.221470 0.170168 0.061477 0.020536
C87   C     C_R   0.270443 0.646482 0.935639 0.024918
C88   C     C_R   0.751372 0.587004 0.077370 0.031356
C89   C     C_R   0.973330 0.344090 0.648420 0.522245
C90   C     C_R   0.029169 0.348025 0.353841 0.523519
C91   C     C_R   0.473281 0.844104 0.648373 0.525713
C92   C     C_R   0.529074 0.848018 0.353772 0.522781
C93   C     C_R   0.001151 0.335474 0.076336 0.007269
C94   C     C_R   0.990762 0.330184 0.927465 0.012719
C95   C     C_R   0.542842 0.840391 0.063738 -0.001618
C96   C     C_R   0.513307 0.846286 0.917014 0.024478
C97   C     C_R   0.996379 0.440561 0.037056 0.005389
C98   C     C_R   0.995345 0.435185 0.964206 0.011151
C99   C     C_R   0.520692 0.944066 0.030134 0.026731
C100  C     C_R   0.514108 0.952975 0.957836 0.064711
C101  C     C_R   0.999402 0.220726 0.964514 -0.173623
C102  C     C_R   0.000855 0.223805 0.039818 -0.160040
C103  C     C_R   0.541607 0.740144 0.947336 -0.170987
C104  C     C_R   0.558600 0.738892 0.020832 -0.176039
C105  C     C_3   0.048063 0.541512 0.035657 -0.096191
C106  C     C_3   0.054542 0.516070 0.955844 -0.110329
C107  C     C_3   0.461358 0.026144 0.046585 -0.127525
C108  C     C_3   0.460007 0.051902 0.966262 -0.118588
C109  C     C_R   0.763556 0.520320 0.855406 0.545276
C110  C     C_R   0.241137 0.537903 0.150418 0.549391
C111  C     C_R   0.259253 0.037633 0.850676 0.532313
C112  C     C_R   0.737150 0.027897 0.146244 0.552465
C113  C     C_R   0.771321 0.125756 0.852197 0.536057
C114  C     C_R   0.209815 0.174667 0.139996 0.571231
C115  C     C_R   0.287465 0.668149 0.860717 0.560592
C116  C     C_R   0.727066 0.628850 0.146391 0.563607
C117  C     C_R   0.967265 0.344736 0.854743 0.527761
C118  C     C_R   0.029626 0.345972 0.147202 0.540862
C119  C     C_R   0.472707 0.847418 0.851390 0.522545
C120  C     C_R   0.560780 0.849818 0.138965 0.545075
C121  C     C_R   0.742965 0.063713 0.427595 0.037362
C122  C     C_R   0.241286 0.105349 0.583273 0.002449
C123  C     C_R   0.242978 0.563685 0.427586 0.038737
C124  C     C_R   0.741323 0.605289 0.583238 0.003416
C125  C     C_R   0.790381 0.149212 0.450899 0.000703
C126  C     C_R   0.290608 0.169884 0.544309 0.010139
C127  C     C_R   0.290249 0.649427 0.450864 0.000208
C128  C     C_R   0.790676 0.669735 0.544259 0.010728
C129  C     C_R   0.798486 0.168376 0.523226 0.054383
C130  C     C_R   0.278797 0.197081 0.472954 0.029261
C131  C     C_R   0.298346 0.668648 0.523188 0.055003
C132  C     C_R   0.778850 0.697007 0.472921 0.029065
Cr1   Cr    Cr6+3 0.885860 0.491680 0.749630 0.994901
Cr2   Cr    Cr6+3 0.114140 0.491680 0.250370 0.965382
Cr3   Cr    Cr6+3 0.385860 0.991680 0.749630 0.975278
Cr4   Cr    Cr6+3 0.614140 0.991680 0.250370 0.986085
Cr5   Cr    Cr6+3 0.730490 0.332970 0.748720 0.986574
Cr6   Cr    Cr6+3 0.269510 0.332970 0.251280 0.978492
Cr7   Cr    Cr6+3 0.230490 0.832970 0.748720 0.959048
Cr8   Cr    Cr6+3 0.769510 0.832970 0.251280 0.994607
Cr9   Cr    Cr6+3 0.887570 0.179310 0.750150 0.995062
Cr10  Cr    Cr6+3 0.112430 0.179310 0.249850 0.981818
Cr11  Cr    Cr6+3 0.387570 0.679310 0.750150 0.989168
Cr12  Cr    Cr6+3 0.612430 0.679310 0.249850 0.984539
H1    H     H_    0.697803 0.941870 0.588274 0.107864
H2    H     H_    0.113187 0.095492 0.456868 0.156969
H3    H     H_    0.198155 0.441517 0.588293 0.106736
H4    H     H_    0.613141 0.595813 0.456906 0.157029
H5    H     H_    0.087100 0.721459 0.586495 0.116959
H6    H     H_    0.041402 0.759314 0.464701 0.105120
H7    H     H_    0.586531 0.221839 0.586216 0.117655
H8    H     H_    0.540754 0.259443 0.464427 0.105393
H9    H     H_    0.664984 0.922386 0.039435 0.130292
H10   H     H_    0.337396 0.210553 0.923166 0.119514
H11   H     H_    0.161588 0.699972 0.077681 0.123000
H12   H     H_    0.830942 0.692789 0.926699 0.126332
H13   H     H_    0.873008 0.144509 0.089227 0.130302
H14   H     H_    0.180059 0.916603 0.944060 0.203597
H15   H     H_    0.421597 0.516700 0.079520 0.137707
H16   H     H_    0.657090 0.311806 0.954144 0.153998
H17   H     H_    0.834863 0.300662 0.097168 0.144860
H18   H     H_    0.090467 0.982317 0.922982 0.131858
H19   H     H_    0.398865 0.679225 0.093271 0.139035
H20   H     H_    0.617540 0.467061 0.946954 0.126032
H21   H     H_    0.850774 0.329156 0.970163 0.150305
H22   H     H_    0.077987 0.012716 0.048153 0.135839
H23   H     H_    0.406964 0.711837 0.966345 0.141386
H24   H     H_    0.612744 0.475832 0.073828 0.147585
H25   H     H_    0.880138 0.166138 0.960498 0.159014
H26   H     H_    0.164657 0.941059 0.063860 0.144272
H27   H     H_    0.430642 0.548033 0.953564 0.136558
H28   H     H_    0.659889 0.329766 0.081575 0.148432
H29   H     H_    0.997729 0.134846 0.936632 0.121014
H30   H     H_    0.000796 0.141046 0.069950 0.118220
H31   H     H_    0.545967 0.657816 0.916112 0.115776
H32   H     H_    0.580350 0.658550 0.044445 0.132550
H33   H     H_    0.097655 0.522549 0.064050 0.177447
H34   H     H_    0.035990 0.586884 0.920102 0.167507
H35   H     H_    0.478888 0.101114 0.081364 0.146905
H36   H     H_    0.408975 0.031495 0.940921 0.166155
H37   H     H_    0.678625 0.911950 0.458870 0.122198
H38   H     H_    0.133259 0.047289 0.582133 0.138000
H39   H     H_    0.178919 0.411586 0.458888 0.122768
H40   H     H_    0.633245 0.547477 0.582154 0.138079
H41   H     H_    0.241375 0.816683 0.413651 0.150325
H42   H     H_    0.881173 0.549479 0.541245 0.157964
H43   H     H_    0.741723 0.316731 0.413790 0.151804
H44   H     H_    0.381159 0.049759 0.541371 0.158566
H45   H     H_    0.838747 0.306996 0.403495 0.136131
H46   H     H_    0.399686 0.213208 0.559305 0.143545
H47   H     H_    0.338403 0.807317 0.403356 0.133109
H48   H     H_    0.899793 0.712880 0.559233 0.143760
H49   H     H_    0.852959 0.339154 0.529401 0.138513
H50   H     H_    0.379532 0.257706 0.435641 0.134889
H51   H     H_    0.352568 0.839686 0.529282 0.138825
H52   H     H_    0.879613 0.757567 0.435612 0.134953
H53   H     H_    0.755767 0.348868 0.539528 0.156678
H54   H     H_    0.359559 0.094400 0.417915 0.138437
H55   H     H_    0.255362 0.848978 0.539410 0.157472
H56   H     H_    0.859596 0.594303 0.417824 0.139475
H57   H     H_    0.941008 0.945758 0.422001 0.108794
H58   H     H_    0.968434 0.919869 0.550420 0.103173
H59   H     H_    0.440709 0.445853 0.421919 0.108839
H60   H     H_    0.468189 0.419951 0.550331 0.103043
H61   H     H_    0.952410 0.142654 0.365448 0.128632
H62   H     H_    0.005830 0.091213 0.622384 0.127610
H63   H     H_    0.452177 0.642747 0.365338 0.128230
H64   H     H_    0.505682 0.591242 0.622261 0.128097
H65   H     H_    0.991207 0.596825 0.395266 0.135941
H66   H     H_    0.076376 0.520293 0.639798 0.114154
H67   H     H_    0.490722 0.096686 0.395046 0.135275
H68   H     H_    0.576075 0.020695 0.639559 0.116924
O1    O     O_R   0.957020 0.451640 0.669920 -0.521247
O2    O     O_R   0.042980 0.451640 0.330080 -0.527523
O3    O     O_R   0.457020 0.951640 0.669920 -0.519911
O4    O     O_R   0.542980 0.951640 0.330080 -0.527244
O5    O     O_R   0.736470 0.210100 0.823360 -0.511495
O6    O     O_R   0.263530 0.210100 0.176640 -0.500011
O7    O     O_R   0.236470 0.710100 0.823360 -0.521019
O8    O     O_R   0.763530 0.710100 0.176640 -0.472577
O9    O     O_R   0.831960 0.093290 0.830130 -0.526475
O10   O     O_R   0.168040 0.093290 0.169870 -0.534170
O11   O     O_R   0.331960 0.593290 0.830130 -0.528283
O12   O     O_R   0.668040 0.593290 0.169870 -0.536677
O13   O     O_R   0.945600 0.250580 0.824860 -0.515901
O14   O     O_R   0.054400 0.250580 0.175140 -0.516541
O15   O     O_R   0.445600 0.750580 0.824860 -0.520305
O16   O     O_R   0.554400 0.750580 0.175140 -0.515931
O17   O     O_3   0.834640 0.334650 0.749500 -0.245083
O18   O     O_3   0.165360 0.334650 0.250500 -0.279718
O19   O     O_3   0.334640 0.834650 0.749500 -0.250888
O20   O     O_3   0.665360 0.834650 0.250500 -0.286221
O21   O     O_R   0.821450 0.543440 0.674610 -0.495138
O22   O     O_R   0.178550 0.543440 0.325390 -0.500430
O23   O     O_R   0.321450 0.043440 0.674610 -0.494371
O24   O     O_R   0.678550 0.043440 0.325390 -0.499459
O25   O     O_R   0.715320 0.458650 0.668100 -0.532875
O26   O     O_R   0.284680 0.458650 0.331900 -0.531830
O27   O     O_R   0.215320 0.958650 0.668100 -0.534079
O28   O     O_R   0.784680 0.958650 0.331900 -0.528581
O29   O     O_R   0.737170 0.209590 0.674530 -0.511251
O30   O     O_R   0.262830 0.209590 0.325470 -0.503030
O31   O     O_R   0.237170 0.709590 0.674530 -0.512540
O32   O     O_R   0.762830 0.709590 0.325470 -0.504996
O33   O     O_R   0.832710 0.092740 0.669580 -0.510376
O34   O     O_R   0.167290 0.092740 0.330420 -0.516148
O35   O     O_R   0.332710 0.592740 0.669580 -0.507966
O36   O     O_R   0.667290 0.592740 0.330420 -0.517068
O37   O     O_R   0.946290 0.250060 0.676040 -0.506127
O38   O     O_R   0.053710 0.250060 0.323960 -0.516624
O39   O     O_R   0.446290 0.750060 0.676040 -0.504696
O40   O     O_R   0.553710 0.750060 0.323960 -0.514120
O41   O     O_R   0.956270 0.452200 0.830470 -0.532412
O42   O     O_R   0.043730 0.452200 0.169530 -0.543422
O43   O     O_R   0.456270 0.952200 0.830470 -0.545270
O44   O     O_R   0.543730 0.952200 0.169530 -0.535244
O45   O     O_R   0.820760 0.543950 0.823440 -0.507720
O46   O     O_R   0.179240 0.543950 0.176560 -0.538143
O47   O     O_R   0.320760 0.043950 0.823440 -0.518415
O48   O     O_R   0.679240 0.043950 0.176560 -0.516446
O49   O     O_R   0.714570 0.459210 0.828640 -0.524429
O50   O     O_R   0.285430 0.459210 0.171360 -0.507120
O51   O     O_R   0.214570 0.959210 0.828640 -0.547160
O52   O     O_R   0.785430 0.959210 0.171360 -0.509721
N1    N     N_2   0.664280 0.950792 0.896300 -0.520300
H69   H     H_    0.653432 0.997094 0.849702 0.248760
C133  C     C_3   0.690550 0.830302 0.882819 -0.311000
H70   H     H_    0.658067 0.785747 0.841250 0.144677
H71   H     H_    0.687423 0.775685 0.932288 0.165990
H72   H     H_    0.745210 0.833836 0.863500 0.141560
N2    N     N_2   0.327077 0.304688 0.053388 -0.476193
H73   H     H_    0.348746 0.356767 0.013850 0.243616
C134  C     C_3   0.380573 0.268984 0.104234 -0.253516
H74   H     H_    0.433111 0.283373 0.081752 0.065429
H75   H     H_    0.374265 0.175541 0.122066 0.163722
H76   H     H_    0.378837 0.326800 0.152397 0.188374
N3    N     N_2   0.142835 0.725203 0.942308 -0.533369
H77   H     H_    0.111918 0.768846 0.978511 0.243114
C135  C     C_3   0.114076 0.734247 0.870150 -0.258580
H78   H     H_    0.057438 0.755248 0.872728 0.064709
H79   H     H_    0.120980 0.649267 0.839698 0.172714
H80   H     H_    0.133439 0.812594 0.841117 0.209344
N4    N     N_2   0.800004 0.789286 0.049356 -0.482232
H81   H     H_    0.783010 0.841346 0.007495 0.244984
C136  C     C_3   0.869591 0.826523 0.066217 -0.276386
H82   H     H_    0.903766 0.812180 0.019181 0.100080
H83   H     H_    0.887592 0.779289 0.115115 0.182366
H84   H     H_    0.870571 0.925095 0.076765 0.152303
C137  C     C_3   0.009481 0.659717 0.058415 -0.262902
C138  C     C_3   0.024005 0.698976 0.136713 -0.285800
C139  C     C_3   0.028469 0.835797 0.147907 -0.472762
H85   H     H_    0.996828 0.887081 0.108662 0.132107
H86   H     H_    0.010291 0.859593 0.202575 0.138748
H87   H     H_    0.083442 0.864595 0.143746 0.157434
H88   H     H_    0.982109 0.662885 0.171498 0.166426
H89   H     H_    0.073627 0.661210 0.156584 0.214508
H90   H     H_    0.017843 0.734374 0.020963 0.124341
H91   H     H_    0.952828 0.643079 0.053819 0.151351
C140  C     C_3   0.122284 0.441045 0.935161 -0.242805
C141  C     C_3   0.125713 0.396562 0.856485 -0.300629
C142  C     C_3   0.199343 0.395155 0.825712 -0.431781
H92   H     H_    0.211419 0.484813 0.803166 0.190993
H93   H     H_    0.238661 0.371017 0.866948 0.169564
H94   H     H_    0.202693 0.328267 0.781340 0.137613
H95   H     H_    0.106633 0.302045 0.853781 0.164411
H96   H     H_    0.092171 0.452658 0.821166 0.167780
H97   H     H_    0.169415 0.489549 0.948005 0.183319
H98   H     H_    0.127003 0.360536 0.970424 0.147918
C143  C     C_3   0.394460 0.957829 0.070494 -0.275762
C144  C     C_3   0.391860 0.929157 0.151021 -0.285094
C145  C     C_3   0.319050 0.892629 0.174513 -0.450024
H99   H     H_    0.281794 0.967494 0.165506 0.197239
H100  H     H_    0.301510 0.812619 0.143898 0.147539
H101  H     H_    0.319460 0.870073 0.232398 0.149661
H102  H     H_    0.426680 0.851940 0.163206 0.198052
H103  H     H_    0.408673 0.008119 0.183429 0.178924
H104  H     H_    0.348270 0.012873 0.055927 0.154911
H105  H     H_    0.388738 0.872653 0.039787 0.138955
C146  C     C_3   0.489041 0.177931 0.946220 -0.271773
C147  C     C_3   0.493693 0.196244 0.864953 -0.275542
C148  C     C_3   0.516009 0.324028 0.845398 -0.464804
H106  H     H_    0.483636 0.392596 0.873655 0.145221
H107  H     H_    0.571661 0.336871 0.858853 0.162058
H108  H     H_    0.509782 0.337435 0.786839 0.134518
H109  H     H_    0.532347 0.131877 0.841955 0.190353
H110  H     H_    0.441792 0.180138 0.840366 0.194146
H111  H     H_    0.453540 0.248209 0.967669 0.135817
H112  H     H_    0.541338 0.191537 0.970772 0.153584

loop_
_geom_bond_atom_site_label_1
_geom_bond_atom_site_label_2
_ccdc_geom_bond_type
Cr9   O37   S    
C139  H85   S    
C47   O35   A    
C144  H103  S    
C142  H92   S    
C90   O38   A    
Cr11  O39   S    
C69   N1    S    
C6    H2    S    
C94   C117  S    
C95   C99   A    
N2    H73   S    
C29   C33   A    
Cr8   O28   S    
C134  H76   S    
C91   O3    A    
C3    O23   A    
Cr8   O8    S    
C50   H65   S    
C1    O21   A    
Cr10  O34   S    
C83   H27   S    
C70   C74   A    
C9    C121  A    
C17   H53   S    
C81   H25   S    
C21   C45   S    
N3    C135  S    
C80   C84   S    
C97   C105  S    
C15   C127  S    
C22   C130  A    
Cr9   O13   S    
C20   C132  S    
C41   C49   A    
C23   C47   S    
Cr1   O41   S    
C62   C66   A    
C2    C123  S    
C17   C129  S    
C60   C76   A    
Cr8   O32   S    
C25   C42   A    
C43   C44   A    
C31   H63   S    
C37   C38   A    
C84   H24   S    
C66   C82   S    
C15   H41   S    
C78   C82   S    
C16   C20   S    
C50   C54   A    
Cr4   O48   S    
C55   H7    S    
C113  O9    A    
C112  O52   A    
C105  H33   S    
C10   H38   S    
C18   C130  S    
C90   O2    A    
C141  C142  S    
C142  H94   S    
C15   H47   S    
C107  H35   S    
Cr11  O15   S    
C10   C122  A    
C14   C126  S    
C57   C61   A    
C59   C63   A    
C98   C106  S    
C60   C64   A    
C137  H90   S    
C1    C124  S    
C136  H83   S    
C140  H97   S    
C49   C53   A    
C51   C55   A    
C135  H79   S    
Cr5   O25   S    
C127  C131  A    
C125  C129  A    
C5    C21   A    
C48   O36   A    
C148  H106  S    
Cr5   O5    S    
C126  C130  A    
Cr7   O19   S    
Cr9   O9    S    
C141  H95   S    
C47   O31   A    
C88   C116  S    
C13   H43   S    
Cr7   O51   S    
C18   H50   S    
C101  H29   S    
C97   C98   A    
C104  H32   S    
C53   C54   A    
C118  O14   A    
C121  C125  A    
C25   C90   S    
C138  H89   S    
C64   C68   A    
C139  H86   S    
C110  O46   A    
C133  H72   S    
Cr10  O18   S    
C29   H61   S    
C74   H10   S    
C57   C73   A    
C20   H56   S    
C60   C109  S    
C117  O41   A    
C27   C44   A    
C78   H14   S    
C61   C77   S    
C29   C38   A    
Cr9   O33   S    
C107  C108  S    
C32   H64   S    
Cr7   O31   S    
C44   C52   A    
N3    H77   S    
C53   H5    S    
C4    O24   A    
C114  O6    A    
C33   C34   A    
C7    H3    S    
C92   O40   A    
C100  C108  S    
C5    H1    S    
C30   C34   A    
C24   C48   S    
Cr6   O18   S    
C46   O34   A    
C39   C40   A    
C1    O25   A    
C83   H23   S    
C5    C9    A    
C61   C65   A    
C25   C38   A    
C143  H105  S    
C123  C127  A    
C27   C40   A    
C8    C12   A    
C148  H108  S    
C137  C138  S    
Cr2   O22   S    
C23   C131  A    
N1    C133  S    
C21   C129  A    
C42   C50   A    
C146  H111  S    
C147  H110  S    
C145  H100  S    
C93   C97   A    
C69   C85   A    
C58   C74   A    
C87   C115  S    
C62   C78   S    
C84   H28   S    
C66   C86   A    
C133  H70   S    
C75   H11   S    
Cr3   O47   S    
C13   C17   S    
C85   C113  S    
Cr5   O29   S    
C112  O48   A    
C70   N2    S    
C34   H58   S    
C7    C23   A    
C96   C100  A    
C134  H75   S    
C28   C91   S    
Cr2   O18   S    
C9    H37   S    
C14   H46   S    
Cr7   O7    S    
Cr8   O52   S    
N4    H81   S    
Cr11  O19   S    
C106  H34   S    
Cr5   O49   S    
C58   C62   A    
C55   C56   A    
C108  C146  S    
C101  C102  A    
C59   C75   A    
C41   C42   A    
C96   C119  S    
C35   C36   A    
C48   O32   A    
C91   O39   A    
C15   C19   S    
C71   N3    S    
C89   O37   A    
C115  O11   A    
C79   H15   S    
C80   H16   S    
C94   C98   A    
Cr9   O17   S    
C6    C22   A    
C31   C40   A    
C138  C139  S    
C32   C39   A    
C80   H20   S    
C51   H68   S    
C2    O22   A    
Cr6   O50   S    
C18   H54   S    
C135  H78   S    
C69   C73   A    
C56   H8    S    
C106  C140  S    
C120  O16   A    
C124  C128  A    
Cr1   O45   S    
Cr3   O19   S    
C64   C80   S    
C8    H4    S    
C111  O47   A    
Cr10  O14   S    
C144  H102  S    
C142  H93   S    
C77   H17   S    
C58   C111  S    
C68   C84   S    
C49   H66   S    
C54   H6    S    
C45   O33   A    
C28   C39   A    
C76   H12   S    
C30   C37   A    
C116  O12   A    
C140  C141  S    
C136  H82   S    
C14   H44   S    
C24   C132  A    
C65   C81   S    
C77   C81   S    
C103  H31   S    
C4    O28   A    
C72   N4    S    
Cr1   O21   S    
C147  H109  S    
C114  O10   A    
C71   C87   A    
Cr5   O17   S    
C22   C46   S    
Cr8   O20   S    
C31   C35   A    
C46   O30   A    
C109  O49   A    
C32   C36   A    
C89   O1    A    
C82   H22   S    
C141  H96   S    
C144  C145  S    
C19   H55   S    
Cr12  O20   S    
C11   C123  A    
C119  O43   A    
C93   C102  A    
C6    C10   A    
C26   C37   A    
C95   C120  S    
C99   C107  S    
C105  C106  S    
C28   C43   A    
Cr2   O2    S    
C79   C83   S    
C133  H71   S    
C43   C51   A    
C12   H40   S    
Cr11  O35   S    
C4    C121  S    
C92   O4    A    
Cr1   O17   S    
C146  C147  S    
C96   C103  A    
C103  C104  A    
Cr3   O43   S    
C13   C125  S    
C3    O27   A    
C145  H99   S    
C82   H26   S    
C19   H51   S    
Cr10  O38   S    
N4    C136  S    
C14   C18   S    
C17   H49   S    
C72   C76   A    
C119  O15   A    
C63   C79   S    
C143  C144  S    
C26   C89   S    
C7    C11   A    
Cr4   O20   S    
C117  O13   A    
C137  H91   S    
C107  C143  S    
C136  H84   S    
Cr11  O11   S    
C140  H98   S    
C57   C112  S    
C30   H62   S    
Cr4   O24   S    
C59   C110  S    
C13   H45   S    
C108  H36   S    
C135  H80   S    
C16   H48   S    
C8    C24   A    
C143  H104  S    
Cr3   O3    S    
C94   C101  A    
C148  H107  S    
C52   H67   S    
C118  O42   A    
N1    H69   S    
Cr6   O30   S    
C3    C122  S    
Cr2   O46   S    
Cr12  O40   S    
C115  O7    A    
C128  C132  A    
C113  O5    A    
C72   C88   A    
C19   C131  S    
C63   C67   A    
Cr12  O12   S    
Cr7   O27   S    
C138  H88   S    
C139  H87   S    
C11   H39   S    
Cr2   O42   S    
C2    O26   A    
C122  C126  A    
C120  O44   A    
C99   C100  A    
C12   C124  A    
C134  H74   S    
C27   C92   S    
C67   C83   S    
C16   C128  S    
C111  O51   A    
C78   H18   S    
Cr12  O36   S    
C68   C88   A    
C116  O8    A    
C93   C118  S    
C70   C86   A    
C45   O29   A    
C95   C104  A    
C105  C137  S    
N2    C134  S    
Cr4   O44   S    
C79   H19   S    
C65   C85   A    
C102  H30   S    
C67   C87   A    
C86   C114  S    
Cr1   O1    S    
C147  C148  S    
C16   H42   S    
C71   C75   A    
C35   H59   S    
C33   H57   S    
Cr10  O10   S    
Cr6   O26   S    
Cr3   O23   S    
C109  O45   A    
C110  O50   A    
C146  H112  S    
Cr6   O6    S    
C145  H101  S    
C73   H9    S    
C81   H21   S    
Cr12  O16   S    
C36   H60   S    
C20   H52   S    
C52   C56   A    
C26   C41   A    
C77   H13   S    
Cr4   O4    S    
