data_mof_unit_13240.cif
_audit_creation_date              2012-10-26T20:05:00-0400
_audit_creation_method            fapswitch 2.2
_symmetry_space_group_name_H-M    P1
_symmetry_Int_Tables_number       1
_space_group_crystal_system       triclinic
_cell_length_a                    15.855862
_cell_length_b                    15.036574
_cell_length_c                    13.791678
_cell_angle_alpha                 88.725744
_cell_angle_beta                  90.151127
_cell_angle_gamma                 89.903029
_cell_volume                      3287.352472

loop_
_atom_site_label
_atom_site_type_symbol
_atom_type_description
_atom_site_fract_x
_atom_site_fract_y
_atom_site_fract_z
_atom_type_partial_charge
C1    C     C_R   0.500875 0.329190 0.500840 0.557684
C2    C     C_R   0.503327 0.047065 0.497837 -0.025455
C3    C     C_R   0.429561 0.907959 0.466438 0.054349
C4    C     C_R   0.576728 0.092610 0.527318 0.053527
C5    C     C_R   0.648322 0.951333 0.553393 -0.133302
C6    C     C_R   0.358489 0.049133 0.438760 -0.127766
C7    C     C_R   0.649090 0.043737 0.553538 -0.092447
C8    C     C_R   0.358234 0.956890 0.436719 -0.098832
C9    C     C_R   0.522902 0.425353 0.798585 0.413156
C10   C     C_R   0.462766 0.568835 0.203684 0.404875
C11   C     C_R   0.476584 0.575243 0.791221 -0.028965
C12   C     C_R   0.501307 0.670883 0.499314 0.575079
C13   C     C_R   0.539825 0.433142 0.208989 -0.000818
C14   C     C_R   0.475086 0.578288 0.894519 -0.033895
C15   C     C_R   0.540150 0.430075 0.106058 -0.027172
C16   C     C_R   0.339900 0.500668 0.499923 0.524170
C17   C     C_R   0.660036 0.500914 0.500052 0.546111
C18   C     C_R   0.507001 0.504643 0.948790 -0.038683
C19   C     C_R   0.506977 0.503521 0.052146 -0.035332
C20   C     C_R   0.536163 0.430361 0.899785 -0.046319
C21   C     C_R   0.472226 0.575271 0.101496 -0.045146
C22   C     C_R   0.445038 0.652949 0.945901 0.216847
C23   C     C_R   0.500517 0.767333 0.498690 0.006992
C24   C     C_R   0.574206 0.357437 0.054758 0.217334
C25   C     C_R   0.446144 0.651111 0.047741 -0.068427
C26   C     C_R   0.573066 0.359447 0.953150 -0.068230
C27   C     C_3   0.971566 0.427048 0.492257 0.231245
C28   C     C_3   0.028095 0.591429 0.506831 0.215992
C29   C     C_3   0.027600 0.474993 0.417352 0.262129
C30   C     C_3   0.971919 0.543324 0.581405 0.270155
C31   C     C_1   0.250311 0.503465 0.499981 -0.034407
C32   C     C_1   0.749478 0.504597 0.499834 0.004410
C33   C     C_3   0.026942 0.458177 0.577162 -0.159247
C34   C     C_R   0.502959 0.232889 0.502326 -0.015085
C35   C     C_3   0.972182 0.560331 0.421943 -0.177336
C36   C     C_3   0.083244 0.507417 0.501111 0.021352
C37   C     C_3   0.916296 0.510715 0.498114 0.026195
C38   C     C_1   0.174830 0.505806 0.500510 0.000611
C39   C     C_1   0.824846 0.507998 0.499073 0.023430
C40   C     C_R   0.428136 0.814786 0.466975 0.195506
C41   C     C_R   0.577245 0.185918 0.528943 0.191250
C42   C     C_3   0.020329 0.453941 0.250093 0.002434
C43   C     C_3   0.935372 0.405686 0.242607 -0.254351
C44   C     C_3   0.894179 0.423124 0.143853 -0.479070
C45   C     C_R   0.572410 0.811839 0.532647 0.210251
C46   C     C_3   0.999072 0.596005 0.735739 0.020807
C47   C     C_3   0.983923 0.532502 0.822155 -0.267309
C48   C     C_3   0.047783 0.547265 0.903210 -0.490327
C49   C     C_3   0.642188 0.755923 0.665700 0.005306
C50   C     C_3   0.714813 0.695355 0.698607 -0.235000
C51   C     C_3   0.715040 0.680537 0.808431 -0.465630
C52   C     C_3   0.310419 0.246479 0.540097 -0.006616
C53   C     C_3   0.216671 0.255231 0.516298 -0.248074
C54   C     C_3   0.165067 0.266930 0.608341 -0.486860
C55   C     C_3   0.445895 0.303292 0.756439 0.024476
C56   C     C_R   0.429486 0.187787 0.474985 0.207920
C57   C     C_3   0.423808 0.253742 0.851398 -0.299224
C58   C     C_3   0.343339 0.199251 0.840093 -0.479712
C59   C     C_3   0.329947 0.606834 0.255172 0.041143
C60   C     C_3   0.275189 0.660454 0.183240 -0.292624
C61   C     C_3   0.181509 0.646320 0.203804 -0.471260
C62   C     C_R   0.574936 0.905176 0.527965 0.012607
C63   C     C_R   0.430222 0.094933 0.469958 0.012472
C64   C     C_R   0.502720 0.953272 0.497142 -0.021548
Cu1   Cu    Cu3+1 0.500010 0.499990 0.597420 0.967469
Cu2   Cu    Cu3+1 0.499990 0.500010 0.402580 1.015296
H1    H     H_    0.423989 0.709370 0.084821 0.175983
H2    H     H_    0.571040 0.382519 0.252593 0.144287
H3    H     H_    0.060870 0.432220 0.189423 0.150740
H4    H     H_    0.012857 0.527076 0.239716 0.118381
H5    H     H_    0.945356 0.332959 0.253427 0.195720
H6    H     H_    0.891772 0.428851 0.299642 0.187096
H7    H     H_    0.883158 0.495529 0.131896 0.147000
H8    H     H_    0.832565 0.388261 0.140921 0.181187
H9    H     H_    0.935019 0.398039 0.085088 0.147217
H10   H     H_    0.992640 0.665474 0.760543 0.156726
H11   H     H_    0.065254 0.588857 0.709447 0.146574
H12   H     H_    0.598712 0.302857 0.915833 0.182647
H13   H     H_    0.919278 0.543114 0.850750 0.175113
H14   H     H_    0.988783 0.462642 0.798190 0.169219
H15   H     H_    0.112835 0.535054 0.876839 0.150389
H16   H     H_    0.034757 0.500518 0.964807 0.142183
H17   H     H_    0.043119 0.616391 0.929504 0.150029
H18   H     H_    0.384032 0.711749 0.840475 0.315235
H19   H     H_    0.576824 0.270825 0.161228 0.323122
H20   H     H_    0.987917 0.303350 0.466943 0.334153
H21   H     H_    0.010371 0.716624 0.519580 0.334248
H22   H     H_    0.354830 0.710155 0.461620 0.326150
H23   H     H_    0.948004 0.603876 0.362048 0.102984
H24   H     H_    0.645471 0.293374 0.548541 0.345187
H25   H     H_    0.581929 0.727217 0.693065 0.158536
H26   H     H_    0.650899 0.822144 0.698690 0.128005
H27   H     H_    0.708934 0.629997 0.663429 0.207445
H28   H     H_    0.775741 0.725709 0.675959 0.183989
H29   H     H_    0.721668 0.744969 0.845537 0.152181
H30   H     H_    0.768947 0.637006 0.829682 0.159921
H31   H     H_    0.655654 0.647704 0.832233 0.163027
H32   H     H_    0.331948 0.308360 0.574979 0.143071
H33   H     H_    0.318034 0.189640 0.593121 0.111559
H34   H     H_    0.048771 0.417464 0.640352 0.100384
H35   H     H_    0.206204 0.313243 0.466395 0.199125
H36   H     H_    0.194911 0.194402 0.479445 0.167764
H37   H     H_    0.175030 0.209605 0.659311 0.150449
H38   H     H_    0.097089 0.270312 0.589591 0.161064
H39   H     H_    0.183617 0.329212 0.644568 0.139938
H40   H     H_    0.445956 0.253172 0.698572 0.156085
H41   H     H_    0.395336 0.352383 0.737049 0.129740
H42   H     H_    0.476305 0.208278 0.872711 0.188507
H43   H     H_    0.413317 0.302058 0.909844 0.157848
H44   H     H_    0.289821 0.243209 0.818369 0.140772
H45   H     H_    0.705670 0.916317 0.573600 0.152080
H46   H     H_    0.327796 0.165525 0.910205 0.167769
H47   H     H_    0.352126 0.147804 0.784402 0.148717
H48   H     H_    0.307084 0.622120 0.328835 0.189961
H49   H     H_    0.319221 0.534185 0.244769 0.131533
H50   H     H_    0.290041 0.732418 0.188351 0.198995
H51   H     H_    0.287737 0.638680 0.108347 0.152795
H52   H     H_    0.165419 0.574781 0.198177 0.151938
H53   H     H_    0.143276 0.684858 0.149921 0.148068
H54   H     H_    0.165386 0.669107 0.277584 0.186045
H55   H     H_    0.302025 0.084363 0.415789 0.156382
H56   H     H_    0.706764 0.076593 0.574809 0.184137
H57   H     H_    0.301407 0.924167 0.412461 0.179085
H58   H     H_    0.457425 0.632297 0.748229 0.136966
N1    N     N_R   0.499960 0.499930 0.743810 -0.240430
N2    N     N_R   0.500040 0.500070 0.256190 -0.238109
O1    O     O_R   0.500020 0.370250 0.582280 -0.477815
O2    O     O_3   0.936641 0.582254 0.664216 -0.572907
O3    O     O_3   0.412997 0.728597 0.900844 -0.710638
O4    O     O_3   0.607203 0.282187 0.099735 -0.701675
O5    O     O_3   0.938967 0.341319 0.482873 -0.683136
O6    O     O_3   0.060404 0.677184 0.516700 -0.692452
O7    O     O_3   0.354813 0.772750 0.438192 -0.702402
O8    O     O_3   0.651055 0.228146 0.556052 -0.686235
O9    O     O_3   0.642370 0.763155 0.563195 -0.573639
O10   O     O_3   0.356251 0.234723 0.453351 -0.562755
O11   O     O_3   0.527723 0.342349 0.757842 -0.538372
O12   O     O_R   0.499980 0.629750 0.417720 -0.437785
O13   O     O_3   0.416037 0.632866 0.250376 -0.539327
O14   O     O_R   0.500010 0.370270 0.417740 -0.493624
O15   O     O_R   0.499990 0.629730 0.582260 -0.534200
O16   O     O_R   0.379080 0.499980 0.582260 -0.517658
O17   O     O_R   0.620920 0.500020 0.417740 -0.502589
O18   O     O_R   0.379070 0.500000 0.417710 -0.497553
O19   O     O_R   0.620930 0.500000 0.582290 -0.486934
O20   O     O_3   0.063043 0.431294 0.337240 -0.573332

loop_
_geom_bond_atom_site_label_1
_geom_bond_atom_site_label_2
_ccdc_geom_bond_type
C51   H31   S    
C34   C56   A    
C43   H6    S    
C23   C45   A    
C27   C29   S    
C27   O5    S    
C14   C18   A    
C17   O19   A    
C11   H58   S    
C25   H1    S    
C47   H13   S    
C46   H10   S    
C53   C54   S    
C27   C33   S    
C16   C31   S    
C15   C19   A    
C29   C36   S    
C26   H12   S    
C58   H46   S    
Cu1   O1    S    
C46   O2    S    
C16   O18   A    
C24   C26   A    
H22   O7    S    
H24   O8    S    
C11   C14   A    
H20   O5    S    
C61   H53   S    
C4    C41   A    
C23   C40   A    
C45   C62   A    
C42   H4    S    
C33   C36   S    
C48   H15   S    
C18   C19   A    
C32   C39   T    
C62   C64   A    
C9    O11   S    
C57   H43   S    
C28   C35   S    
C53   H35   S    
C22   C25   A    
C58   H47   S    
C54   H39   S    
C51   H30   S    
C49   O9    S    
C59   C60   S    
C61   H54   S    
C44   H7    S    
C34   C41   A    
C47   H14   S    
C49   H25   S    
C4    C7    A    
C41   O8    S    
C56   O10   S    
C2    C64   A    
C1    C34   S    
C10   C21   A    
C30   O2    S    
C45   O9    S    
C55   H40   S    
C54   H37   S    
C3    C8    A    
C29   O20   S    
C5    C7    A    
C50   H28   S    
C6    C8    A    
Cu2   O17   S    
C5    H45   S    
C3    C64   A    
C42   H3    S    
C9    N1    A    
Cu2   N2    S    
C30   C37   S    
C55   H41   S    
C60   C61   S    
C28   O6    S    
Cu1   N1    S    
H21   O6    S    
C44   H9    S    
C16   O16   A    
C43   C44   S    
C24   O4    S    
H19   O4    S    
C6    C63   A    
Cu1   O15   S    
C9    C20   A    
C47   C48   S    
Cu2   O12   S    
C13   C15   A    
C59   O13   S    
C53   H36   S    
C50   C51   S    
C56   C63   A    
Cu2   O14   S    
C60   H51   S    
C8    H57   S    
C52   C53   S    
C44   H8    S    
C1    O14   A    
C13   N2    A    
C35   H23   S    
C15   C24   A    
C3    C40   A    
Cu1   Cu2   S    
C55   C57   S    
C22   O3    S    
C52   O10   S    
C12   O12   A    
C60   H50   S    
C10   O13   S    
C7    H56   S    
Cu1   O19   S    
C42   O20   S    
C2    C63   A    
C35   C37   S    
C54   H38   S    
C21   C25   A    
C46   C47   S    
C43   H5    S    
C30   C33   S    
C11   N1    A    
C61   H52   S    
C58   H44   S    
C1    O1    A    
C46   H11   S    
C48   H17   S    
C50   H27   S    
C40   O7    S    
C29   C35   S    
C52   H33   S    
C55   O11   S    
C31   C38   T    
C17   O17   A    
C33   H34   S    
C14   C22   A    
C36   C38   S    
C12   O15   A    
C28   C30   S    
C37   C39   S    
Cu1   O16   S    
C57   C58   S    
C20   C26   A    
C27   C37   S    
C59   H48   S    
C2    C4    A    
C52   H32   S    
C48   H16   S    
C5    C62   A    
C18   C20   A    
H18   O3    S    
C12   C23   S    
C57   H42   S    
Cu2   O18   S    
C28   C36   S    
C59   H49   S    
C49   C50   S    
C42   C43   S    
C17   C32   S    
C49   H26   S    
C6    H55   S    
C10   N2    A    
C51   H29   S    
C19   C21   A    
C13   H2    S    
