data_mof_unit_10648.cif
_audit_creation_date              2012-12-10T17:43:33-0500
_audit_creation_method            fapswitch 2.2
_symmetry_space_group_name_H-M    P1
_symmetry_Int_Tables_number       1
_space_group_crystal_system       triclinic
_cell_length_a                    14.959688
_cell_length_b                    10.545786
_cell_length_c                    10.064452
_cell_angle_alpha                 87.324493
_cell_angle_beta                  89.066771
_cell_angle_gamma                 92.292831
_cell_volume                      1584.52196752

loop_
_atom_site_label
_atom_site_type_symbol
_atom_type_description
_atom_site_fract_x
_atom_site_fract_y
_atom_site_fract_z
_atom_type_partial_charge
C1    C     C_R   0.514488 0.262670 0.503143 0.959958
C2    C     C_R   0.909769 0.618014 0.452382 0.067724
C3    C     C_R   0.942313 0.295579 0.611101 0.106864
C4    C     C_R   0.035656 0.291547 0.609128 0.398086
C5    C     C_R   0.088687 0.394947 0.549571 -0.040372
C6    C     C_R   0.046703 0.507793 0.504378 -0.082925
C7    C     C_R   0.098043 0.619144 0.459297 0.128878
C8    C     C_R   0.053268 0.729806 0.416372 0.218533
C9    C     C_R   0.960782 0.726259 0.409946 -0.271885
C10   C     C_R   0.182159 0.391462 0.535349 0.469747
C11   C     C_R   0.231931 0.503375 0.501060 -0.175832
C12   C     C_R   0.327638 0.500555 0.500614 0.965467
C13   C     C_R   0.192032 0.616312 0.460463 0.092854
C14   C     C_R   0.537269 0.091486 0.759443 0.328462
C15   C     C_R   0.501909 0.018297 0.870210 0.135251
C16   C     C_R   0.440001 0.917467 0.850271 0.334016
C17   C     C_R   0.425084 0.878866 0.721777 -0.205375
C18   C     C_R   0.473719 0.938248 0.613318 -0.002560
C19   C     C_R   0.514508 0.057146 0.629516 -0.071799
C20   C     C_R   0.538574 0.130452 0.513463 -0.076982
C21   C     C_R   0.564674 0.069712 0.398967 0.188218
C22   C     C_R   0.539084 0.942804 0.388833 -0.250534
C23   C     C_R   0.494157 0.740319 0.497672 0.836315
C24   C     C_R   0.492961 0.877031 0.494639 -0.082014
C25   C     C_R   0.344990 0.414082 0.142958 0.348960
C26   C     C_R   0.264495 0.438082 0.079524 0.263773
C27   C     C_R   0.265265 0.447378 0.940722 0.308155
C28   C     C_R   0.344158 0.414949 0.874665 0.170045
C29   C     C_R   0.425420 0.454392 0.932935 -0.122814
C30   C     C_R   0.425842 0.452952 0.075819 -0.098325
C31   C     C_R   0.567140 0.557413 0.066691 0.382891
C32   C     C_R   0.567257 0.557357 0.924474 0.436738
C33   C     C_R   0.672259 0.504128 0.499007 0.912261
C34   C     C_R   0.815913 0.617107 0.448447 0.190117
C35   C     C_R   0.767513 0.509020 0.498284 -0.074979
C36   C     C_R   0.808875 0.405265 0.554197 -0.264598
C37   C     C_R   0.901408 0.402653 0.556150 0.049653
C38   C     C_R   0.952834 0.509376 0.504117 0.035683
H1    H     H_    0.380840 0.796756 0.708461 0.191714
H2    H     H_    0.561513 0.893344 0.303173 0.195419
H3    H     H_    0.767486 0.325982 0.595200 0.209253
H4    H     H_    0.929695 0.812237 0.375387 0.153722
N1    N     N_R   0.499150 0.498800 0.142780 -0.139243
N2    N     N_R   0.499120 0.498720 0.857170 -0.130335
O1    O     O_R   0.500000 0.316780 0.614690 -0.614825
O2    O     O_R   0.499990 0.316750 0.385360 -0.549788
O3    O     O_R   0.367850 0.499980 0.614680 -0.608766
O4    O     O_R   0.367840 0.499960 0.385350 -0.591509
O5    O     O_R   0.500010 0.683250 0.614640 -0.593548
O6    O     O_R   0.500000 0.683220 0.385310 -0.588820
O7    O     O_R   0.632160 0.500040 0.614650 -0.546942
O8    O     O_R   0.632150 0.500020 0.385320 -0.579827
Zn1   Zn    Zn3+2 0.500010 0.500020 0.653130 1.039199
Zn2   Zn    Zn3+2 0.499990 0.499980 0.346870 1.046259
N3    N     N_2   0.769288 0.724088 0.398139 -0.288255
H5    H     H_    0.794168 0.764690 0.309291 0.264155
C39   C     C_3   0.749359 0.815611 0.496015 -0.722551
H6    H     H_    0.811666 0.851580 0.542547 0.237422
H7    H     H_    0.703250 0.771748 0.574100 0.286999
H8    H     H_    0.716499 0.897388 0.447324 0.244019
Cl1   Cl    Cl    0.625684 0.204188 0.784004 -0.651434
N4    N     N_2   0.533257 0.041569 0.999662 -0.275724
H9    H     H_    0.532980 0.963950 0.065850 0.265884
C40   C     C_3   0.504391 0.156832 0.056209 -0.629487
H10   H     H_    0.563064 0.222186 0.070078 0.267238
H11   H     H_    0.457641 0.207119 0.991150 0.225513
H12   H     H_    0.470635 0.133312 0.153435 0.273991
Cl2   Cl    Cl    0.386607 0.830143 0.984177 -0.676072
Cl3   Cl    Cl    0.650315 0.648142 0.144302 -0.550557
Cl4   Cl    Cl    0.340696 0.277006 0.249054 -0.533297
Cl5   Cl    Cl    0.162540 0.426824 0.170435 -0.517204
Cl6   Cl    Cl    0.165355 0.464860 0.853245 -0.537465
N5    N     N_2   0.342031 0.301753 0.801703 -0.253186
H13   H     H_    0.404565 0.271128 0.782690 0.261578
C41   C     C_3   0.287681 0.194433 0.858043 -0.599325
H14   H     H_    0.292575 0.112481 0.793246 0.269303
H15   H     H_    0.216669 0.217825 0.866326 0.325932
H16   H     H_    0.310688 0.165337 0.958733 0.223592
Cl7   Cl    Cl    0.651000 0.648813 0.835279 -0.526752
N6    N     N_2   0.888668 0.191214 0.668345 -0.321740
H17   H     H_    0.910128 0.102580 0.646996 0.256758
C42   C     C_3   0.864895 0.202024 0.807265 -0.564612
H18   H     H_    0.925519 0.199916 0.869425 0.269161
H19   H     H_    0.818804 0.121214 0.840520 0.256877
H20   H     H_    0.830520 0.291858 0.822148 0.265845
Cl8   Cl    Cl    0.080708 0.164054 0.703241 -0.617638
Cl9   Cl    Cl    0.239432 0.247294 0.537907 -0.530906
N7    N     N_2   0.246923 0.726178 0.421050 -0.308937
H21   H     H_    0.301357 0.743596 0.479940 0.193672
C43   C     C_3   0.267095 0.743795 0.279875 -0.544030
H22   H     H_    0.289308 0.844279 0.257230 0.265068
H23   H     H_    0.207218 0.722009 0.219815 0.263563
H24   H     H_    0.321634 0.682574 0.250055 0.249997
N8    N     N_2   0.099617 0.846850 0.379636 -0.312567
H25   H     H_    0.075567 0.891557 0.294890 0.241837
C44   C     C_3   0.108612 0.932205 0.487131 -0.573049
H26   H     H_    0.149779 0.017427 0.452282 0.297526
H27   H     H_    0.142358 0.885494 0.572796 0.262862
H28   H     H_    0.041646 0.962371 0.519464 0.230896
N9    N     N_2   0.623873 0.131079 0.301282 -0.304910
H29   H     H_    0.634524 0.079618 0.218334 0.249871
C45   C     C_3   0.706807 0.186657 0.349182 -0.757224
H30   H     H_    0.710933 0.289437 0.320492 0.268896
H31   H     H_    0.764931 0.141628 0.303247 0.241169
H32   H     H_    0.712467 0.173063 0.458708 0.237680

loop_
_geom_bond_atom_site_label_1
_geom_bond_atom_site_label_2
_ccdc_geom_bond_type
N3    H5    S    
N5    H13   S    
C19   C20   A    
C12   O4    A    
C39   H6    S    
C7    C8    A    
C33   O8    A    
O4    Zn2   S    
C26   C27   A    
C29   C30   A    
C31   N1    A    
C18   C24   A    
C36   C37   A    
C18   C19   A    
C5    C6    A    
C1    O2    A    
C39   H7    S    
C4    Cl8   S    
C28   N5    S    
C15   C16   A    
C44   H28   S    
C45   H32   S    
C34   C35   A    
C17   H1    S    
N4    C40   S    
N2    Zn1   S    
C35   C36   A    
C8    C9    A    
C44   H27   S    
C23   C24   S    
C6    C38   A    
C16   Cl2   S    
O3    Zn1   S    
C2    C34   A    
O1    Zn1   S    
C34   N3    S    
C21   C22   A    
C26   Cl5   S    
N5    C41   S    
C36   H3    S    
C45   H30   S    
C12   O3    A    
C3    N6    S    
O8    Zn2   S    
C32   N2    A    
C10   Cl9   S    
C40   H12   S    
C8    N8    S    
N6    C42   S    
C21   N9    S    
C16   C17   A    
C39   H8    S    
C25   C26   A    
C14   Cl1   S    
O7    Zn1   S    
C40   H11   S    
C45   H31   S    
C41   H14   S    
C37   C38   A    
C2    C38   A    
N1    Zn2   S    
C43   H23   S    
C31   C32   A    
C7    C13   A    
C22   H2    S    
C44   H26   S    
O2    Zn2   S    
N4    H9    S    
N9    C45   S    
C17   C18   A    
C9    H4    S    
O6    Zn2   S    
C20   C21   A    
N8    C44   S    
C41   H15   S    
N7    C43   S    
C42   H19   S    
N3    C39   S    
C29   N2    A    
C22   C24   A    
C30   N1    A    
C3    C4    A    
C43   H24   S    
C25   C30   A    
C28   C29   A    
C1    C20   S    
C14   C19   A    
N6    H17   S    
C23   O6    A    
C11   C12   S    
C6    C7    A    
C33   O7    A    
C42   H20   S    
C40   H10   S    
C5    C10   A    
C32   Cl7   S    
C11   C13   A    
C1    O1    A    
C43   H22   S    
O5    Zn1   S    
C4    C5    A    
C13   N7    S    
N9    H29   S    
C33   C35   S    
C15   N4    S    
N8    H25   S    
C41   H16   S    
C23   O5    A    
C10   C11   A    
C31   Cl3   S    
N7    H21   S    
C3    C37   A    
C42   H18   S    
C27   C28   A    
C14   C15   A    
C25   Cl4   S    
C2    C9    A    
C27   Cl6   S    
