data_mof_unit_22145.cif
_audit_creation_date              2012-12-10T17:50:46-0500
_audit_creation_method            fapswitch 2.2
_symmetry_space_group_name_H-M    P1
_symmetry_Int_Tables_number       1
_space_group_crystal_system       triclinic
_cell_length_a                    14.781666
_cell_length_b                    14.654439
_cell_length_c                    15.860877
_cell_angle_alpha                 75.867015
_cell_angle_beta                  104.036821
_cell_angle_gamma                 116.176008
_cell_volume                      2953.94489649

loop_
_atom_site_label
_atom_site_type_symbol
_atom_type_description
_atom_site_fract_x
_atom_site_fract_y
_atom_site_fract_z
_atom_type_partial_charge
C1    C     C_R   0.879580 0.311189 0.516617 0.893278
C2    C     C_R   0.350367 0.941144 0.513334 -0.143308
C3    C     C_R   0.660142 0.034519 0.629174 -0.340001
C4    C     C_R   0.315940 0.011221 0.451758 -0.260614
C5    C     C_R   0.524532 0.074680 0.523676 -0.096113
C6    C     C_R   0.451531 0.979521 0.560086 -0.175792
C7    C     C_R   0.481882 0.929583 0.643416 0.439607
C8    C     C_R   0.487622 0.147227 0.466343 0.393418
C9    C     C_R   0.584928 0.957650 0.677199 0.550395
C10   C     C_R   0.380832 0.116014 0.442394 0.467402
C11   C     C_R   0.709569 0.658632 0.346509 0.496953
C12   C     C_R   0.120502 0.688700 0.483548 0.873872
C13   C     C_R   0.301496 0.364820 0.669852 0.472425
C14   C     C_R   0.794085 0.635230 0.374160 0.706142
C15   C     C_R   0.215304 0.384485 0.637753 0.703028
C16   C     C_R   0.001642 0.501610 0.659943 0.806389
C17   C     C_R   0.998807 0.499177 0.339966 0.782660
C18   C     C_R   0.715481 0.508669 0.489191 -0.023161
C19   C     C_R   0.277702 0.474729 0.504352 -0.027571
C20   C     C_R   0.629177 0.533612 0.469825 -0.102452
C21   C     C_R   0.371785 0.462827 0.535490 -0.092494
C22   C     C_R   0.626018 0.607744 0.393345 -0.273863
C23   C     C_R   0.764802 0.053109 0.657232 0.434007
C24   C     C_R   0.378276 0.398547 0.617092 -0.234936
C25   C     C_R   0.545450 0.485714 0.520534 -0.058320
C26   C     C_R   0.458176 0.512068 0.489309 -0.082510
C27   C     C_R   0.463830 0.592980 0.416594 0.310617
C28   C     C_R   0.547379 0.416480 0.602478 0.373704
C29   C     C_R   0.540701 0.631424 0.364882 0.403903
C30   C     C_R   0.461005 0.369550 0.646416 0.430003
C31   C     C_3   0.021407 0.425076 0.048557 0.459154
C32   C     C_3   0.980922 0.583944 0.949784 0.455042
C33   C     C_3   0.931903 0.417095 0.972463 0.208680
C34   C     C_R   0.220163 0.975126 0.397010 0.433609
C35   C     C_3   0.070406 0.592041 0.025976 0.197604
C36   C     C_1   0.005191 0.505336 0.749403 -0.107482
C37   C     C_1   0.996959 0.498942 0.250058 -0.138252
C38   C     C_3   0.094780 0.516519 0.992078 0.461051
C39   C     C_3   0.907697 0.492709 0.006356 0.465567
C40   C     C_3   0.005115 0.508192 0.915725 -0.290058
C41   C     C_3   0.997340 0.500932 0.082713 -0.301251
C42   C     C_1   0.006480 0.507930 0.824554 0.208221
C43   C     C_1   0.996170 0.499234 0.174354 0.197106
C44   C     C_R   0.810415 0.203095 0.543018 -0.378011
C45   C     C_R   0.839994 0.139523 0.615942 0.274974
C46   C     C_R   0.188777 0.799418 0.470169 -0.389107
C47   C     C_3   0.804267 0.255236 0.001118 0.151667
C48   C     C_3   0.720840 0.165318 0.958298 -0.736068
C49   C     C_3   0.202021 0.750934 0.997989 0.129950
C50   C     C_3   0.261148 0.855171 0.028700 -0.818292
C51   C     C_3   0.439800 0.733362 0.427646 0.146970
C52   C     C_3   0.392544 0.805072 0.369029 -0.741832
C53   C     C_3   0.637516 0.313865 0.673145 0.048102
C54   C     C_3   0.745217 0.318109 0.698213 -0.734998
C55   C     C_3   0.103474 0.795594 0.278688 0.111622
C56   C     C_R   0.159521 0.868995 0.403216 0.286682
C57   C     C_3   0.031817 0.792621 0.191298 -0.607421
C58   C     C_3   0.987100 0.129039 0.605431 0.161126
C59   C     C_3   0.061769 0.089763 0.669817 -0.732248
C60   C     C_3   0.786221 0.903063 0.704538 0.080019
C61   C     C_3   0.815396 0.834696 0.785192 -0.563659
C62   C     C_3   0.226728 0.068923 0.258004 0.100902
C63   C     C_3   0.216869 0.166628 0.204960 -0.601729
C64   C     C_3   0.371984 0.903816 0.734163 0.090233
C65   C     C_3   0.287698 0.821615 0.783745 -0.709730
C66   C     C_3   0.526688 0.297353 0.360101 0.177278
C67   C     C_R   0.707718 0.171086 0.505267 0.623765
C68   C     C_3   0.620158 0.364108 0.314906 -0.688753
C69   C     C_3   0.471124 0.648210 0.220650 0.152590
C70   C     C_3   0.469034 0.724818 0.136797 -0.666527
C71   C     C_3   0.398726 0.199944 0.709404 0.098905
C72   C     C_3   0.386766 0.129265 0.797679 -0.718838
C73   C     C_R   0.285530 0.834974 0.521732 0.570874
C74   C     C_R   0.630407 0.094913 0.552035 -0.125239
Cu1   Cu    Cu3+1 0.081740 0.475690 0.522610 1.047863
Cu2   Cu    Cu3+1 0.918260 0.524310 0.477390 1.017707
F1    F     F_    0.141016 0.346528 0.688424 -0.581022
F2    F     F_    0.340757 0.187149 0.407846 -0.676672
F3    F     F_    0.319818 0.763894 0.571842 -0.621276
F4    F     F_    0.686365 0.207876 0.419386 -0.650419
F5    F     F_    0.874545 0.685531 0.330228 -0.599487
F6    F     F_    0.711548 0.732509 0.275093 -0.586946
F7    F     F_    0.310343 0.316411 0.754222 -0.595735
F8    F     F_    0.042497 0.343945 0.100385 -0.620290
F9    F     F_    0.959990 0.665242 0.898102 -0.631560
F10   F     F_    0.812089 0.481156 0.014670 -0.601565
F11   F     F_    0.190449 0.528408 0.983601 -0.614852
F12   F     F_    0.610173 0.909007 0.758002 -0.610143
H1    H     H_    0.258840 0.508849 0.438399 0.228433
H2    H     H_    0.306916 0.846987 0.094623 0.246370
H3    H     H_    0.313194 0.909063 0.981368 0.209122
H4    H     H_    0.207402 0.887576 0.032798 0.257397
H5    H     H_    0.524146 0.773947 0.429357 0.144165
H6    H     H_    0.423521 0.718567 0.495595 0.209403
H7    H     H_    0.308673 0.769075 0.367600 0.226235
H8    H     H_    0.425311 0.879300 0.394245 0.200640
H9    H     H_    0.408753 0.820440 0.300939 0.253339
H10   H     H_    0.596427 0.267504 0.618905 0.144025
H11   H     H_    0.603915 0.274042 0.733919 0.216142
H12   H     H_    0.719054 0.444471 0.536248 0.232878
H13   H     H_    0.789923 0.370112 0.747775 0.291269
H14   H     H_    0.742255 0.239854 0.726933 0.213494
H15   H     H_    0.783784 0.345018 0.639971 0.231397
H16   H     H_    0.097704 0.716261 0.305795 0.130005
H17   H     H_    0.182879 0.843904 0.264568 0.070399
H18   H     H_    0.028174 0.868727 0.165990 0.238390
H19   H     H_    0.059992 0.772924 0.142329 0.217181
H20   H     H_    0.954016 0.733291 0.198934 0.297189
H21   H     H_    0.030623 0.193719 0.557828 0.167857
H22   H     H_    0.931615 0.066178 0.567594 0.088816
H23   H     H_    0.767095 0.288340 0.031107 0.186987
H24   H     H_    0.020803 0.023711 0.717865 0.250537
H25   H     H_    0.099786 0.064308 0.633507 0.182648
H26   H     H_    0.120932 0.151659 0.706156 0.294447
H27   H     H_    0.837738 0.922032 0.656378 0.106456
H28   H     H_    0.706637 0.858256 0.674627 0.163162
H29   H     H_    0.763524 0.812200 0.833905 0.280365
H30   H     H_    0.809140 0.764024 0.765771 0.219242
H31   H     H_    0.895173 0.876408 0.815997 0.240634
H32   H     H_    0.183556 0.006952 0.217239 0.139529
H33   H     H_    0.308909 0.082636 0.270329 0.103747
H34   H     H_    0.854247 0.225451 0.053524 0.197534
H35   H     H_    0.260758 0.231627 0.242761 0.269940
H36   H     H_    0.247235 0.186460 0.142321 0.192917
H37   H     H_    0.135422 0.154891 0.189612 0.273033
H38   H     H_    0.338331 0.952702 0.683772 0.116340
H39   H     H_    0.432733 0.951848 0.781550 0.144866
H40   H     H_    0.318992 0.773459 0.837028 0.265095
H41   H     H_    0.254237 0.858756 0.813081 0.169833
H42   H     H_    0.226684 0.771714 0.737999 0.257586
H43   H     H_    0.490901 0.347692 0.366084 0.172110
H44   H     H_    0.473066 0.241579 0.315140 0.141604
H45   H     H_    0.755216 0.129312 0.928534 0.275816
H46   H     H_    0.638427 0.316464 0.282535 0.274086
H47   H     H_    0.604717 0.424499 0.263606 0.177431
H48   H     H_    0.687283 0.401387 0.362761 0.278260
H49   H     H_    0.391653 0.604477 0.235365 0.166175
H50   H     H_    0.499230 0.593963 0.208710 0.143427
H51   H     H_    0.546782 0.767651 0.118640 0.276006
H52   H     H_    0.416710 0.683421 0.082219 0.221859
H53   H     H_    0.441878 0.780356 0.146873 0.224822
H54   H     H_    0.432618 0.173873 0.669566 0.075046
H55   H     H_    0.321110 0.191260 0.674203 0.156471
H56   H     H_    0.675770 0.106685 0.008452 0.207310
H57   H     H_    0.361131 0.158775 0.841496 0.306990
H58   H     H_    0.328600 0.051110 0.787973 0.173155
H59   H     H_    0.460695 0.124860 0.829725 0.213474
H60   H     H_    0.669037 0.192668 0.906047 0.244740
H61   H     H_    0.156049 0.762336 0.932623 0.181720
H62   H     H_    0.257585 0.722097 0.991258 0.186598
N1    N     N_R   0.795440 0.560790 0.443380 -0.303655
N2    N     N_R   0.204560 0.439210 0.556620 -0.289813
O1    O     O_R   0.977900 0.338120 0.529810 -0.546258
O2    O     O_3   0.139951 0.682254 0.060736 -0.551403
O3    O     O_3   0.395752 0.639192 0.394496 -0.609615
O4    O     O_3   0.640125 0.414991 0.649396 -0.561246
O5    O     O_3   0.076294 0.834101 0.338304 -0.474362
O6    O     O_3   0.941570 0.164536 0.652184 -0.481528
O7    O     O_3   0.795689 0.993225 0.730130 -0.485045
O8    O     O_3   0.185061 0.042827 0.336406 -0.484263
O9    O     O_3   0.412047 0.855485 0.695472 -0.466011
O10   O     O_3   0.554710 0.250037 0.446123 -0.564190
O11   O     O_3   0.536079 0.702249 0.289835 -0.512051
O12   O     O_R   0.022100 0.661880 0.470190 -0.509727
O13   O     O_3   0.462312 0.302373 0.724559 -0.515633
O14   O     O_R   0.839850 0.379180 0.491620 -0.579747
O15   O     O_R   0.160150 0.620820 0.508380 -0.527482
O16   O     O_R   0.069010 0.479460 0.640020 -0.482390
O17   O     O_R   0.930990 0.520540 0.359980 -0.532314
O18   O     O_R   0.930960 0.520530 0.601820 -0.596743
O19   O     O_R   0.069040 0.479470 0.398180 -0.597928
O20   O     O_3   0.860665 0.328288 0.936446 -0.539210

loop_
_geom_bond_atom_site_label_1
_geom_bond_atom_site_label_2
_ccdc_geom_bond_type
C66   C68   S    
C21   C26   A    
C34   C56   A    
C23   C45   A    
C22   C29   A    
C27   C29   A    
C58   H21   S    
C29   O11   S    
C54   H13   S    
C3    C23   A    
C68   H46   S    
C60   O7    S    
C12   O15   A    
C65   H42   S    
C10   F2    S    
Cu2   O17   S    
C39   C41   S    
C53   C54   S    
C53   H11   S    
C25   C28   A    
C70   H52   S    
C7    O9    S    
C48   H56   S    
C26   C27   A    
C33   C39   S    
C49   H62   S    
C55   H17   S    
C3    C9    A    
C19   C21   A    
C9    F12   S    
C5    C6    A    
C11   C14   A    
C17   O17   A    
C61   H31   S    
C20   C25   A    
C72   H57   S    
C52   H9    S    
C66   O10   S    
C52   H7    S    
C32   C39   S    
C5    C74   A    
C3    C74   A    
Cu1   O1    S    
C59   H24   S    
C36   C42   T    
C50   H2    S    
C23   O7    S    
C14   N1    A    
C35   O2    S    
Cu2   O14   S    
Cu1   O16   S    
C62   H32   S    
C40   C42   S    
C57   H18   S    
C70   H51   S    
C69   H49   S    
C41   C43   S    
C2    C6    A    
C18   H12   S    
C15   N2    A    
C63   H36   S    
C66   H44   S    
C11   F6    S    
C27   O3    S    
C4    C34   A    
C33   C40   S    
C45   O6    S    
C61   H29   S    
C51   C52   S    
C32   C35   S    
C54   H15   S    
C68   H48   S    
C35   C38   S    
C12   C46   S    
C58   O6    S    
C47   H34   S    
Cu2   N1    S    
C25   C26   A    
C55   H16   S    
C31   F8    S    
C13   C24   A    
C60   C61   S    
C37   C43   T    
C47   H23   S    
C2    C4    A    
Cu1   Cu2   S    
C65   H40   S    
C62   C63   S    
C19   H1    S    
C12   O12   A    
C56   O5    S    
C48   H45   S    
C1    C44   S    
C63   H35   S    
C47   C48   S    
Cu1   N2    S    
C59   H25   S    
C64   H39   S    
C51   O3    S    
C31   C33   S    
C19   N2    A    
C73   F3    S    
C67   C74   A    
C17   C37   S    
C1    O1    A    
C63   H37   S    
C2    C73   A    
C51   H5    S    
C71   H54   S    
C47   O20   S    
C50   H4    S    
C49   O2    S    
C57   H19   S    
C20   C22   A    
C64   H38   S    
C13   C15   A    
Cu1   O19   S    
C62   O8    S    
C60   H28   S    
C4    C10   A    
C18   N1    A    
C44   C45   A    
C71   H55   S    
C66   H43   S    
C69   H50   S    
C7    C9    A    
C70   H53   S    
C31   C41   S    
C62   H33   S    
C61   H30   S    
C58   H22   S    
C54   H14   S    
C68   H47   S    
C67   F4    S    
C69   O11   S    
C30   O13   S    
C64   O9    S    
C60   H27   S    
C5    C8    A    
C65   H41   S    
C17   O19   A    
C6    C7    A    
C53   H10   S    
C72   H59   S    
C13   F7    S    
C11   C22   A    
C14   F5    S    
C31   C38   S    
C49   H61   S    
C38   F11   S    
Cu2   O18   S    
C64   C65   S    
C55   C57   S    
C58   C59   S    
C71   C72   S    
C8    O10   S    
C16   C36   S    
C38   C40   S    
C15   F1    S    
C1    O14   A    
C16   O16   A    
C59   H26   S    
C72   H58   S    
C32   F9    S    
C48   H60   S    
C28   C30   A    
C52   H8    S    
C18   C20   A    
C32   C40   S    
C69   C70   S    
C35   C41   S    
C24   C30   A    
Cu2   O12   S    
C51   H6    S    
C16   O18   A    
C50   H3    S    
C55   O5    S    
C57   H20   S    
C53   O4    S    
C8    C10   A    
C49   C50   S    
C71   O13   S    
C21   C24   A    
C46   C56   A    
C28   O4    S    
C44   C67   A    
Cu1   O15   S    
C39   F10   S    
C33   O20   S    
C46   C73   A    
C34   O8    S    
