data_mof_unit_38800.cif
_audit_creation_date              2012-10-26T20:38:29-0400
_audit_creation_method            fapswitch 2.2
_symmetry_space_group_name_H-M    P1
_symmetry_Int_Tables_number       1
_space_group_crystal_system       triclinic
_cell_length_a                    15.814031
_cell_length_b                    11.066309
_cell_length_c                    10.057061
_cell_angle_alpha                 112.164532
_cell_angle_beta                  98.999163
_cell_angle_gamma                 93.275151
_cell_volume                      1596.86374699

loop_
_atom_site_label
_atom_site_type_symbol
_atom_type_description
_atom_site_fract_x
_atom_site_fract_y
_atom_site_fract_z
_atom_type_partial_charge
C1    C     C_R   0.492468 0.253651 0.439286 0.546914
C2    C     C_3   0.022039 0.606337 0.452076 0.264781
C3    C     C_3   0.013511 0.393360 0.408554 -0.177057
C4    C     C_3   0.986054 0.637126 0.594416 -0.170033
C5    C     C_1   0.250344 0.509547 0.497737 -0.035564
C6    C     C_1   0.749842 0.501688 0.504896 -0.041145
C7    C     C_3   0.045972 0.545335 0.634485 0.250887
C8    C     C_3   0.953608 0.485670 0.369014 0.249996
C9    C     C_3   0.082469 0.516260 0.493754 0.010567
C10   C     C_3   0.917775 0.513896 0.509925 0.009346
C11   C     C_1   0.174511 0.514461 0.494361 -0.006818
C12   C     C_R   0.507070 0.746366 0.560652 0.539934
C13   C     C_1   0.825959 0.507114 0.509340 -0.002585
C14   C     C_2   0.484425 0.111751 0.403639 0.217468
C15   C     C_2   0.514220 0.888157 0.595368 0.225473
C16   C     C_3   0.016160 0.261199 0.631349 -0.010029
C17   C     C_3   0.980264 0.145810 0.662073 -0.395469
C18   C     C_3   0.984353 0.769230 0.371455 -0.010086
C19   C     C_3   0.020803 0.885593 0.342959 -0.391668
C20   C     C_3   0.936065 0.409014 0.117285 -0.022241
C21   C     C_3   0.880714 0.421509 0.986170 -0.393547
C22   C     C_3   0.055771 0.616503 0.884512 -0.025584
C23   C     C_2   0.497617 0.069469 0.513429 -0.123583
C24   C     C_3   0.110677 0.609079 0.018862 -0.387719
C25   C     C_3   0.636963 0.999498 0.757572 -0.024904
C26   C     C_3   0.672390 0.108062 0.907196 -0.362901
C27   C     C_3   0.526010 0.994607 0.189860 -0.029068
C28   C     C_3   0.493393 0.931529 0.025360 -0.296300
C29   C     C_3   0.343354 0.468560 0.858486 0.031640
C30   C     C_3   0.264863 0.376344 0.754546 -0.367556
C31   C     C_3   0.655350 0.574987 0.175663 0.051091
C32   C     C_3   0.719518 0.679959 0.301079 -0.358916
C33   C     C_3   0.658022 0.695003 0.909726 0.046267
C34   C     C_2   0.488354 0.929866 0.487645 -0.119038
C35   C     C_3   0.720815 0.806701 0.029810 -0.432443
C36   C     C_3   0.350812 0.286332 0.069814 0.076089
C37   C     C_3   0.307768 0.156244 0.948502 -0.384383
C38   C     C_2   0.509959 0.512178 0.084200 0.439248
C39   C     C_2   0.489577 0.493721 0.920951 0.445693
C40   C     C_R   0.340148 0.502281 0.499695 0.529103
C41   C     C_R   0.659698 0.498641 0.500582 0.512119
C42   C     C_3   0.978141 0.424191 0.551279 0.257192
Cu1   Cu    Cu3+1 0.514700 0.521810 0.644910 0.976613
Cu2   Cu    Cu3+1 0.485300 0.478190 0.355090 0.992483
H1    H     H_    0.026042 0.296159 0.332524 0.085895
H2    H     H_    0.050798 0.851407 0.244779 0.145319
H3    H     H_    0.968154 0.942943 0.324218 0.092910
H4    H     H_    0.070368 0.950474 0.438465 0.162900
H5    H     H_    0.941712 0.303245 0.091901 0.129376
H6    H     H_    0.001360 0.462929 0.137214 0.144367
H7    H     H_    0.873437 0.526498 0.010043 0.133620
H8    H     H_    0.911404 0.382676 0.889386 0.136135
H9    H     H_    0.815770 0.365193 0.960944 0.152067
H10   H     H_    0.993449 0.552804 0.858149 0.150235
H11   H     H_    0.043063 0.719921 0.910106 0.131833
H12   H     H_    0.973085 0.734207 0.670027 0.084472
H13   H     H_    0.172371 0.675279 0.051166 0.168541
H14   H     H_    0.075620 0.639416 0.110869 0.138121
H15   H     H_    0.124973 0.506678 0.995084 0.134653
H16   H     H_    0.462000 0.859423 0.377138 0.173410
H17   H     H_    0.518063 0.139781 0.625789 0.181111
H18   H     H_    0.657080 0.031880 0.673536 0.119883
H19   H     H_    0.666141 0.908982 0.751764 0.109753
H20   H     H_    0.656306 0.078274 0.994875 0.147194
H21   H     H_    0.743688 0.127447 0.922943 0.093592
H22   H     H_    0.644349 0.199878 0.915613 0.164044
H23   H     H_    0.064696 0.325768 0.728751 0.156064
H24   H     H_    0.560735 0.923679 0.224790 0.161533
H25   H     H_    0.572119 0.083678 0.213638 0.126857
H26   H     H_    0.463974 0.003861 0.986951 0.186188
H27   H     H_    0.547818 0.900456 0.968702 0.174932
H28   H     H_    0.445107 0.844304 0.996487 0.174074
H29   H     H_    0.346083 0.563224 0.843724 0.152627
H30   H     H_    0.334580 0.494700 0.972549 0.102659
H31   H     H_    0.279398 0.324827 0.643893 0.168984
H32   H     H_    0.243671 0.302544 0.795903 0.112080
H33   H     H_    0.210925 0.433013 0.745309 0.162308
H34   H     H_    0.048351 0.220668 0.535663 0.121444
H35   H     H_    0.675386 0.563448 0.072360 0.128506
H36   H     H_    0.660539 0.476756 0.179287 0.147273
H37   H     H_    0.785893 0.653043 0.298516 0.122384
H38   H     H_    0.716895 0.776902 0.293317 0.135691
H39   H     H_    0.702996 0.692213 0.407937 0.147019
H40   H     H_    0.643259 0.727937 0.819708 0.188393
H41   H     H_    0.692564 0.606673 0.875993 0.137562
H42   H     H_    0.767361 0.766906 0.092013 0.115726
H43   H     H_    0.759200 0.859708 0.980277 0.089641
H44   H     H_    0.686157 0.878363 0.105071 0.156070
H45   H     H_    0.929881 0.080774 0.568011 0.156409
H46   H     H_    0.306873 0.362202 0.076568 0.105399
H47   H     H_    0.357440 0.271108 0.172623 0.192833
H48   H     H_    0.321808 0.148476 0.841015 0.194846
H49   H     H_    0.331505 0.072547 0.971573 0.150627
H50   H     H_    0.236810 0.148086 0.942430 0.080220
H51   H     H_    0.032994 0.088259 0.679845 0.096758
H52   H     H_    0.951551 0.181077 0.761585 0.138496
H53   H     H_    0.951285 0.808770 0.466189 0.117167
H54   H     H_    0.936463 0.705035 0.272857 0.158341
N1    N     N_2   0.463210 0.445420 0.137360 -0.070996
N2    N     N_2   0.536790 0.554580 0.862640 -0.072337
O1    O     O_R   0.507840 0.332340 0.577400 -0.502298
O2    O     O_3   0.052056 0.699060 0.399270 -0.557156
O3    O     O_3   0.895191 0.460315 0.237703 -0.575825
O4    O     O_3   0.101782 0.575945 0.769474 -0.581036
O5    O     O_3   0.546134 0.976818 0.737629 -0.570825
O6    O     O_3   0.454815 0.024955 0.260014 -0.574533
O7    O     O_3   0.418535 0.406929 0.830608 -0.526415
O8    O     O_3   0.571510 0.613660 0.181949 -0.535517
O9    O     O_3   0.582174 0.670771 0.959034 -0.515878
O10   O     O_3   0.431249 0.321755 0.041020 -0.477418
O11   O     O_R   0.492160 0.667660 0.422600 -0.495259
O12   O     O_R   0.483020 0.295500 0.332650 -0.481813
O13   O     O_R   0.516980 0.704500 0.667350 -0.496562
O14   O     O_R   0.391490 0.518400 0.622350 -0.478789
O15   O     O_R   0.608510 0.481600 0.377650 -0.487625
O16   O     O_R   0.366660 0.481570 0.377600 -0.534065
O17   O     O_R   0.633340 0.518430 0.622400 -0.544984
O18   O     O_3   0.948303 0.331312 0.604065 -0.563479

loop_
_geom_bond_atom_site_label_1
_geom_bond_atom_site_label_2
_ccdc_geom_bond_type
C3    C42   S    
C10   C42   S    
C31   O8    S    
C19   H2    S    
C25   O5    S    
C31   H36   S    
C22   H10   S    
C20   O3    S    
C39   O7    S    
C32   H37   S    
C29   C30   S    
C36   C37   S    
C5    C11   T    
C1    O12   A    
C18   O2    S    
C38   C39   S    
Cu2   N1    S    
C19   H3    S    
C29   H29   S    
C2    O2    S    
C22   O4    S    
C18   C19   S    
C25   H19   S    
C7    C42   S    
C26   H20   S    
C20   H6    S    
C27   H24   S    
C30   H33   S    
C35   H43   S    
C40   O14   A    
Cu2   O15   S    
C16   C17   S    
C6    C41   S    
C17   H51   S    
C18   H53   S    
C15   C34   D    
C27   H25   S    
N2    O9    S    
C4    H12   S    
C34   H16   S    
C28   H28   S    
C41   O15   A    
C4    C7    S    
C8    O3    S    
C28   H26   S    
C26   H22   S    
C17   H45   S    
Cu1   N2    S    
C3    C8    S    
C17   H52   S    
C19   H4    S    
C42   O18   S    
C29   H30   S    
C27   O6    S    
C25   C26   S    
N1    O10   S    
C3    H1    S    
C14   C23   D    
C2    C4    S    
Cu1   Cu2   S    
Cu1   O1    S    
C20   H5    S    
C3    C9    S    
C16   O18   S    
C30   H32   S    
C35   H44   S    
C31   C32   S    
C12   C15   S    
C23   H17   S    
C23   C34   S    
C37   H49   S    
C16   H23   S    
C9    C11   S    
Cu1   O17   S    
Cu2   O12   S    
C36   H47   S    
C24   H14   S    
C7    O4    S    
C36   O10   S    
C22   C24   S    
C28   H27   S    
C33   O9    S    
C4    C10   S    
C1    O1    A    
C21   H7    S    
C12   O13   A    
C24   H13   S    
C36   H46   S    
C7    C9    S    
C32   H39   S    
C33   H41   S    
C37   H48   S    
C26   H21   S    
C2    C8    S    
C38   N1    D    
C10   C13   S    
C31   H35   S    
C22   H11   S    
C32   H38   S    
C15   O5    S    
Cu1   O14   S    
Cu1   O13   S    
C6    C13   T    
C21   H9    S    
C30   H31   S    
C39   N2    D    
C40   O16   A    
C24   H15   S    
C33   C35   S    
C37   H50   S    
C16   H34   S    
C25   H18   S    
C12   O11   A    
C38   O8    S    
C33   H40   S    
Cu2   O11   S    
C14   O6    S    
C20   C21   S    
Cu2   O16   S    
C8    C10   S    
C5    C40   S    
C27   C28   S    
C29   O7    S    
C1    C14   S    
C18   H54   S    
C41   O17   A    
C2    C9    S    
C35   H42   S    
C21   H8    S    
