data_mof_unit_16985.cif
_audit_creation_date              2013-03-05T16:35:37-0500
_audit_creation_method            fapswitch 2.2
_symmetry_space_group_name_H-M    P1
_symmetry_Int_Tables_number       1
_space_group_crystal_system       triclinic
_cell_length_a                    7.780496
_cell_length_b                    9.096142
_cell_length_c                    17.335674
_cell_angle_alpha                 90.005537
_cell_angle_beta                  84.846976
_cell_angle_gamma                 89.986302
_cell_volume                      1221.93025472

loop_
_atom_site_label
_atom_site_type_symbol
_atom_site_description
_atom_site_fract_x
_atom_site_fract_y
_atom_site_fract_z
_atom_type_partial_charge
O1    O     O_R   0.357240 0.711600 0.500000 -0.591037
O2    O     O_R   0.642760 0.288400 0.500000 -0.591034
O3    O     O_R   0.642760 0.711600 0.500000 -0.564565
O4    O     O_R   0.357240 0.288400 0.500000 -0.564566
C1    C     C_R   0.499991 0.779989 0.499995 0.851618
C2    C     C_R   0.500009 0.220011 0.500005 0.851618
O5    O     O_R   0.340660 0.500000 0.613590 -0.578810
O6    O     O_R   0.659340 0.500000 0.386410 -0.578805
O7    O     O_R   0.626230 0.500000 0.613600 -0.552237
O8    O     O_R   0.373770 0.500000 0.386400 -0.552241
C3    C     C_R   0.475777 0.501554 0.650452 0.904890
C4    C     C_R   0.524223 0.498448 0.349548 0.904893
Cu1   Cu    Cu3+1 0.330920 0.500000 0.500000 1.042121
Cu2   Cu    Cu3+1 0.669080 0.500000 0.500000 1.042125
H1    H     H_    0.342526 0.350847 0.115069 0.159196
H2    H     H_    0.657478 0.649184 0.884925 0.159196
N1    N     N_1   0.923170 0.500000 0.500010 -0.044773
N2    N     N_1   0.076830 0.500000 0.499990 -0.044776
C5    C     C_R   0.457587 0.507565 0.735259 -0.245097
C6    C     C_R   0.542413 0.492447 0.264740 -0.245096
C7    C     C_R   0.579699 0.585777 0.774059 0.330383
C8    C     C_R   0.420303 0.414241 0.225937 0.330382
C9    C     C_R   0.565403 0.586690 0.854880 -0.296638
C10   C     C_R   0.434600 0.413338 0.145117 -0.296642
C11   C     C_R   0.433809 0.508499 0.897364 -0.037817
C12   C     C_R   0.566193 0.491534 0.102636 -0.037817
C13   C     C_R   0.308568 0.432059 0.858657 0.352609
C14   C     C_R   0.691433 0.567970 0.141346 0.352612
C15   C     C_R   0.317161 0.437041 0.777513 0.371812
C16   C     C_R   0.682838 0.562979 0.222490 0.371814
C17   C     C_2   0.428259 0.510288 0.982087 -0.170703
C18   C     C_2   0.571746 0.489754 0.017913 -0.170704
C19   C     C_1   0.499986 0.934635 0.499999 -0.142596
C20   C     C_1   0.500014 0.065365 0.500001 -0.142597
H3    H     H_    0.695346 0.473429 0.984537 0.166587
H4    H     H_    0.304659 0.526612 0.015463 0.166587
O9    O     O_3   0.180040 0.347166 0.896792 -0.714263
H5    H     H_    0.203848 0.331446 0.951218 0.324710
O10   O     O_3   0.819962 0.652867 0.103214 -0.714268
H6    H     H_    0.796159 0.668588 0.048787 0.324711
O11   O     O_3   0.708783 0.663709 0.731984 -0.719164
H7    H     H_    0.782500 0.712701 0.768079 0.320047
O12   O     O_3   0.291219 0.336303 0.268010 -0.719162
H8    H     H_    0.217503 0.287315 0.231913 0.320049
O13   O     O_3   0.801137 0.641894 0.260964 -0.548932
C21   C     C_3   0.955694 0.560191 0.259702 -0.138219
H9    H     H_    0.932766 0.447417 0.283459 0.149986
H10   H     H_    0.044006 0.616651 0.296879 0.192186
H11   H     H_    0.022262 0.554040 0.200315 0.178703
O14   O     O_3   0.198859 0.358122 0.739042 -0.548927
C22   C     C_3   0.044305 0.439827 0.740301 -0.138231
H12   H     H_    0.955966 0.383336 0.703150 0.192186
H13   H     H_    0.067230 0.552577 0.716513 0.150015
H14   H     H_    0.977767 0.446037 0.799691 0.178678

loop_
_geom_bond_atom_site_label_1
_geom_bond_atom_site_label_2
_geom_bond_distance
_ccdc_geom_bond_type
C11   C17   1.465561 S    
O7    Cu2   1.967607 S    
C12   C18   1.465561 S    
O9    H5    0.988129 S    
Cu1   Cu2   2.631053 S    
C13   C15   1.403002 A    
O11   H7    0.991779 S    
C16   O13   1.384843 S    
C12   C14   1.414551 A    
C17   C18   1.338446 D    
C21   H11   1.111511 S    
O6    C4    1.278447 A    
C22   H14   1.111498 S    
C4    C6    1.465291 S    
C14   C16   1.403002 A    
C19   C20   1.189141 T    
C6    C16   1.413676 A    
O13   C21   1.411988 S    
O5    C3    1.278445 A    
O7    C3    1.282300 A    
Cu2   N1    1.976961 S    
C3    C5    1.465291 S    
O2    C2    1.273140 A    
O3    Cu2   1.935558 S    
O8    C4    1.282299 A    
Cu1   N2    1.976962 S    
C13   O9    1.383865 S    
O1    C1    1.273140 A    
C8    C10   1.395513 A    
O4    C2    1.273020 A    
H1    C10   1.083888 S    
C5    C7    1.405790 A    
C10   C12   1.400563 A    
O14   C22   1.411989 S    
H2    C9    1.083888 S    
C21   H10   1.109458 S    
C15   O14   1.384843 S    
C9    C11   1.400560 A    
C7    C9    1.395514 A    
O12   H8    0.991780 S    
O2    Cu2   1.935656 S    
C7    O11   1.382786 S    
C11   C13   1.414550 A    
C22   H12   1.109444 S    
C5    C15   1.413675 A    
C18   H3    1.087017 S    
O5    Cu1   1.977407 S    
O1    Cu1   1.935655 S    
N1    N2    1.195521 T    
O10   H6    0.988128 S    
C17   H4    1.087017 S    
O6    Cu2   1.977407 S    
C14   O10   1.383865 S    
C22   H13   1.113851 S    
C21   H9    1.113869 S    
C8    O12   1.382787 S    
C2    C20   1.406678 S    
O4    Cu1   1.935559 S    
C6    C8    1.405786 A    
O3    C1    1.273020 A    
O8    Cu1   1.967608 S    
C1    C19   1.406678 S    
