data_mof_unit_67584.cif
_audit_creation_date              2012-10-26T20:18:35-0400
_audit_creation_method            fapswitch 2.2
_symmetry_space_group_name_H-M    P1
_symmetry_Int_Tables_number       1
_space_group_crystal_system       triclinic
_cell_length_a                    10.936751
_cell_length_b                    11.070832
_cell_length_c                    9.825088
_cell_angle_alpha                 110.732013
_cell_angle_beta                  99.941713
_cell_angle_gamma                 88.528389
_cell_volume                      1095.06190712

loop_
_atom_site_label
_atom_site_type_symbol
_atom_type_description
_atom_site_fract_x
_atom_site_fract_y
_atom_site_fract_z
_atom_type_partial_charge
C1    C     C_R   0.486767 0.254478 0.440496 0.545853
C2    C     C_2   0.499466 0.483565 0.916989 -0.050054
C3    C     C_R   0.259985 0.507377 0.501890 0.620644
C4    C     C_R   0.503774 0.745371 0.557047 0.592168
C5    C     C_R   0.739958 0.490027 0.498761 0.540191
C6    C     C_3   0.096935 0.463907 0.635294 -0.160254
C7    C     C_3   0.955247 0.473098 0.649229 -0.052833
C8    C     C_3   0.067315 0.644573 0.523958 0.453726
C9    C     C_3   0.051628 0.405315 0.350817 -0.113390
C10   C     C_3   0.121479 0.504727 0.502193 -0.008019
C11   C     C_3   0.863164 0.280463 0.096310 -0.004019
C12   C     C_3   0.879413 0.487287 0.501771 -0.014509
C13   C     C_3   0.745887 0.234594 0.980509 -0.355797
C14   C     C_3   0.069707 0.818710 0.430972 0.060886
C15   C     C_3   0.042660 0.838574 0.282718 -0.342206
C16   C     C_1   0.856928 0.638084 0.361749 0.237963
C17   C     C_3   0.358797 0.796865 0.230862 0.038107
C18   C     C_3   0.279961 0.672324 0.149766 -0.346077
C19   C     C_3   0.527750 0.021196 0.175371 -0.041526
C20   C     C_3   0.482970 0.961405 0.009536 -0.361777
C21   C     C_1   0.630443 0.660892 0.956620 0.374802
C22   C     C_1   0.147885 0.335410 0.623758 0.234863
C23   C     C_3   0.919721 0.623313 0.500588 -0.144232
C24   C     C_1   0.357212 0.349652 0.044252 0.338849
C25   C     C_1   0.909137 0.364469 0.683695 0.281963
C26   C     C_1   0.938537 0.582587 0.783779 0.188815
C27   C     C_3   0.069827 0.837624 0.750625 -0.032011
C28   C     C_3   0.165709 0.947643 0.831565 -0.354472
C29   C     C_1   0.120579 0.285469 0.292228 0.238059
C30   C     C_3   0.804010 0.181221 0.345835 0.026215
C31   C     C_3   0.808019 0.081204 0.421323 -0.388130
C32   C     C_3   0.915704 0.371917 0.362162 0.450415
C33   C     C_2   0.465005 0.115540 0.399408 0.252763
C34   C     C_2   0.462139 0.065044 0.504404 -0.089788
C35   C     C_2   0.505798 0.882363 0.579327 -0.099743
C36   C     C_2   0.442997 0.925891 0.475696 0.251044
C37   C     C_2   0.514382 0.502106 0.080281 -0.039062
Cu1   Cu    Cu3+1 0.522160 0.521810 0.644910 0.978293
Cu2   Cu    Cu3+1 0.477840 0.478190 0.355090 0.993138
H1    H     H_    0.151831 0.531466 0.739831 0.152215
H2    H     H_    0.704052 0.317371 0.953228 0.183119
H3    H     H_    0.768790 0.160791 0.878397 0.115610
H4    H     H_    0.677121 0.191130 0.022345 0.134230
H5    H     H_    0.145257 0.887503 0.505410 0.202550
H6    H     H_    0.982560 0.845645 0.473663 0.091387
H7    H     H_    0.972381 0.912140 0.284069 0.119857
H8    H     H_    0.125252 0.877664 0.259651 0.183201
H9    H     H_    0.005258 0.747827 0.192537 0.202850
H10   H     H_    0.458211 0.777104 0.222942 0.135147
H11   H     H_    0.321650 0.857512 0.166766 0.195935
H12   H     H_    0.488267 0.127635 0.619550 0.077654
H13   H     H_    0.281272 0.613544 0.220032 0.243448
H14   H     H_    0.182964 0.690537 0.112318 0.127121
H15   H     H_    0.312252 0.618221 0.045153 0.090591
H16   H     H_    0.590223 0.953479 0.210747 0.137071
H17   H     H_    0.578548 0.111616 0.192754 0.137572
H18   H     H_    0.421683 0.028766 0.971459 0.171036
H19   H     H_    0.563864 0.944710 0.951519 0.125335
H20   H     H_    0.432961 0.867348 0.980712 0.149072
H21   H     H_    0.031560 0.818648 0.837434 0.174759
H22   H     H_    0.992855 0.872946 0.689169 0.091974
H23   H     H_    0.568640 0.946275 0.674617 0.025281
H24   H     H_    0.225297 0.959764 0.756315 0.172727
H25   H     H_    0.118382 0.039236 0.878730 0.144465
H26   H     H_    0.224235 0.926695 0.923884 0.159470
H27   H     H_    0.787689 0.127237 0.225286 0.136423
H28   H     H_    0.725817 0.244635 0.375215 0.149324
H29   H     H_    0.901999 0.079027 0.484734 0.202763
H30   H     H_    0.739583 0.102988 0.497313 0.121363
H31   H     H_    0.783983 0.982953 0.338741 0.104428
H32   H     H_    0.436815 0.406125 0.839106 0.159263
H33   H     H_    0.583430 0.572702 0.156681 0.182198
H34   H     H_    0.880523 0.698199 0.588664 0.074426
H35   H     H_    0.047054 0.453207 0.268131 0.130765
H36   H     H_    0.911359 0.193966 0.107040 0.145585
H37   H     H_    0.924171 0.333200 0.054899 0.156653
N1    N     N_2   0.444530 0.445420 0.137360 -0.293221
N2    N     N_2   0.555520 0.554510 0.862630 -0.269722
N3    N     N_1   0.808497 0.649344 0.253019 -0.286254
N4    N     N_1   0.692846 0.749907 0.033582 -0.338152
N5    N     N_1   0.187652 0.235523 0.614962 -0.274078
N6    N     N_1   0.284454 0.270060 0.967140 -0.338151
N7    N     N_1   0.874206 0.283127 0.717274 -0.347218
N8    N     N_1   0.922680 0.663798 0.891364 -0.320703
N9    N     N_1   0.173676 0.192069 0.246210 -0.236256
O1    O     O_R   0.511820 0.332340 0.577400 -0.539501
O2    O     O_3   0.102499 0.688813 0.413934 -0.546200
O3    O     O_3   0.338761 0.854721 0.378939 -0.531174
O4    O     O_3   0.426020 0.044621 0.250986 -0.557225
O5    O     O_3   0.128789 0.725849 0.669039 -0.558888
O6    O     O_3   0.918512 0.251942 0.388254 -0.566080
O7    O     O_R   0.474400 0.295500 0.332650 -0.478245
O8    O     O_R   0.336400 0.518400 0.622370 -0.506291
O9    O     O_R   0.298980 0.481560 0.377620 -0.506356
O10   O     O_R   0.525600 0.704500 0.667350 -0.504356
O11   O     O_R   0.488180 0.667660 0.422600 -0.495708
O12   O     O_R   0.701020 0.518440 0.622380 -0.501269
O13   O     O_R   0.663600 0.481600 0.377630 -0.465996
O14   O     O_3   0.830182 0.364682 0.230531 -0.546680

loop_
_geom_bond_atom_site_label_1
_geom_bond_atom_site_label_2
_ccdc_geom_bond_type
C19   H17   S    
C17   O3    S    
C35   C36   D    
C15   H8    S    
C13   H2    S    
C18   H13   S    
C36   O3    S    
C12   C23   S    
C34   H12   S    
C7    C26   S    
Cu1   O1    S    
C19   O4    S    
Cu2   N1    S    
C14   O2    S    
C27   H21   S    
C30   C31   S    
C32   O6    S    
C6    C22   S    
C8    C23   S    
C21   N4    T    
C27   O5    S    
C11   O14   S    
C24   N6    T    
C27   H22   S    
C9    C32   S    
C4    O11   A    
C31   H31   S    
C19   C20   S    
Cu1   O10   S    
C3    O9    A    
C9    C10   S    
C29   N9    T    
C30   H28   S    
C18   H14   S    
C9    C29   S    
C4    C35   S    
C12   C32   S    
C31   H29   S    
C15   H9    S    
C23   H34   S    
Cu1   O12   S    
C13   H3    S    
C33   C34   D    
C14   H6    S    
C7    C12   S    
C1    C33   S    
C22   N5    T    
C5    C12   S    
C17   H10   S    
Cu2   O13   S    
Cu1   N2    S    
C37   N1    D    
C21   N2    S    
Cu2   O9    S    
C2    N2    D    
C33   O4    S    
C4    O10   A    
C17   C18   S    
C3    O8    A    
C20   H20   S    
C30   H27   S    
C28   H25   S    
C5    O12   A    
C16   C23   S    
C6    H1    S    
C8    O5    S    
C9    H35   S    
C20   H19   S    
C2    H32   S    
Cu2   O7    S    
C13   H4    S    
C14   H5    S    
C19   H16   S    
C1    O1    A    
C26   N8    T    
C30   O6    S    
C17   H11   S    
C6    C10   S    
C6    C7    S    
C1    O7    A    
C7    C25   S    
C32   O14   S    
C11   H37   S    
C8    O2    S    
C16   N3    T    
C28   H26   S    
C3    C10   S    
C11   H36   S    
C11   C13   S    
C2    C37   S    
Cu1   Cu2   S    
Cu1   O8    S    
C35   H23   S    
C34   C36   S    
Cu2   O11   S    
C18   H15   S    
C28   H24   S    
C24   N1    S    
C31   H30   S    
C5    O13   A    
C8    C10   S    
C37   H33   S    
C27   C28   S    
C25   N7    T    
C14   C15   S    
C15   H7    S    
C20   H18   S    
