data_mof_unit_22647.cif
_audit_creation_date              2013-03-05T15:46:14-0500
_audit_creation_method            fapswitch 2.2
_symmetry_space_group_name_H-M    P1
_symmetry_Int_Tables_number       1
_space_group_crystal_system       triclinic
_cell_length_a                    10.738099
_cell_length_b                    11.073585
_cell_length_c                    9.801785
_cell_angle_alpha                 110.253554
_cell_angle_beta                  98.593363
_cell_angle_gamma                 91.231691
_cell_volume                      1077.80961493

loop_
_atom_site_label
_atom_site_type_symbol
_atom_site_description
_atom_site_fract_x
_atom_site_fract_y
_atom_site_fract_z
_atom_type_partial_charge
O1    O     O_R   0.511820 0.332340 0.577400 -0.507719
O2    O     O_R   0.474400 0.295500 0.332650 -0.571390
C1    C     C_R   0.486977 0.254778 0.442203 0.948553
O3    O     O_R   0.336400 0.518400 0.622370 -0.587269
O4    O     O_R   0.298980 0.481560 0.377620 -0.605835
C2    C     C_R   0.260142 0.501747 0.501245 0.828938
Cu1   Cu    Cu3+1 0.522160 0.521810 0.644910 1.003033
Cu2   Cu    Cu3+1 0.477840 0.478190 0.355090 0.990051
O5    O     O_R   0.525600 0.704500 0.667350 -0.589014
O6    O     O_R   0.488180 0.667660 0.422600 -0.523706
O7    O     O_R   0.701020 0.518440 0.622380 -0.583971
O8    O     O_R   0.663600 0.481600 0.377630 -0.571419
C3    C     C_R   0.504977 0.745129 0.557755 0.846738
C4    C     C_R   0.740217 0.500769 0.499562 0.844604
C5    C     C_3   0.094122 0.543054 0.661699 -0.352667
H1    H     H_    0.144281 0.639217 0.728589 0.168390
H2    H     H_    0.128992 0.474175 0.715869 0.239311
C6    C     C_3   0.951758 0.552402 0.661174 -0.417984
H3    H     H_    0.919709 0.503135 0.732333 0.229862
H4    H     H_    0.933734 0.655407 0.715434 0.179017
H5    H     H_    0.110641 0.693979 0.490856 0.191374
H6    H     H_    0.900488 0.695684 0.496121 0.193898
C7    C     C_3   0.064790 0.594953 0.428923 -0.493042
C8    C     C_3   0.060885 0.359694 0.411412 0.226845
C9    C     C_3   0.122366 0.499451 0.501359 0.021607
H7    H     H_    0.078583 0.338490 0.296808 0.076948
C10   C     C_3   0.878085 0.498965 0.498864 -0.046626
C11   C     C_3   0.921316 0.596466 0.429523 -0.454621
C12   C     C_3   0.914103 0.355540 0.417785 0.664536
H8    H     H_    0.083212 0.568623 0.313959 0.180902
H9    H     H_    0.868173 0.580954 0.318447 0.179538
C13   C     C_2   0.476380 0.116852 0.412372 -0.386905
C14   C     C_2   0.454109 0.067171 0.514418 0.263562
H10   H     H_    0.520178 0.946819 0.700581 0.176186
C15   C     C_2   0.495498 0.882099 0.586760 -0.375975
C16   C     C_2   0.454246 0.927254 0.478351 0.413760
H11   H     H_    0.488035 0.053799 0.302812 0.181414
H12   H     H_    0.409107 0.425670 0.848049 0.205204
H13   H     H_    0.584611 0.581800 0.154225 0.160602
N1    N     N_2   0.444530 0.445420 0.137360 -0.279597
C17   C     C_2   0.510102 0.511084 0.081530 -0.045437
H14   H     H_    0.629424 0.616639 0.932843 0.192161
N2    N     N_2   0.555520 0.554510 0.862630 -0.293091
C18   C     C_2   0.486529 0.492986 0.919713 0.000809
H15   H     H_    0.374103 0.379170 0.065976 0.220053
O9    O     O_3   0.839189 0.292365 0.274326 -0.580290
C19   C     C_3   0.850236 0.340390 0.160077 -0.297068
H16   H     H_    0.936638 0.401694 0.174421 0.115442
H17   H     H_    0.766359 0.392936 0.141730 0.204982
H18   H     H_    0.848769 0.256700 0.056724 0.215603
O10   O     O_3   0.429174 0.845252 0.331774 -0.560596
C20   C     C_3   0.298248 0.835306 0.280283 -0.300650
H19   H     H_    0.269884 0.923762 0.259070 0.138867
H20   H     H_    0.241547 0.815044 0.357461 0.148887
H21   H     H_    0.276346 0.753292 0.173790 0.190590
N3    N     N_R   0.432767 0.147083 0.658292 0.107977
O11   O     O_R   0.319165 0.149181 0.689608 -0.370038
O12   O     O_R   0.528410 0.194170 0.764624 -0.364354
O13   O     O_3   0.123686 0.271481 0.468933 -0.537609
C21   C     C_3   0.118046 0.148195 0.358632 -0.215412
H22   H     H_    0.183464 0.148575 0.280919 0.125645
H23   H     H_    0.020431 0.114541 0.297423 0.185717
H24   H     H_    0.148803 0.078346 0.412534 0.201578
N4    N     N_R   0.884027 0.275679 0.505281 0.134511
O14   O     O_R   0.785589 0.192531 0.456821 -0.337428
O15   O     O_R   0.954191 0.283253 0.628864 -0.347981

loop_
_geom_bond_atom_site_label_1
_geom_bond_atom_site_label_2
_geom_bond_distance
_ccdc_geom_bond_type
C5    C6    1.533808 S    
N2    C18   1.300826 D    
C8    C9    1.563875 S    
H12   C18   1.084685 S    
Cu1   N2    2.011107 S    
C4    C10   1.482011 S    
C10   C12   1.596256 S    
C1    C13   1.450719 S    
C19   H16   1.099673 S    
C20   H21   1.109410 S    
C12   O9    1.438916 S    
Cu2   O8    1.971900 S    
N4    O14   1.302315 A    
C20   H20   1.114716 S    
C14   N3    1.437230 S    
C7    C9    1.556131 S    
O2    C1    1.291973 A    
C12   N4    1.489123 S    
Cu1   Cu2   2.676894 S    
H13   C17   1.085109 S    
H6    C11   1.113963 S    
C13   H11   1.086823 S    
C20   H19   1.109233 S    
Cu1   O7    1.965464 S    
C8    O13   1.422276 S    
C8    H7    1.111845 S    
C8    C12   1.587001 S    
O4    C2    1.288302 A    
C16   O10   1.389910 S    
C21   H24   1.108270 S    
C21   H23   1.112668 S    
N1    C17   1.301002 D    
C17   C18   1.509206 S    
O8    C4    1.293568 A    
C3    C15   1.452050 S    
C19   H18   1.109032 S    
C6    H4    1.114273 S    
H5    C7    1.113543 S    
N1    H15   1.030691 S    
O7    C4    1.287063 A    
O2    Cu2   1.956704 S    
C5    C9    1.555135 S    
C2    C9    1.479291 S    
H14   N2    1.030652 S    
O3    C2    1.290537 A    
C5    H1    1.113702 S    
C7    H8    1.111557 S    
Cu1   O5    1.956704 S    
O13   C21   1.411147 S    
C14   C16   1.465127 S    
N3    O11   1.300393 A    
Cu2   O6    1.964452 S    
H10   C15   1.085552 S    
C10   C11   1.556917 S    
C5    H2    1.112275 S    
O4    Cu2   1.965464 S    
O9    C19   1.414309 S    
C6    H3    1.108911 S    
O1    Cu1   1.964452 S    
O5    C3    1.293531 A    
Cu2   N1    2.011045 S    
O3    Cu1   1.971900 S    
C7    C11   1.541958 S    
O6    C3    1.287855 A    
C11   H9    1.105059 S    
C19   H17   1.108472 S    
C6    C10   1.568121 S    
O10   C20   1.409327 S    
C13   C14   1.344296 D    
N3    O12   1.301440 A    
C21   H22   1.111616 S    
O1    C1    1.288962 A    
C15   C16   1.346142 D    
N4    O15   1.302389 A    
