data_mof_unit_26470.cif
_audit_creation_date              2012-12-11T14:57:50-0500
_audit_creation_method            fapswitch 2.2
_symmetry_space_group_name_H-M    P1
_symmetry_Int_Tables_number       1
_space_group_crystal_system       triclinic
_cell_length_a                    6.952853
_cell_length_b                    16.681557
_cell_length_c                    17.154219
_cell_angle_alpha                 100.370049
_cell_angle_beta                  91.681729
_cell_angle_gamma                 90.157818
_cell_volume                      1956.214603

loop_
_atom_site_label
_atom_site_type_symbol
_atom_type_description
_atom_site_fract_x
_atom_site_fract_y
_atom_site_fract_z
_atom_type_partial_charge
O1    O     O_R   0.506180 0.438940 0.579430 -0.518615
O2    O     O_R   0.170520 0.406230 0.413590 -0.521394
O3    O     O_R   0.005180 0.561060 0.420570 -0.517014
C1    C     C_R   0.337313 0.383226 0.384992 0.904101
O4    O     O_R   0.176140 0.429310 0.578370 -0.510319
O5    O     O_R   0.010830 0.584300 0.586530 -0.536922
C2    C     C_R   0.347154 0.413190 0.604602 0.929066
O6    O     O_R   0.500520 0.415700 0.413470 -0.547556
O7    O     O_3   0.340830 0.550820 0.502480 -0.383925
V1    V     V_3+5 0.064040 0.490570 0.499540 1.751010
O8    O     O_R   0.681400 0.593770 0.586410 -0.531739
C3    C     C_R   0.852280 0.616191 0.615030 0.932430
O9    O     O_R   0.675790 0.570690 0.421630 -0.522761
C4    C     C_R   0.842344 0.586152 0.394752 0.967485
V2    V     V_3+5 0.564650 0.509430 0.500460 1.728309
O10   O     O_3   0.837730 0.449180 0.497520 -0.377702
C5    C     C_R   0.919944 0.862554 0.167786 -0.259464
C6    C     C_R   0.844543 0.637363 0.332040 -0.377016
C7    C     C_R   0.733335 0.661347 0.201897 0.673839
C8    C     C_R   0.737680 0.612942 0.260833 0.503742
C9    C     C_R   0.945448 0.712201 0.344141 0.674969
C10   C     C_R   0.935535 0.763241 0.286278 -0.289722
C11   C     C_R   0.830945 0.736811 0.213903 -0.242722
C12   C     C_R   0.825394 0.786418 0.155009 -0.090403
C13   C     C_R   0.012667 0.890260 0.241481 0.532375
C14   C     C_R   0.023967 0.840939 0.299543 0.726436
H1    H     H_    0.749299 0.765739 0.098918 0.225649
H2    H     H_    0.054618 0.626841 0.970954 0.242155
C15   C     C_R   0.802907 0.914252 0.719766 0.071785
C16   C     C_R   0.734153 0.924960 0.644184 0.226452
C17   C     C_R   0.718877 0.858746 0.582382 0.249352
C18   C     C_R   0.769566 0.781648 0.594727 0.499772
C19   C     C_R   0.825622 0.766355 0.671279 -0.137321
C20   C     C_R   0.842182 0.833725 0.736255 -0.102362
C21   C     C_R   0.868345 0.685558 0.682894 -0.057975
C22   C     C_R   0.924697 0.670505 0.759335 -0.232734
C23   C     C_R   0.934918 0.736415 0.825196 -0.113029
C24   C     C_R   0.897666 0.817838 0.813690 -0.046212
C25   C     C_R   0.967446 0.590146 0.772748 0.507798
C26   C     C_R   0.015968 0.575750 0.848156 0.636648
C27   C     C_R   0.020452 0.639072 0.912221 -0.286412
C28   C     C_R   0.979559 0.718045 0.901986 0.481036
C29   C     C_R   0.392073 0.215733 0.409736 0.467632
C30   C     C_R   0.417180 0.137304 0.423987 0.667222
C31   C     C_R   0.441217 0.073506 0.361883 -0.179308
C32   C     C_R   0.443734 0.086366 0.283813 0.203864
C33   C     C_R   0.416949 0.166620 0.265803 -0.056512
C34   C     C_R   0.386117 0.232381 0.331285 -0.180216
C35   C     C_R   0.426437 0.184539 0.187049 -0.019745
C36   C     C_R   0.407373 0.267251 0.176553 -0.114624
C37   C     C_R   0.337486 0.327106 0.238761 -0.132935
C38   C     C_R   0.344879 0.312455 0.317505 -0.044969
C39   C     C_R   0.460598 0.293769 0.106040 0.118715
C40   C     C_R   0.387676 0.366960 0.087828 0.231985
C41   C     C_R   0.283333 0.418942 0.144120 0.269491
C42   C     C_R   0.267891 0.401596 0.220241 0.528067
H3    H     H_    0.460847 0.012851 0.375013 0.250502
C43   C     C_R   0.403019 0.132421 0.828782 -0.267613
C44   C     C_R   0.369013 0.360320 0.665662 -0.330458
C45   C     C_R   0.563527 0.329044 0.776676 0.742270
C46   C     C_R   0.516576 0.380405 0.723711 0.509238
C47   C     C_R   0.261828 0.287197 0.662844 0.368747
C48   C     C_R   0.314779 0.232500 0.714952 -0.219099
C49   C     C_R   0.464029 0.255137 0.773566 -0.341031
C50   C     C_R   0.509048 0.204034 0.829002 0.764408
C51   C     C_R   0.275079 0.105801 0.765352 -0.265224
C52   C     C_R   0.228690 0.154575 0.709559 0.854129
H4    H     H_    0.214722 0.045260 0.757980 0.197226
O11   O     O_R   0.265840 0.084300 0.086750 -0.533521
O12   O     O_R   0.589750 0.070740 0.921690 -0.489901
O13   O     O_R   0.755020 0.915730 0.913400 -0.542711
C53   C     C_R   0.419436 0.084988 0.894138 0.807713
O14   O     O_R   0.595830 0.093740 0.086480 -0.517712
O15   O     O_R   0.761150 0.938890 0.079360 -0.533644
C54   C     C_R   0.429403 0.117879 0.114878 0.777589
O16   O     O_R   0.259710 0.061140 0.920790 -0.544582
O17   O     O_3   0.425260 0.949200 0.997610 -0.374505
V3    V     V_3+5 0.702060 0.009430 0.000450 1.680460
O18   O     O_R   0.090530 0.929220 0.078150 -0.505605
C55   C     C_R   0.923619 0.913319 0.104738 0.915724
O19   O     O_R   0.084440 0.906220 0.913360 -0.530219
C56   C     C_R   0.913492 0.884827 0.883702 0.856765
V4    V     V_3+5 0.201450 0.990520 0.999290 1.649103
O20   O     O_3   0.928380 0.050800 0.002390 -0.352656
Br1   Br    Br    0.634047 0.871503 0.477299 -0.237380
F1    F     F_    0.764472 0.722515 0.529332 -0.671231
F2    F     F_    0.962041 0.523676 0.714159 -0.621120
F3    F     F_    0.055912 0.498984 0.859383 -0.538055
F4    F     F_    0.980086 0.774795 0.969198 -0.711174
Br2   Br    Br    0.175897 0.518801 0.121750 -0.251933
F5    F     F_    0.372640 0.274649 0.474278 -0.691411
F6    F     F_    0.417405 0.122943 0.499328 -0.549589
Br3   Br    Br    0.491368 0.987319 0.211224 -0.455904
F7    F     F_    0.084947 0.967133 0.258653 -0.641694
Br4   Br    Br    0.692300 0.253335 0.055022 -0.335314
Br5   Br    Br    0.438257 0.398039 0.987604 -0.178190
F8    F     F_    0.176629 0.456742 0.274371 -0.667082
F9    F     F_    0.655038 0.223782 0.883004 -0.562556
F10   F     F_    0.708962 0.352202 0.830728 -0.500049
F11   F     F_    0.104955 0.122547 0.649489 -0.555239
F12   F     F_    0.615181 0.451753 0.730142 -0.598677
Br6   Br    Br    0.040892 0.265228 0.590519 -0.246774
F13   F     F_    0.631341 0.634684 0.133336 -0.591542
F14   F     F_    0.118061 0.870531 0.369326 -0.543234
F15   F     F_    0.639598 0.541028 0.247771 -0.626234
F16   F     F_    0.047975 0.735877 0.413163 -0.568265
Br7   Br    Br    0.852055 0.015252 0.791962 -0.477349
Br8   Br    Br    0.663701 0.031266 0.622727 -0.225154

loop_
_geom_bond_atom_site_label_1
_geom_bond_atom_site_label_2
_ccdc_geom_bond_type
C51   H4    S    
C41   C42   A    
C17   Br1   S    
O12   V3    S    
C6    C9    A    
C27   C28   A    
C4    C6    S    
O2    C1    A    
C7    C8    A    
C12   H1    S    
C25   F2    S    
C53   O16   A    
C45   F10   S    
O19   C56   A    
C33   C35   A    
O17   V3    S    
C31   H3    S    
C47   C48   A    
C1    C38   S    
C22   C23   A    
C50   F9    S    
C41   Br2   S    
O1    C2    A    
O5    C3    A    
C16   C17   A    
C39   Br4   S    
O17   V4    S    
V2    O10   S    
H2    C27   S    
C37   C42   A    
C23   C28   A    
C14   F14   S    
C32   C33   A    
C7    F13   S    
C43   C51   A    
C33   C34   A    
C11   C12   A    
C35   C54   S    
O1    V2    S    
C15   C16   A    
C29   C34   A    
C40   Br5   S    
C9    F16   S    
C30   F6    S    
C1    O6    A    
O13   C56   A    
C51   C52   A    
C13   F7    S    
O15   C55   A    
O9    C4    A    
C24   C56   S    
O14   C54   A    
O8    V2    S    
C42   F8    S    
O16   V4    S    
C2    C44   S    
O19   V4    S    
C36   C37   A    
C22   C25   A    
C48   C52   A    
C44   C46   A    
C36   C39   A    
C37   C38   A    
C5    C12   A    
C25   C26   A    
O4    C2    A    
C7    C11   A    
C13   C14   A    
C31   C32   A    
C15   C20   A    
C5    C55   S    
C29   F5    S    
C48   C49   A    
C45   C46   A    
C21   C22   A    
C46   F12   S    
C29   C30   A    
C23   C24   A    
O11   V4    S    
C43   C50   A    
V4    O20   S    
O14   V3    S    
C18   F1    S    
C19   C20   A    
C3    C21   S    
O3    C4    A    
C52   F11   S    
C26   C27   A    
O6    V2    S    
O9    V2    S    
C10   C14   A    
O2    V1    S    
C30   C31   A    
C8    F15   S    
O7    V1    S    
C40   C41   A    
C44   C47   A    
C16   Br8   S    
C20   C24   A    
C17   C18   A    
O5    V1    S    
O8    C3    A    
C39   C40   A    
C45   C49   A    
C28   F4    S    
C5    C13   A    
C49   C50   A    
C26   F3    S    
O7    V2    S    
O4    V1    S    
O3    V1    S    
V1    O10   S    
C18   C19   A    
O18   V4    S    
C43   C53   S    
C32   Br3   S    
C19   C21   A    
O11   C54   A    
C6    C8    A    
O18   C55   A    
V3    O20   S    
C34   C38   A    
C35   C36   A    
O15   V3    S    
C10   C11   A    
C15   Br7   S    
O12   C53   A    
C9    C10   A    
O13   V3    S    
C47   Br6   S    
