data_mof_unit_54753.cif
_audit_creation_date              2012-12-10T16:57:47-0500
_audit_creation_method            fapswitch 2.2
_symmetry_space_group_name_H-M    P1
_symmetry_Int_Tables_number       1
_space_group_crystal_system       triclinic
_cell_length_a                    7.752547
_cell_length_b                    8.578748
_cell_length_c                    19.096625
_cell_angle_alpha                 91.047213
_cell_angle_beta                  85.404199
_cell_angle_gamma                 93.714755
_cell_volume                      1263.20930819

loop_
_atom_site_label
_atom_site_type_symbol
_atom_type_description
_atom_site_fract_x
_atom_site_fract_y
_atom_site_fract_z
_atom_type_partial_charge
C1    C     C_R   0.545913 0.794850 0.498192 0.961055
C2    C     C_R   0.454086 0.205149 0.501820 0.956051
C3    C     C_2   0.570122 0.958298 0.497160 -0.353330
C4    C     C_2   0.429875 0.041710 0.502882 -0.351473
C5    C     C_R   0.500632 0.496098 0.634630 0.936597
C6    C     C_R   0.498120 0.497993 0.365316 0.931430
C7    C     C_R   0.337309 0.424031 0.746328 -0.283847
C8    C     C_R   0.649753 0.495371 0.246824 -0.286193
C9    C     C_R   0.328585 0.390066 0.817242 0.435259
C10   C     C_R   0.650816 0.471801 0.174681 0.435641
C11   C     C_R   0.481083 0.402985 0.852690 -0.117979
C12   C     C_R   0.492979 0.434547 0.144547 -0.116681
C13   C     C_R   0.641059 0.443658 0.815913 -0.244131
C14   C     C_R   0.336811 0.424829 0.187012 -0.249266
C15   C     C_R   0.649407 0.476596 0.744803 0.649888
C16   C     C_R   0.336267 0.449216 0.258912 0.644809
C17   C     C_R   0.496633 0.469018 0.709837 -0.255431
C18   C     C_R   0.493502 0.483563 0.289347 -0.255483
C19   C     C_R   0.484957 0.413893 0.069121 0.354208
C20   C     C_R   0.474682 0.392526 0.928663 0.361626
H1    H     H_    0.218942 0.412588 0.719575 0.240214
H2    H     H_    0.771756 0.523657 0.269579 0.239433
H3    H     H_    0.759067 0.455796 0.842856 0.235643
H4    H     H_    0.214559 0.396637 0.164462 0.233121
H5    H     H_    0.702529 0.009464 0.491700 0.185903
H6    H     H_    0.297468 0.990549 0.508346 0.185799
H7    H     H_    0.014008 0.382082 0.447429 0.227313
H8    H     H_    0.985979 0.617858 0.552598 0.220114
N1    N     N_R   0.607892 0.335812 0.960003 -0.115412
N2    N     N_R   0.350385 0.467859 0.037832 -0.114067
N3    N     N_R   0.612229 0.345347 0.029306 -0.074963
N4    N     N_R   0.345913 0.458151 0.968677 -0.075028
N5    N     N_2   0.950330 0.457950 0.481240 -0.155910
N6    N     N_2   0.049670 0.542050 0.518760 -0.157145
O1    O     O_R   0.389250 0.738570 0.504600 -0.616112
O2    O     O_R   0.610750 0.261430 0.495400 -0.617232
O3    O     O_R   0.678400 0.711620 0.492580 -0.628918
O4    O     O_R   0.321600 0.288380 0.507420 -0.629573
O5    O     O_R   0.355380 0.513500 0.607880 -0.617280
O6    O     O_R   0.644620 0.486500 0.392120 -0.615308
O7    O     O_R   0.644530 0.486550 0.595850 -0.569957
O8    O     O_R   0.355470 0.513450 0.404150 -0.565790
Zn1   Zn    Zn3+2 0.306930 0.517990 0.508030 1.004448
Zn2   Zn    Zn3+2 0.693070 0.482010 0.491970 1.004428
Cl1   Cl    Cl    0.125100 0.326829 0.858612 -0.537441
Cl2   Cl    Cl    0.851557 0.499155 0.124688 -0.540190
F1    F     F_    0.805697 0.519213 0.711015 -0.645303
F2    F     F_    0.182528 0.434857 0.298379 -0.653535

loop_
_geom_bond_atom_site_label_1
_geom_bond_atom_site_label_2
_ccdc_geom_bond_type
C10   Cl2   S    
C4    H6    S    
C9    Cl1   S    
C15   F1    S    
C11   C13   A    
C2    O4    A    
C8    H2    S    
C1    O3    A    
C19   N3    A    
C16   F2    S    
O3    Zn2   S    
C5    O5    A    
N5    N6    D    
H8    N6    S    
O4    Zn1   S    
N1    N3    A    
C7    H1    S    
H7    N5    S    
N2    N4    A    
C9    C11   A    
C13   H3    S    
C10   C12   A    
C2    C4    S    
C12   C19   S    
C8    C10   A    
C12   C14   A    
C14   C16   A    
C20   N1    A    
C13   C15   A    
C6    O8    A    
C6    C18   S    
O7    Zn2   S    
C6    O6    A    
C11   C20   S    
O2    Zn2   S    
C5    C17   S    
O8    Zn1   S    
N5    Zn2   S    
C14   H4    S    
C3    C4    D    
O6    Zn2   S    
C3    H5    S    
O1    Zn1   S    
C1    O1    A    
C16   C18   A    
C20   N4    A    
C2    O2    A    
C7    C9    A    
C5    O7    A    
O5    Zn1   S    
C1    C3    S    
C15   C17   A    
C19   N2    A    
C8    C18   A    
N6    Zn1   S    
C7    C17   A    
