data_mof_unit_24331.cif
_audit_creation_date              2012-10-26T20:50:47-0400
_audit_creation_method            fapswitch 2.2
_symmetry_space_group_name_H-M    P1
_symmetry_Int_Tables_number       1
_space_group_crystal_system       triclinic
_cell_length_a                    11.050008
_cell_length_b                    10.859465
_cell_length_c                    9.542797
_cell_angle_alpha                 89.826684
_cell_angle_beta                  102.338339
_cell_angle_gamma                 90.496857
_cell_volume                      1118.61702159

loop_
_atom_site_label
_atom_site_type_symbol
_atom_type_description
_atom_site_fract_x
_atom_site_fract_y
_atom_site_fract_z
_atom_type_partial_charge
Br1   Br    Br    0.390682 0.864050 0.177635 -0.551599
C1    C     C_R   0.497318 0.262936 0.499502 0.543943
C2    C     C_R   0.430021 0.418017 0.057399 -0.008498
C3    C     C_R   0.430021 0.418002 0.908488 -0.019082
C4    C     C_R   0.262886 0.498516 0.442203 0.564143
C5    C     C_R   0.561934 0.589872 0.941082 0.174897
C6    C     C_3   0.697596 0.615999 0.968857 -0.285389
C7    C     C_3   0.697141 0.616957 0.127399 -0.275769
C8    C     C_R   0.496081 0.737423 0.498239 0.574541
C9    C     C_R   0.737113 0.498642 0.558102 0.552240
C10   C     C_2   0.128218 0.492675 0.410467 -0.121452
C11   C     C_2   0.067808 0.489672 0.517664 -0.158298
C12   C     C_R   0.488677 0.130861 0.496823 -0.031801
C13   C     C_2   0.871884 0.497425 0.591645 -0.133973
C14   C     C_2   0.933522 0.483030 0.487086 -0.160269
C15   C     C_R   0.516964 0.061887 0.621423 0.019366
C16   C     C_3   0.697444 0.132885 0.824433 -0.247029
C17   C     C_3   0.786710 0.112802 0.722851 -0.280049
C18   C     C_3   0.911533 0.175320 0.780770 -0.449803
C19   C     C_R   0.451769 0.067166 0.366218 -0.130396
C20   C     C_R   0.449514 0.937821 0.363140 0.133826
C21   C     C_R   0.487363 0.870315 0.493474 0.015795
C22   C     C_R   0.517107 0.937806 0.619736 -0.029439
C23   C     C_3   0.570960 0.927215 0.776601 -0.238435
C24   C     C_3   0.569197 0.069419 0.779146 -0.112917
C25   C     C_R   0.561660 0.590103 0.088487 0.215034
Cu1   Cu    Cu3+1 0.499990 0.499980 0.640670 0.934833
Cu2   Cu    Cu3+1 0.500010 0.500020 0.359330 0.977943
H1    H     H_    0.884882 0.467869 0.377224 0.144840
H2    H     H_    0.078197 0.489789 0.299227 0.101384
H3    H     H_    0.424804 0.117396 0.266281 0.155725
H4    H     H_    0.505319 0.883544 0.835652 0.166619
H5    H     H_    0.664896 0.886675 0.798168 0.126305
H6    H     H_    0.500479 0.105723 0.838137 0.138090
H7    H     H_    0.899105 0.275703 0.793939 0.150987
H8    H     H_    0.956311 0.134866 0.885934 0.158458
H9    H     H_    0.973264 0.161861 0.704371 0.152095
H10   H     H_    0.802197 0.013019 0.709841 0.164014
H11   H     H_    0.747177 0.152512 0.615654 0.172366
H12   H     H_    0.375260 0.350127 0.099929 0.114240
H13   H     H_    0.682320 0.233430 0.832790 0.170754
H14   H     H_    0.741316 0.099747 0.933663 0.143976
H15   H     H_    0.375288 0.350097 0.839301 0.115293
H16   H     H_    0.751483 0.538383 0.938107 0.146266
H17   H     H_    0.719264 0.707351 0.927846 0.122570
H18   H     H_    0.750631 0.539758 0.185384 0.134650
H19   H     H_    0.717708 0.709031 0.177880 0.146515
H20   H     H_    0.117344 0.493994 0.629086 0.159832
H21   H     H_    0.921033 0.510095 0.702243 0.095076
N1    N     N_R   0.500780 0.500930 0.148120 -0.227477
N2    N     N_R   0.500790 0.500890 0.852210 -0.239188
O1    O     O_R   0.500000 0.319640 0.618810 -0.510179
O2    O     O_R   0.500010 0.319680 0.381230 -0.519392
O3    O     O_R   0.320680 0.500000 0.575130 -0.501730
O4    O     O_R   0.320690 0.500040 0.337550 -0.486359
O5    O     O_R   0.499990 0.680320 0.618770 -0.503010
O6    O     O_R   0.500000 0.680360 0.381190 -0.448238
O7    O     O_R   0.679310 0.499960 0.662450 -0.511720
O8    O     O_R   0.679320 0.500000 0.424870 -0.505123

loop_
_geom_bond_atom_site_label_1
_geom_bond_atom_site_label_2
_ccdc_geom_bond_type
C10   C11   D    
C23   H4    S    
Br1   C20   S    
C5    C6    S    
C3    H15   S    
C5    N2    A    
C7    C25   S    
C23   H5    S    
C12   C19   A    
C11   C14   S    
C11   H20   S    
C24   H6    S    
C22   C23   S    
C16   C24   S    
Cu1   O5    S    
C16   C17   S    
C17   H10   S    
C7    H19   S    
C6    C7    S    
C8    O5    A    
C18   H7    S    
Cu2   O6    S    
C23   C24   S    
Cu2   O2    S    
C5    C25   A    
C1    O1    A    
C4    O4    A    
C6    H17   S    
C9    O7    A    
Cu2   O4    S    
Cu1   N2    S    
C2    H12   S    
C14   H1    S    
C15   C22   A    
C8    O6    A    
C18   H8    S    
C25   N1    A    
C4    C10   S    
Cu1   O1    S    
C19   H3    S    
C16   H13   S    
C8    C21   S    
C12   C15   A    
C13   H21   S    
C3    N2    A    
C2    C3    A    
C4    O3    A    
C16   H14   S    
C19   C20   A    
C2    N1    A    
C17   C18   S    
C9    C13   S    
Cu2   O8    S    
C15   C24   S    
C1    C12   S    
C17   H11   S    
Cu2   N1    S    
C13   C14   D    
C18   H9    S    
C7    H18   S    
C6    H16   S    
C20   C21   A    
C9    O8    A    
C1    O2    A    
C21   C22   A    
Cu1   O3    S    
C10   H2    S    
Cu1   Cu2   S    
Cu1   O7    S    
