data_mof_unit_17096.cif
_audit_creation_date              2012-12-10T17:24:12-0500
_audit_creation_method            fapswitch 2.2
_symmetry_space_group_name_H-M    P1
_symmetry_Int_Tables_number       1
_space_group_crystal_system       triclinic
_cell_length_a                    19.326785
_cell_length_b                    10.773408
_cell_length_c                    9.602506
_cell_angle_alpha                 90.068465
_cell_angle_beta                  89.843909
_cell_angle_gamma                 92.476499
_cell_volume                      1997.51310756

loop_
_atom_site_label
_atom_site_type_symbol
_atom_type_description
_atom_site_fract_x
_atom_site_fract_y
_atom_site_fract_z
_atom_type_partial_charge
C1    C     C_R   0.497750 0.262593 0.499948 0.794769
C2    C     C_R   0.291517 0.500327 0.500953 -0.033384
C3    C     C_R   0.930418 0.523483 0.494815 0.449368
C4    C     C_R   0.070107 0.509655 0.500278 0.414925
C5    C     C_R   0.818363 0.505575 0.618656 -0.158705
C6    C     C_R   0.746304 0.497229 0.621213 -0.172281
C7    C     C_R   0.708709 0.510019 0.498010 -0.062966
C8    C     C_R   0.744240 0.534972 0.372812 -0.228889
C9    C     C_R   0.816662 0.547221 0.369044 -0.002965
C10   C     C_R   0.854372 0.528196 0.493322 -0.019141
C11   C     C_R   0.386498 0.121115 0.643807 -0.248519
C12   C     C_R   0.367533 0.499596 0.500270 0.768869
C13   C     C_R   0.334207 0.052878 0.715559 0.035797
C14   C     C_R   0.335090 0.923074 0.715641 -0.174724
C15   C     C_R   0.387029 0.862296 0.645444 -0.203061
C16   C     C_R   0.440577 0.930011 0.574813 0.110368
C17   C     C_R   0.440379 0.061117 0.574264 0.075293
C18   C     C_R   0.492935 0.128410 0.499653 -0.090357
C19   C     C_R   0.542183 0.067215 0.421998 -0.186448
C20   C     C_R   0.542261 0.939203 0.422221 -0.204005
C21   C     C_R   0.493129 0.870574 0.500217 -0.081489
C22   C     C_R   0.592323 0.664464 0.143665 -0.152647
C23   C     C_R   0.497863 0.737109 0.500103 0.766440
C24   C     C_R   0.637734 0.744358 0.071436 -0.193202
C25   C     C_R   0.637706 0.744507 0.927961 -0.182184
C26   C     C_R   0.592285 0.664731 0.855833 -0.142292
C27   C     C_R   0.545338 0.580947 0.925082 0.207388
C28   C     C_R   0.545348 0.580849 0.074629 0.218123
C29   C     C_R   0.456792 0.423130 0.073998 -0.051971
C30   C     C_R   0.456812 0.423144 0.926130 -0.050192
C31   C     C_R   0.632523 0.502036 0.499673 0.777934
C32   C     C_R   0.255659 0.527306 0.623924 -0.139072
C33   C     C_R   0.183620 0.530150 0.623919 -0.127242
C34   C     C_R   0.146171 0.504948 0.501230 0.048336
C35   C     C_R   0.182112 0.476631 0.378676 -0.138185
C36   C     C_R   0.254146 0.474905 0.378400 -0.173929
Cu1   Cu    Cu3+1 0.500000 0.499990 0.640660 0.936901
Cu2   Cu    Cu3+1 0.500000 0.500010 0.359340 0.943254
H1    H     H_    0.283264 0.547587 0.719867 0.157038
H2    H     H_    0.383776 0.221055 0.640500 0.170876
H3    H     H_    0.294980 0.867819 0.768624 0.183794
H4    H     H_    0.383755 0.761929 0.645301 0.158527
H5    H     H_    0.581899 0.893422 0.363745 0.138401
H6    H     H_    0.421360 0.360084 0.129231 0.143297
H7    H     H_    0.596565 0.672512 0.253364 0.188480
H8    H     H_    0.673150 0.806818 0.127563 0.154360
H9    H     H_    0.673083 0.807149 0.871775 0.157953
H10   H     H_    0.596429 0.673170 0.746087 0.196884
H11   H     H_    0.157331 0.551868 0.720068 0.159823
H12   H     H_    0.421403 0.360094 0.871053 0.158578
H13   H     H_    0.154700 0.457147 0.282368 0.162111
H14   H     H_    0.280516 0.453321 0.282255 0.155600
H15   H     H_    0.846137 0.491219 0.714768 0.163785
H16   H     H_    0.720112 0.478998 0.719421 0.169499
H17   H     H_    0.715318 0.549161 0.278091 0.186765
H18   H     H_    0.581775 0.119073 0.363423 0.156228
N1    N     N_R   0.033022 0.464475 0.390170 -0.219151
N2    N     N_R   0.964476 0.470566 0.387889 -0.192931
N3    N     N_R   0.967284 0.566878 0.606058 -0.223371
N4    N     N_R   0.035866 0.560352 0.608571 -0.226132
N5    N     N_R   0.500660 0.501210 0.147910 -0.199652
N6    N     N_R   0.500680 0.501290 0.852040 -0.202603
O1    O     O_R   0.499990 0.319640 0.618810 -0.574802
O2    O     O_R   0.500000 0.319660 0.381240 -0.571493
O3    O     O_R   0.400140 0.499970 0.618820 -0.585701
O4    O     O_R   0.400150 0.500000 0.381250 -0.577258
O5    O     O_R   0.500000 0.680340 0.618760 -0.602193
O6    O     O_R   0.500010 0.680360 0.381190 -0.587172
O7    O     O_R   0.599850 0.500000 0.618750 -0.594844
O8    O     O_R   0.599860 0.500030 0.381180 -0.595899
C37   C     C_2   0.278121 0.116845 0.788877 0.835072
O9    O     O_2   0.277095 0.230327 0.788379 -0.618689
O10   O     O_R   0.226141 0.047385 0.859108 -0.758344
H19   H     H_    0.190948 0.101477 0.904956 0.345885
C38   C     C_2   0.849955 0.586457 0.235547 0.850850
O11   O     O_2   0.902649 0.653518 0.235428 -0.566012
O12   O     O_R   0.819068 0.551004 0.109200 -0.766926
H20   H     H_    0.845771 0.584859 0.025459 0.339450

loop_
_geom_bond_atom_site_label_1
_geom_bond_atom_site_label_2
_ccdc_geom_bond_type
C19   H18   S    
Cu2   O8    S    
C16   C21   A    
Cu1   O7    S    
O10   H19   S    
C35   C36   A    
C2    C12   S    
Cu1   N6    S    
C7    C8    A    
O12   H20   S    
C1    C18   S    
Cu1   Cu2   S    
C5    H15   S    
C18   C19   A    
C5    C6    A    
C33   H11   S    
C15   C16   A    
C2    C32   A    
C34   C35   A    
C32   H1    S    
C23   O5    A    
C31   O8    A    
C19   C20   A    
C8    C9    A    
Cu1   O3    S    
C4    N1    A    
C9    C10   A    
C25   H9    S    
C36   H14   S    
C26   H10   S    
Cu2   N5    S    
C28   N5    A    
C30   H12   S    
N3    N4    A    
C29   N5    A    
C22   C28   A    
C13   C14   A    
C6    H16   S    
C1    O1    A    
C8    H17   S    
C5    C10   A    
Cu1   O1    S    
C33   C34   A    
Cu2   O2    S    
C4    C34   S    
C7    C31   S    
Cu2   O4    S    
C24   C25   A    
C37   O10   S    
C16   C17   A    
C13   C37   S    
C25   C26   A    
C12   O4    A    
C23   O6    A    
C38   O11   D    
C29   C30   A    
C27   N6    A    
C4    N4    A    
C17   C18   A    
C26   C27   A    
C38   O12   S    
C14   H3    S    
Cu2   O6    S    
C30   N6    A    
C29   H6    S    
C35   H13   S    
C22   C24   A    
C1    O2    A    
C20   H5    S    
C2    C36   A    
C11   C17   A    
C15   H4    S    
C6    C7    A    
C12   O3    A    
C24   H8    S    
C32   C33   A    
C21   C23   S    
C37   O9    D    
C3    C10   S    
C11   C13   A    
N1    N2    A    
Cu1   O5    S    
C11   H2    S    
C3    N2    A    
C31   O7    A    
C22   H7    S    
C20   C21   A    
C27   C28   A    
C14   C15   A    
C9    C38   S    
C3    N3    A    
