data_mof_unit_6587.cif
_audit_creation_date              2012-12-10T17:19:55-0500
_audit_creation_method            fapswitch 2.2
_symmetry_space_group_name_H-M    P1
_symmetry_Int_Tables_number       1
_space_group_crystal_system       triclinic
_cell_length_a                    9.609186
_cell_length_b                    10.72149
_cell_length_c                    15.733517
_cell_angle_alpha                 85.056955
_cell_angle_beta                  72.667491
_cell_angle_gamma                 89.699593
_cell_volume                      1541.22800509

loop_
_atom_site_label
_atom_site_type_symbol
_atom_type_description
_atom_site_fract_x
_atom_site_fract_y
_atom_site_fract_z
_atom_type_partial_charge
C1    C     C_R   0.994729 0.261832 0.511423 0.809957
C2    C     C_R   0.670144 0.447865 0.909319 0.095452
C3    C     C_R   0.774341 0.457331 0.955999 0.130445
C4    C     C_R   0.520779 0.425340 0.958482 0.056736
C5    C     C_R   0.476120 0.435852 0.052136 0.062492
C6    C     C_R   0.583263 0.443082 0.096231 -0.139292
C7    C     C_R   0.729915 0.447805 0.048524 -0.179607
C8    C     C_R   0.416002 0.387423 0.918563 -0.221381
C9    C     C_R   0.271928 0.361844 0.969692 -0.217584
C10   C     C_R   0.225629 0.383332 0.060107 0.121738
C11   C     C_R   0.325964 0.428952 0.100215 0.095488
C12   C     C_R   0.916328 0.496468 0.671728 0.754886
C13   C     C_R   0.081873 0.354608 0.112118 -0.242097
C14   C     C_R   0.034528 0.377164 0.202751 0.054314
C15   C     C_R   0.273113 0.467116 0.186994 -0.254769
C16   C     C_R   0.158597 0.114291 0.620535 -0.316665
C17   C     C_R   0.249906 0.045220 0.661168 -0.030009
C18   C     C_R   0.253914 0.914348 0.659428 0.448282
C19   C     C_R   0.166809 0.855349 0.616094 -0.326563
C20   C     C_R   0.076770 0.924364 0.573523 0.058653
C21   C     C_R   0.075137 0.056399 0.574115 0.084180
C22   C     C_R   0.983159 0.125490 0.532061 -0.092585
C23   C     C_R   0.993427 0.734515 0.513201 0.813280
C24   C     C_R   0.871928 0.062563 0.511510 -0.170679
C25   C     C_R   0.868247 0.933914 0.515749 -0.179067
C26   C     C_R   0.981287 0.865461 0.534550 -0.107169
C27   C     C_R   0.708313 0.638107 0.351830 0.377155
C28   C     C_R   0.661120 0.660215 0.273808 -0.216504
C29   C     C_R   0.514488 0.684334 0.286286 0.295544
C30   C     C_R   0.415194 0.647542 0.368170 -0.277061
C31   C     C_R   0.456217 0.571360 0.433450 0.111713
C32   C     C_R   0.607624 0.569418 0.429958 0.124565
C33   C     C_R   0.542499 0.434914 0.565064 -0.037676
C34   C     C_R   0.082413 0.485106 0.330251 0.865230
C35   C     C_R   0.395107 0.434541 0.564658 -0.059000
C36   C     C_R   0.867788 0.484292 0.769568 -0.030266
C37   C     C_R   0.127863 0.445282 0.238235 -0.131369
C38   C     C_R   0.922612 0.476325 0.909938 -0.204756
C39   C     C_R   0.969250 0.488721 0.817281 -0.184278
C40   C     C_R   0.719188 0.463849 0.815511 -0.248255
Cu1   Cu    Cu3+1 0.140660 0.499990 0.500010 0.931496
Cu2   Cu    Cu3+1 0.859340 0.500010 0.499990 1.012342
H1    H     H_    0.810089 0.446232 0.083619 0.224567
H2    H     H_    0.009429 0.307595 0.083291 0.153734
H3    H     H_    0.791107 0.112562 0.487263 0.201420
H4    H     H_    0.149129 0.213004 0.629024 0.189369
H5    H     H_    0.165947 0.754828 0.620089 0.176187
H6    H     H_    0.784311 0.889481 0.494872 0.200166
H7    H     H_    0.571618 0.381229 0.618460 0.136589
H8    H     H_    0.344181 0.515891 0.215235 0.199383
H9    H     H_    0.305796 0.673487 0.374992 0.228490
H10   H     H_    0.314318 0.381858 0.618005 0.163063
H11   H     H_    0.196221 0.326276 0.938029 0.172651
H12   H     H_    0.002248 0.483450 0.945725 0.144516
H13   H     H_    0.084531 0.502664 0.783140 0.151062
H14   H     H_    0.642937 0.463849 0.777194 0.145766
H15   H     H_    0.556187 0.437689 0.168220 0.165224
H16   H     H_    0.444494 0.369220 0.849123 0.164166
N1    N     N_R   0.648320 0.501210 0.499140 -0.176165
N2    N     N_R   0.352470 0.501290 0.499110 -0.179715
O1    O     O_R   0.118810 0.319640 0.500010 -0.587561
O2    O     O_R   0.881240 0.319660 0.500000 -0.550714
O3    O     O_R   0.055570 0.499980 0.629840 -0.610769
O4    O     O_R   0.818000 0.500010 0.629830 -0.598543
O5    O     O_R   0.118760 0.680340 0.500000 -0.618835
O6    O     O_R   0.881190 0.680360 0.499990 -0.503805
O7    O     O_R   0.182000 0.499990 0.370170 -0.599136
O8    O     O_R   0.944430 0.500020 0.370160 -0.512386
C41   C     C_2   0.335399 0.110569 0.709424 0.844796
O9    O     O_2   0.290320 0.207040 0.743408 -0.666005
O10   O     O_R   0.467457 0.062260 0.716356 -0.706577
H17   H     H_    0.515183 0.115714 0.750430 0.321149
O11   O     O_3   0.346880 0.847210 0.698574 -0.536756
C42   C     C_3   0.276396 0.740516 0.753394 0.049205
H18   H     H_    0.283326 0.660163 0.712240 0.147944
H19   H     H_    0.159955 0.757689 0.789523 0.134250
C43   C     C_3   0.353969 0.704999 0.823042 -0.723683
H20   H     H_    0.353067 0.784492 0.864025 0.258557
H21   H     H_    0.297199 0.623089 0.867650 0.199651
H22   H     H_    0.468629 0.680393 0.789833 0.250727
O12   O     O_3   0.828263 0.705083 0.360552 -0.536453
C44   C     C_3   0.904084 0.789036 0.285731 0.071256
H23   H     H_    0.828474 0.846806 0.258064 0.136549
H24   H     H_    0.979582 0.735727 0.234852 0.198611
C45   C     C_3   0.002826 0.881935 0.308853 -0.826198
H25   H     H_    0.072065 0.833857 0.345898 0.242083
H26   H     H_    0.076023 0.929737 0.246207 0.208403
H27   H     H_    0.937366 0.955886 0.345809 0.256422
C46   C     C_2   0.762289 0.661349 0.181307 0.833978
O13   O     O_2   0.871412 0.598129 0.167250 -0.654028
O14   O     O_R   0.733726 0.733409 0.110173 -0.718108
H28   H     H_    0.811253 0.725280 0.051057 0.326458
O15   O     O_3   0.465130 0.731739 0.216211 -0.541943
C47   C     C_3   0.439376 0.860646 0.223612 0.121299
H29   H     H_    0.538364 0.911390 0.227019 0.149982
H30   H     H_    0.346793 0.875435 0.283956 0.118299
C48   C     C_3   0.400528 0.916309 0.141583 -0.736319
H31   H     H_    0.374790 0.016834 0.147906 0.193084
H32   H     H_    0.493807 0.907956 0.080596 0.269711
H33   H     H_    0.304176 0.865871 0.134916 0.239706
C49   C     C_2   0.894370 0.317871 0.258908 0.848639
O16   O     O_2   0.884619 0.268093 0.333228 -0.619772
O17   O     O_R   0.776385 0.310720 0.224823 -0.795400
H34   H     H_    0.687908 0.266566 0.269203 0.324447

loop_
_geom_bond_atom_site_label_1
_geom_bond_atom_site_label_2
_ccdc_geom_bond_type
C30   H9    S    
C17   C41   S    
O15   C47   S    
C34   C37   S    
Cu1   Cu2   S    
C19   C20   A    
Cu1   O1    S    
C4    C8    A    
C1    O2    A    
O12   C44   S    
Cu1   O7    S    
C43   H20   S    
C16   C21   A    
C42   H19   S    
C24   H3    S    
C23   O6    A    
C28   C29   A    
C5    C11   A    
C3    C7    A    
C5    C6    A    
C12   O4    A    
C19   H5    S    
C23   C26   S    
C33   H7    S    
C18   C19   A    
O11   C42   S    
C15   H8    S    
C41   O10   S    
C15   C37   A    
C8    H16   S    
C11   C15   A    
C39   H13   S    
C3    C38   A    
C16   C17   A    
C40   H14   S    
C42   C43   S    
C28   C46   S    
C7    H1    S    
C12   C36   S    
C9    C10   A    
Cu2   O2    S    
C43   H21   S    
C1    C22   S    
C33   N1    A    
C21   C22   A    
Cu2   O8    S    
C6    H15   S    
C41   O9    D    
C48   H32   S    
C48   H31   S    
C45   H26   S    
C38   C39   A    
C42   H18   S    
C49   O16   D    
C27   O12   S    
C24   C25   A    
C16   H4    S    
O14   H28   S    
C12   O3    A    
C8    C9    A    
C14   C49   S    
Cu1   O5    S    
C47   C48   S    
C25   C26   A    
C45   H25   S    
C35   N2    A    
C31   N2    A    
Cu2   N1    S    
C2    C4    A    
C29   C30   A    
C31   C32   A    
C38   H12   S    
C36   C40   A    
C17   C18   A    
C47   H30   S    
C25   H6    S    
C44   H23   S    
C18   O11   S    
C44   H24   S    
C22   C24   A    
C9    H11   S    
Cu1   O3    S    
C34   O8    A    
Cu2   O4    S    
C35   H10   S    
C48   H33   S    
C45   H27   S    
C43   H22   S    
C27   C32   A    
C36   C39   A    
Cu1   N2    S    
C4    C5    A    
C10   C13   A    
C1    O1    A    
C34   O7    A    
C6    C7    A    
C44   C45   S    
C23   O5    A    
C2    C3    A    
O10   H17   S    
C14   C37   A    
C29   O15   S    
C30   C31   A    
C20   C26   A    
C33   C35   A    
C47   H29   S    
C10   C11   A    
C2    C40   A    
C20   C21   A    
C49   O17   S    
C46   O14   S    
O17   H34   S    
Cu2   O6    S    
C32   N1    A    
C46   O13   D    
C13   C14   A    
C13   H2    S    
C27   C28   A    
