data_mof_unit_32098.cif
_audit_creation_date              2013-03-05T15:47:18-0500
_audit_creation_method            fapswitch 2.2
_symmetry_space_group_name_H-M    P1
_symmetry_Int_Tables_number       1
_space_group_crystal_system       triclinic
_cell_length_a                    19.445582
_cell_length_b                    11.407433
_cell_length_c                    18.703817
_cell_angle_alpha                 90.387356
_cell_angle_beta                  90.932779
_cell_angle_gamma                 89.664867
_cell_volume                      4148.24580207

loop_
_atom_site_label
_atom_site_type_symbol
_atom_site_description
_atom_site_fract_x
_atom_site_fract_y
_atom_site_fract_z
_atom_type_partial_charge
O1    O     O_R   0.214130 0.708570 0.829890 -0.499908
O2    O     O_R   0.785870 0.708570 0.170110 -0.534507
O3    O     O_R   0.714130 0.208570 0.829890 -0.485822
O4    O     O_R   0.285870 0.208570 0.170110 -0.535507
O5    O     O_R   0.236050 0.959150 0.825270 -0.533949
O6    O     O_R   0.763950 0.959150 0.174730 -0.510830
O7    O     O_R   0.736050 0.459150 0.825270 -0.535476
O8    O     O_R   0.263950 0.459150 0.174730 -0.509653
C1    C     C_R   0.272734 0.044575 0.854128 0.557773
C2    C     C_R   0.714726 0.013246 0.137178 0.526527
C3    C     C_R   0.772746 0.544524 0.854154 0.555371
C4    C     C_R   0.214551 0.512770 0.137045 0.525320
O9    O     O_R   0.332100 0.076650 0.832310 -0.433466
O10   O     O_R   0.667900 0.076650 0.167690 -0.439037
O11   O     O_R   0.832100 0.576650 0.832310 -0.434365
O12   O     O_R   0.167900 0.576650 0.167690 -0.439728
O13   O     O_R   0.446500 0.918620 0.826240 -0.481803
O14   O     O_R   0.553500 0.918620 0.173760 -0.503661
O15   O     O_R   0.946500 0.418620 0.826240 -0.491444
O16   O     O_R   0.053500 0.418620 0.173760 -0.503269
C5    C     C_R   0.470607 0.820280 0.853731 0.568131
C6    C     C_R   0.531266 0.820347 0.144603 0.568541
C7    C     C_R   0.970529 0.320320 0.853835 0.574144
C8    C     C_R   0.030839 0.320391 0.144844 0.568756
O17   O     O_R   0.457310 0.715830 0.831280 -0.527865
O18   O     O_R   0.542690 0.715830 0.168720 -0.514268
O19   O     O_R   0.957310 0.215830 0.831280 -0.525409
O20   O     O_R   0.042690 0.215830 0.168720 -0.514627
O21   O     O_R   0.321000 0.623520 0.824130 -0.445731
O22   O     O_R   0.679000 0.623520 0.175870 -0.468471
O23   O     O_R   0.821000 0.123520 0.824130 -0.449956
O24   O     O_R   0.179000 0.123520 0.175870 -0.469530
C9    C     C_R   0.270597 0.671855 0.860744 0.564052
C10   C     C_R   0.737450 0.643730 0.145307 0.612398
C11   C     C_R   0.770741 0.172962 0.860868 0.565516
C12   C     C_R   0.237759 0.142721 0.145594 0.612104
O25   O     O_R   0.213990 0.710040 0.667000 -0.522911
O26   O     O_R   0.786010 0.710040 0.333000 -0.527855
O27   O     O_R   0.713990 0.210040 0.667000 -0.519178
O28   O     O_R   0.286010 0.210040 0.333000 -0.528060
O29   O     O_R   0.235920 0.960520 0.674260 -0.515184
O30   O     O_R   0.764080 0.960520 0.325740 -0.510084
O31   O     O_R   0.735920 0.460520 0.674260 -0.515688
O32   O     O_R   0.264080 0.460520 0.325740 -0.509863
C13   C     C_R   0.272915 0.042666 0.645688 0.544297
C14   C     C_R   0.727190 0.043486 0.354145 0.552140
C15   C     C_R   0.772915 0.542665 0.645688 0.543856
C16   C     C_R   0.227190 0.543485 0.354145 0.552190
O33   O     O_R   0.331960 0.078120 0.669410 -0.520323
O34   O     O_R   0.668040 0.078120 0.330590 -0.519229
O35   O     O_R   0.831960 0.578120 0.669410 -0.520525
O36   O     O_R   0.168040 0.578120 0.330590 -0.519575
O37   O     O_R   0.446360 0.919990 0.675230 -0.505227
O38   O     O_R   0.553640 0.919990 0.324770 -0.510682
O39   O     O_R   0.946360 0.419990 0.675230 -0.508064
O40   O     O_R   0.053640 0.419990 0.324770 -0.510651
C17   C     C_R   0.468074 0.822748 0.645365 0.542083
C18   C     C_R   0.531977 0.823356 0.354746 0.539385
C19   C     C_R   0.968073 0.322747 0.645364 0.541456
C20   C     C_R   0.031976 0.323356 0.354745 0.539424
O41   O     O_R   0.457170 0.717300 0.668380 -0.532751
O42   O     O_R   0.542830 0.717300 0.331620 -0.529897
O43   O     O_R   0.957170 0.217300 0.668380 -0.531659
O44   O     O_R   0.042830 0.217300 0.331620 -0.529937
O45   O     O_R   0.320870 0.624890 0.673130 -0.497464
O46   O     O_R   0.679130 0.624890 0.326870 -0.501195
O47   O     O_R   0.820870 0.124890 0.673130 -0.499066
O48   O     O_R   0.179130 0.124890 0.326870 -0.501514
C21   C     C_R   0.260601 0.639722 0.643875 0.568217
C22   C     C_R   0.739351 0.640572 0.356204 0.555779
C23   C     C_R   0.760601 0.139721 0.643875 0.569559
C24   C     C_R   0.239351 0.140574 0.356205 0.555243
Cr1   Cr    Cr6+3 0.229620 0.836040 0.749110 1.026208
Cr2   Cr    Cr6+3 0.770380 0.836040 0.250890 1.021522
Cr3   Cr    Cr6+3 0.729620 0.336040 0.749110 1.031797
Cr4   Cr    Cr6+3 0.270380 0.336040 0.250890 1.021316
Cr5   Cr    Cr6+3 0.387630 0.990680 0.750730 1.083904
Cr6   Cr    Cr6+3 0.612370 0.990680 0.249270 1.066859
Cr7   Cr    Cr6+3 0.887630 0.490680 0.750730 1.074189
Cr8   Cr    Cr6+3 0.112370 0.490680 0.249270 1.066830
Cr9   Cr    Cr6+3 0.386020 0.676590 0.749210 1.057276
Cr10  Cr    Cr6+3 0.613980 0.676590 0.250790 1.054879
Cr11  Cr    Cr6+3 0.886020 0.176590 0.749210 1.056547
Cr12  Cr    Cr6+3 0.113980 0.176590 0.250790 1.053811
O49   O     O_3   0.334430 0.834430 0.749680 -0.323215
O50   O     O_3   0.665570 0.834430 0.250320 -0.317953
O51   O     O_3   0.834430 0.334430 0.749680 -0.323275
O52   O     O_3   0.165570 0.334430 0.250320 -0.317479
C25   C     C_3   0.475252 0.920365 0.025558 -0.078031
C26   C     C_3   0.532253 0.913960 0.969956 -0.110132
C27   C     C_3   0.974217 0.420397 0.025859 -0.081346
C28   C     C_3   0.031315 0.414528 0.970599 -0.094384
C29   C     C_3   0.435069 0.824847 0.983438 -0.086852
C30   C     C_3   0.568116 0.813994 0.013135 -0.148185
C31   C     C_3   0.934337 0.324707 0.983442 -0.092080
C32   C     C_3   0.067255 0.314427 0.013765 -0.131888
H1    H     H_    0.385447 0.816028 0.957210 0.081599
H2    H     H_    0.620319 0.797623 0.033172 0.085142
H3    H     H_    0.885445 0.316218 0.955682 0.079607
H4    H     H_    0.119182 0.297036 0.034497 0.084828
H5    H     H_    0.457186 0.003304 0.049802 0.159023
H6    H     H_    0.550214 0.993878 0.943343 0.184017
H7    H     H_    0.956191 0.503233 0.050226 0.159834
H8    H     H_    0.049060 0.494354 0.943384 0.178283
C33   C     C_3   0.492618 0.820788 0.929196 0.051615
C34   C     C_3   0.510527 0.822325 0.068045 0.075099
C35   C     C_3   0.992137 0.321031 0.929536 0.060850
C36   C     C_3   0.009513 0.322348 0.068423 0.071887
C37   C     C_3   0.527142 0.720694 0.970957 -0.126608
C38   C     C_3   0.470557 0.727142 0.026855 -0.083109
C39   C     C_3   0.026659 0.221043 0.971344 -0.117708
C40   C     C_3   0.969846 0.227009 0.026955 -0.088610
H9    H     H_    0.543708 0.636984 0.946447 0.138598
H10   H     H_    0.446339 0.651074 0.052486 0.138859
H11   H     H_    0.043704 0.137603 0.946842 0.138902
H12   H     H_    0.945822 0.150653 0.052422 0.138821
C41   C     C_3   0.306123 0.526074 0.043075 -0.286206
C42   C     C_3   0.686212 0.551300 0.952696 -0.301358
C43   C     C_3   0.805864 0.026008 0.043021 -0.286415
C44   C     C_3   0.186249 0.051928 0.952686 -0.301928
H13   H     H_    0.320935 0.435638 0.055455 0.158982
H14   H     H_    0.668111 0.464608 0.933576 0.168955
H15   H     H_    0.820375 0.935541 0.055235 0.159226
H16   H     H_    0.167940 0.965366 0.933486 0.168533
H17   H     H_    0.340925 0.581776 0.076225 0.153156
H18   H     H_    0.651907 0.616591 0.926781 0.126058
H19   H     H_    0.841273 0.080907 0.075945 0.150092
H20   H     H_    0.152167 0.117797 0.926959 0.135948
C45   C     C_3   0.317933 0.549767 0.963331 -0.243103
C46   C     C_3   0.680090 0.558130 0.034426 -0.241564
C47   C     C_3   0.816974 0.049784 0.963259 -0.240896
C48   C     C_3   0.180219 0.058237 0.034434 -0.242144
H21   H     H_    0.367673 0.595229 0.956592 0.132808
H22   H     H_    0.633687 0.608622 0.048827 0.143691
H23   H     H_    0.867271 0.093320 0.956128 0.133331
H24   H     H_    0.134013 0.109094 0.048975 0.142612
H25   H     H_    0.321516 0.466195 0.934501 0.241328
H26   H     H_    0.671904 0.468771 0.054992 0.231906
H27   H     H_    0.819244 0.966328 0.934283 0.244085
H28   H     H_    0.171637 0.968769 0.054749 0.231263
H29   H     H_    0.689644 0.914837 0.995082 0.111156
H30   H     H_    0.298227 0.917160 0.961833 0.084218
H31   H     H_    0.189056 0.411707 0.997524 0.115447
H32   H     H_    0.799262 0.418363 0.962211 0.084735
C49   C     C_3   0.180558 0.501996 0.006151 -0.248354
C50   C     C_3   0.812009 0.504942 0.976916 -0.209962
C51   C     C_3   0.680048 0.004663 0.006558 -0.257548
C52   C     C_3   0.311683 0.003482 0.976741 -0.210229
C53   C     C_3   0.219901 0.689056 0.057745 0.110015
C54   C     C_3   0.774086 0.709189 0.948544 0.072762
C55   C     C_3   0.721666 0.190837 0.059416 0.110481
C56   C     C_3   0.274966 0.208687 0.948858 0.070154
C57   C     C_3   0.230217 0.554705 0.063009 -0.026530
C58   C     C_3   0.760772 0.578295 0.930681 0.007527
C59   C     C_3   0.730392 0.055894 0.063501 -0.022028
C60   C     C_3   0.260912 0.078068 0.930710 0.007513
H33   H     H_    0.252718 0.724308 0.101242 0.220473
H34   H     H_    0.733257 0.762356 0.922354 0.163434
H35   H     H_    0.755574 0.224013 0.102741 0.218798
H36   H     H_    0.234621 0.262831 0.922605 0.174388
C61   C     C_3   0.257315 0.623827 0.932579 0.002558
C62   C     C_3   0.746489 0.610590 0.069330 0.011945
C63   C     C_3   0.757125 0.126672 0.933288 0.002097
C64   C     C_3   0.246874 0.109614 0.069500 0.012924
C65   C     C_3   0.190010 0.551683 0.930869 0.107289
C66   C     C_3   0.807378 0.527672 0.059019 0.091601
C67   C     C_3   0.687839 0.060061 0.932796 0.105817
C68   C     C_3   0.307307 0.025875 0.058932 0.091863
C69   C     C_3   0.246375 0.727184 0.985269 -0.277839
C70   C     C_3   0.767887 0.724122 0.030583 -0.264684
C71   C     C_3   0.747939 0.229612 0.986739 -0.285623
C72   C     C_3   0.268998 0.222990 0.030962 -0.264012
H37   H     H_    0.297365 0.757552 0.999778 0.121398
H38   H     H_    0.732618 0.790691 0.048322 0.067261
H39   H     H_    0.799211 0.258619 0.001003 0.125338
H40   H     H_    0.234128 0.289501 0.049252 0.068611
H41   H     H_    0.213039 0.795903 0.961620 0.154338
H42   H     H_    0.818318 0.752698 0.052452 0.181025
H43   H     H_    0.714626 0.298839 0.963801 0.149594
H44   H     H_    0.319585 0.251147 0.052806 0.181415
H45   H     H_    0.628131 0.018143 0.027586 0.161029
H46   H     H_    0.364950 0.018305 0.959244 0.171787
H47   H     H_    0.128446 0.517395 0.025975 0.162212
H48   H     H_    0.865216 0.520534 0.959447 0.171843
H49   H     H_    0.146103 0.611781 0.919433 0.187913
H50   H     H_    0.854819 0.574347 0.076476 0.145770
H51   H     H_    0.645641 0.125168 0.925857 0.197984
H52   H     H_    0.355020 0.071666 0.076476 0.145135
C73   C     C_3   0.504131 0.703115 0.459968 -0.226459
C74   C     C_3   0.496095 0.702683 0.539233 -0.229203
C75   C     C_3   0.004130 0.203113 0.459967 -0.226539
C76   C     C_3   0.996094 0.202682 0.539232 -0.229083
H53   H     H_    0.547393 0.646828 0.446647 0.136667
H54   H     H_    0.452614 0.647466 0.551878 0.135610
H55   H     H_    0.047392 0.146827 0.446647 0.136641
H56   H     H_    0.952612 0.147465 0.551877 0.135496
H57   H     H_    0.459476 0.658981 0.434008 0.119910
H58   H     H_    0.540717 0.657626 0.564775 0.119552
H59   H     H_    0.959476 0.158978 0.434007 0.119880
H60   H     H_    0.040715 0.157625 0.564774 0.119614
H61   H     H_    0.616614 0.894757 0.456658 0.107934
H62   H     H_    0.383148 0.893579 0.544120 0.108457
H63   H     H_    0.116614 0.394763 0.456655 0.107926
H64   H     H_    0.883148 0.393572 0.544118 0.108777
H65   H     H_    0.600787 0.830590 0.578075 0.117167
H66   H     H_    0.399390 0.831773 0.421922 0.115614
H67   H     H_    0.100786 0.330588 0.578071 0.117011
H68   H     H_    0.899389 0.331770 0.421919 0.115643
C77   C     C_3   0.564561 0.904386 0.475324 -0.224182
C78   C     C_3   0.435137 0.903931 0.525705 -0.222094
C79   C     C_3   0.064559 0.404387 0.475322 -0.223627
C80   C     C_3   0.935136 0.403928 0.525703 -0.221848
C81   C     C_3   0.441232 0.887448 0.443650 -0.258464
C82   C     C_3   0.558648 0.886610 0.557151 -0.256614
C83   C     C_3   0.941231 0.387446 0.443648 -0.258539
C84   C     C_3   0.058647 0.386609 0.557148 -0.257086
C85   C     C_3   0.511023 0.829865 0.431048 0.061633
C86   C     C_3   0.489078 0.829033 0.569223 0.060144
C87   C     C_3   0.011022 0.329864 0.431046 0.061598
C88   C     C_3   0.989077 0.329032 0.569221 0.060565
H69   H     H_    0.437995 0.973166 0.415993 0.117137
H70   H     H_    0.561693 0.972048 0.585869 0.123193
H71   H     H_    0.937993 0.473164 0.415991 0.117192
H72   H     H_    0.061692 0.472047 0.585865 0.120657
H73   H     H_    0.448571 0.996136 0.536945 0.120811
H74   H     H_    0.550770 0.996976 0.465363 0.118703
H75   H     H_    0.948568 0.496133 0.536944 0.120697
H76   H     H_    0.050766 0.496976 0.465362 0.118694
C89   C     C_3   0.179435 0.645861 0.458882 -0.228609
C90   C     C_3   0.819954 0.645397 0.541538 -0.226336
C91   C     C_3   0.679435 0.145864 0.458881 -0.228833
C92   C     C_3   0.319954 0.145398 0.541539 -0.226360
H77   H     H_    0.129559 0.607735 0.445306 0.136519
H78   H     H_    0.870130 0.608346 0.555176 0.136569
H79   H     H_    0.629557 0.107741 0.445304 0.136525
H80   H     H_    0.370129 0.108344 0.555176 0.136610
H81   H     H_    0.178098 0.733630 0.433311 0.123140
H82   H     H_    0.820484 0.733210 0.567688 0.123800
H83   H     H_    0.678099 0.233633 0.433312 0.123345
H84   H     H_    0.320485 0.233211 0.567689 0.124090
C93   C     C_3   0.184460 0.660168 0.538097 -0.231767
C94   C     C_3   0.815281 0.659526 0.462345 -0.232053
C95   C     C_3   0.684458 0.160168 0.538097 -0.231662
C96   C     C_3   0.315281 0.159526 0.462346 -0.232040
H85   H     H_    0.179535 0.753402 0.550851 0.135157
H86   H     H_    0.820200 0.752462 0.450209 0.134415
H87   H     H_    0.679533 0.253403 0.550852 0.134923
H88   H     H_    0.320201 0.252462 0.450209 0.134474
H89   H     H_    0.139436 0.618556 0.563316 0.122183
H90   H     H_    0.860391 0.617248 0.436974 0.120829
H91   H     H_    0.639435 0.118555 0.563316 0.123541
H92   H     H_    0.360391 0.117248 0.436975 0.120821
H93   H     H_    0.721967 0.883077 0.452532 0.109327
H94   H     H_    0.278064 0.882197 0.545183 0.108110
H95   H     H_    0.221969 0.383074 0.452532 0.109356
H96   H     H_    0.778066 0.382198 0.545181 0.108019
H97   H     H_    0.697690 0.939953 0.574021 0.120071
H98   H     H_    0.302530 0.939721 0.424307 0.117258
H99   H     H_    0.197692 0.439952 0.574021 0.119346
H100  H     H_    0.802530 0.439720 0.424306 0.117351
C97   C     C_3   0.252690 0.455629 0.472691 -0.223884
C98   C     C_3   0.747421 0.455405 0.525858 -0.223648
C99   C     C_3   0.752688 0.955631 0.472691 -0.223990
C100  C     C_3   0.247420 0.955406 0.525860 -0.223704
C101  C     C_3   0.304507 0.647069 0.443955 -0.260891
C102  C     C_3   0.695206 0.647031 0.556624 -0.260714
C103  C     C_3   0.804506 0.147070 0.443955 -0.260851
C104  C     C_3   0.195206 0.147032 0.556625 -0.260505
C105  C     C_3   0.240785 0.572393 0.430121 0.062287
C106  C     C_3   0.759070 0.571706 0.569732 0.063549
C107  C     C_3   0.740784 0.072394 0.430121 0.062301
C108  C     C_3   0.259070 0.071708 0.569733 0.063312
H101  H     H_    0.349383 0.608704 0.416090 0.115425
H102  H     H_    0.650447 0.608714 0.583930 0.115055
H103  H     H_    0.849382 0.108705 0.416090 0.115392
H104  H     H_    0.150447 0.108716 0.583932 0.115396
H105  H     H_    0.296473 0.737062 0.423619 0.117056
H106  H     H_    0.702929 0.736673 0.578192 0.117664
H107  H     H_    0.796472 0.237063 0.423619 0.117117
H108  H     H_    0.202929 0.236674 0.578194 0.117920
C109  C     C_3   0.252336 0.605774 0.567871 0.058121
C110  C     C_3   0.747689 0.606268 0.432064 0.059893
C111  C     C_3   0.752334 0.105774 0.567871 0.057763
C112  C     C_3   0.247688 0.106270 0.432065 0.060035
C113  C     C_3   0.246980 0.473797 0.554387 -0.258749
C114  C     C_3   0.753220 0.474090 0.444318 -0.258150
C115  C     C_3   0.746979 0.973798 0.554387 -0.258647
C116  C     C_3   0.253219 0.974091 0.444319 -0.258211
C117  C     C_3   0.316787 0.647850 0.525875 -0.224213
C118  C     C_3   0.683207 0.648925 0.474623 -0.223010
C119  C     C_3   0.816785 0.147851 0.525875 -0.224492
C120  C     C_3   0.183207 0.148926 0.474625 -0.223074
H109  H     H_    0.337226 0.730411 0.545630 0.108682
H110  H     H_    0.662858 0.732018 0.455980 0.109557
H111  H     H_    0.837223 0.230411 0.545631 0.108692
H112  H     H_    0.162855 0.232019 0.455982 0.109620
H113  H     H_    0.357171 0.581532 0.536744 0.121805
H114  H     H_    0.643054 0.583260 0.462950 0.122505
H115  H     H_    0.857170 0.081533 0.536744 0.121814
H116  H     H_    0.143053 0.083260 0.462952 0.122462
H117  H     H_    0.306573 0.429339 0.462742 0.120736
H118  H     H_    0.693597 0.429516 0.535317 0.119373
H119  H     H_    0.806571 0.929338 0.462742 0.120755
H120  H     H_    0.193595 0.929519 0.535318 0.119351
H121  H     H_    0.289069 0.426357 0.583030 0.122493
H122  H     H_    0.711287 0.427202 0.415150 0.122386
H123  H     H_    0.789068 0.926357 0.583028 0.121988
H124  H     H_    0.211287 0.927203 0.415151 0.122185
N1    N     N_R   0.148891 0.732611 0.068955 0.080662
O53   O     O_R   0.101977 0.727016 0.018620 -0.375976
O54   O     O_R   0.134949 0.792239 0.126560 -0.279481
N2    N     N_R   0.841774 0.749658 0.923765 0.068232
O55   O     O_R   0.898271 0.726720 0.959476 -0.359987
O56   O     O_R   0.846632 0.799646 0.861715 -0.277724
N3    N     N_R   0.651407 0.236797 0.072390 0.081583
O57   O     O_R   0.602870 0.231703 0.023806 -0.376468
O58   O     O_R   0.639092 0.294962 0.130959 -0.276025
N4    N     N_R   0.342822 0.248313 0.924157 0.066555
O59   O     O_R   0.399283 0.223764 0.959527 -0.358843
O60   O     O_R   0.347753 0.299279 0.862421 -0.277665
N5    N     N_R   0.679486 0.975113 0.873130 0.052902
O61   O     O_R   0.620803 0.970297 0.838872 -0.351171
O62   O     O_R   0.732514 0.928949 0.842114 -0.302414
N6    N     N_R   0.303986 0.920056 0.103313 0.025881
O63   O     O_R   0.358022 0.853327 0.108996 -0.408727
O64   O     O_R   0.258218 0.911044 0.152983 -0.319372
N7    N     N_R   0.187730 0.459236 0.874630 0.050114
O65   O     O_R   0.131007 0.402863 0.861829 -0.388010
O66   O     O_R   0.238776 0.439474 0.832144 -0.280356
N8    N     N_R   0.804630 0.422108 0.103738 0.026740
O67   O     O_R   0.858974 0.356231 0.109659 -0.408451
O68   O     O_R   0.759152 0.413023 0.153656 -0.315308

loop_
_geom_bond_atom_site_label_1
_geom_bond_atom_site_label_2
_geom_bond_distance
_ccdc_geom_bond_type
O4    C12   1.280374 A    
H96   C98   1.083676 S    
C71   H43   1.103117 S    
Cr7   O51   2.065918 S    
C102  H106  1.106897 S    
C103  H103  1.109914 S    
C70   H42   1.106391 S    
C93   H85   1.092418 S    
O39   C19   1.309448 A    
C18   C85   1.491771 S    
C31   H3    1.080365 S    
O21   C9    1.320630 A    
C69   H41   1.104440 S    
C1    O9    1.286612 A    
O44   Cr12  2.113436 S    
C82   H70   1.111064 S    
C3    C58   1.501234 S    
C3    O11   1.286729 A    
C56   C60   1.550802 S    
C1    C60   1.500943 S    
N6    O63   1.297294 A    
C25   C34   1.529080 S    
C92   H80   1.088213 S    
C24   C112  1.480511 S    
C55   C59   1.549958 S    
C104  C120  1.547886 S    
C51   C59   1.548737 S    
C29   C38   1.537178 S    
O2    C10   1.279886 A    
C32   C36   1.532627 S    
C101  C117  1.546828 S    
C46   H22   1.103743 S    
C73   C85   1.554465 S    
C97   C113  1.546332 S    
O31   Cr3   2.006451 S    
C96   C112  1.548513 S    
C99   C115  1.546323 S    
N8    O67   1.296823 A    
O16   Cr8   1.980790 S    
C75   C76   1.493342 S    
C64   C68   1.524614 S    
C93   H89   1.111610 S    
C20   C87   1.491760 S    
C67   H51   1.110167 S    
C113  H121  1.110937 S    
C90   C106  1.557045 S    
C22   C110  1.480507 S    
C11   C63   1.485495 S    
O28   Cr4   2.127545 S    
O12   Cr8   2.131258 S    
O22   Cr10  1.991471 S    
O15   C7    1.317573 A    
C84   H72   1.111059 S    
O46   Cr10  1.980305 S    
C50   C58   1.553287 S    
O48   C24   1.297905 A    
C7    C35   1.470337 S    
H64   C80   1.080679 S    
C67   N5    1.480584 S    
C51   C67   1.531465 S    
C45   H21   1.109544 S    
H65   C82   1.104444 S    
C82   C86   1.528030 S    
C77   H74   1.104502 S    
C89   H81   1.112478 S    
C46   H26   1.105267 S    
C70   H38   1.074721 S    
C73   H57   1.109643 S    
C54   N2    1.479932 S    
C98   H118  1.106487 S    
C25   H5    1.104389 S    
C66   H50   1.111179 S    
O5    Cr1   1.996557 S    
Cr12  O52   2.066419 S    
C26   C33   1.511411 S    
C27   H7    1.104087 S    
C17   O41   1.300057 A    
C43   H15   1.092925 S    
C30   C37   1.538839 S    
C19   O43   1.300055 A    
C20   O44   1.299319 A    
C31   C40   1.538237 S    
C77   C85   1.570056 S    
C117  H113  1.104660 S    
Cr8   O52   2.055680 S    
C15   C106  1.481012 S    
O46   C22   1.297904 A    
C71   H39   1.081069 S    
C103  C119  1.546824 S    
H67   C84   1.104444 S    
C90   H78   1.088213 S    
C76   H60   1.109006 S    
C28   H8    1.105909 S    
C16   O36   1.285960 A    
C45   H25   1.094522 S    
C112  C120  1.569326 S    
N5    O61   1.300841 A    
C66   N8    1.472553 S    
O29   C13   1.307050 A    
O31   C15   1.307049 A    
C94   C110  1.548514 S    
H100  C114  1.103879 S    
O32   C16   1.300091 A    
C55   H35   1.102731 S    
O47   Cr11  1.978989 S    
C63   C67   1.550544 S    
C39   C40   1.530547 S    
C54   C70   1.549301 S    
C53   C69   1.524824 S    
O24   C12   1.303780 A    
C56   C72   1.549354 S    
C17   C86   1.490248 S    
C28   C32   1.558518 S    
C55   C71   1.529006 S    
N2    O55   1.302568 A    
C42   H14   1.106791 S    
O32   Cr4   1.991987 S    
C26   H6    1.102903 S    
C53   C57   1.548099 S    
C80   H75   1.103269 S    
C110  C118  1.569318 S    
C104  C108  1.523514 S    
O11   Cr7   2.115900 S    
H95   C97   1.085495 S    
C43   C47   1.537053 S    
O27   Cr3   2.115886 S    
C41   C45   1.538747 S    
C38   H10   1.105592 S    
C97   C105  1.570488 S    
C48   H24   1.103432 S    
C61   C69   1.547501 S    
C46   C62   1.558113 S    
C99   C107  1.570485 S    
C79   C84   1.551408 S    
Cr5   O49   2.065918 S    
C55   N3    1.483585 S    
H63   C79   1.080856 S    
C89   C105  1.555008 S    
H61   C77   1.080843 S    
N1    O54   1.301732 A    
C32   C39   1.538029 S    
C95   H91   1.111609 S    
O22   C10   1.302998 A    
C100  C116  1.547394 S    
C4    O12   1.298479 A    
C120  H112  1.082703 S    
C2    O10   1.296750 A    
C27   C28   1.530056 S    
N7    O66   1.299318 A    
H29   C51   1.061584 S    
C117  H109  1.084621 S    
O5    C1    1.318440 A    
C90   C94   1.492273 S    
O25   C21   1.285160 A    
C80   C83   1.551319 S    
O3    C11   1.299891 A    
O8    C4    1.330637 A    
C104  H104  1.109678 S    
C45   C61   1.551407 S    
C102  C118  1.547884 S    
Cr1   O49   2.037924 S    
C101  H101  1.109916 S    
C98   C114  1.547393 S    
H68   C83   1.105586 S    
C79   H76   1.104508 S    
C64   C72   1.551302 S    
C29   H1    1.080233 S    
C40   H12   1.105183 S    
O26   Cr2   2.127545 S    
Cr3   O51   2.037924 S    
C33   C37   1.533163 S    
O27   C23   1.285154 A    
O28   C24   1.290515 A    
O14   C6    1.315600 A    
C35   C39   1.532682 S    
C84   C88   1.528034 S    
C10   C62   1.480977 S    
C2    C59   1.500975 S    
C78   C81   1.551320 S    
C79   C87   1.570052 S    
C49   H47   1.097490 S    
O40   Cr8   2.006823 S    
C50   H48   1.105808 S    
C23   C111  1.477330 S    
O41   Cr9   2.121466 S    
C51   H45   1.099029 S    
C32   H4    1.093271 S    
O33   Cr5   2.105830 S    
C42   C58   1.546883 S    
C89   H77   1.090748 S    
O35   Cr7   2.105830 S    
C47   H27   1.093310 S    
O29   Cr1   2.006451 S    
C73   H53   1.086470 S    
C100  C108  1.570857 S    
C69   H37   1.082035 S    
C91   H79   1.090747 S    
C41   H17   1.110056 S    
Cr9   O49   2.056064 S    
C72   H40   1.072600 S    
C43   H19   1.109741 S    
C18   O42   1.299322 A    
C13   C108  1.481005 S    
Cr11  O51   2.056064 S    
O26   C22   1.290514 A    
C68   H52   1.111219 S    
O20   Cr12  2.100279 S    
C118  H114  1.103420 S    
C49   C65   1.535605 S    
C94   H86   1.090767 S    
N8    O68   1.301449 A    
C76   H56   1.087368 S    
C19   C88   1.490259 S    
C34   C38   1.534812 S    
C30   H2    1.091841 S    
O34   Cr6   2.102083 S    
C44   C60   1.546582 S    
O30   C14   1.300096 A    
C101  C105  1.525427 S    
C5    O17   1.286928 A    
C62   C66   1.525017 S    
C81   H69   1.110290 S    
O6    Cr2   2.009037 S    
C8    C36   1.482095 S    
C63   C71   1.548477 S    
C72   H44   1.107526 S    
O42   Cr10  2.113436 S    
N3    O57   1.300755 A    
O18   Cr10  2.100279 S    
C118  H110  1.082696 S    
C74   C86   1.549171 S    
C26   C30   1.556857 S    
C109  C113  1.528678 S    
O24   Cr12  1.991471 S    
O30   Cr2   1.991987 S    
C111  C115  1.528676 S    
O48   Cr12  1.980305 S    
C8    O20   1.294550 A    
C112  C116  1.529567 S    
H32   C50   1.053333 S    
C103  C107  1.525426 S    
O37   C17   1.309442 A    
C15   O35   1.290408 A    
C111  C119  1.569171 S    
Cr10  O50   2.066419 S    
C36   C40   1.535686 S    
O43   Cr11  2.121466 S    
C94   H90   1.110294 S    
C53   N1    1.482412 S    
C48   C64   1.558743 S    
O21   Cr9   2.001703 S    
C42   C46   1.536635 S    
C83   C87   1.525354 S    
C98   C106  1.570855 S    
O39   Cr7   1.993738 S    
O45   Cr9   1.978989 S    
C62   C70   1.550633 S    
C47   C63   1.552877 S    
O13   Cr5   1.983156 S    
O15   Cr7   1.983156 S    
C31   C35   1.522288 S    
H66   C81   1.105585 S    
C95   H87   1.092419 S    
C61   C65   1.549876 S    
C52   C68   1.560277 S    
O23   C11   1.324987 A    
C120  H116  1.103421 S    
C74   H58   1.109005 S    
C54   H34   1.106292 S    
C92   C96   1.492275 S    
C27   C36   1.530083 S    
C115  H123  1.110937 S    
O6    C2    1.329447 A    
C44   H20   1.106364 S    
C48   H28   1.105958 S    
C80   C88   1.569666 S    
C104  H108  1.106898 S    
C77   C82   1.551415 S    
O1    Cr1   2.130163 S    
O19   Cr11  2.099313 S    
N7    O65   1.298112 A    
C37   C38   1.531253 S    
C101  H105  1.106548 S    
C89   C93   1.491178 S    
C102  H102  1.109679 S    
O45   C21   1.295984 A    
C103  H107  1.106548 S    
N2    O56   1.301603 A    
O47   C23   1.295992 A    
C73   C74   1.493341 S    
O13   C5    1.317718 A    
O40   C20   1.314704 A    
C52   H46   1.105621 S    
C6    O18   1.294311 A    
C12   C64   1.483195 S    
C119  H111  1.084608 S    
C21   C109  1.477326 S    
C52   C60   1.553146 S    
C25   C26   1.533303 S    
O36   Cr8   2.102083 S    
C53   H33   1.101132 S    
C5    C33   1.468253 S    
O38   Cr6   2.006823 S    
C56   H36   1.106335 S    
C14   C107  1.476642 S    
C9    C61   1.481554 S    
O8    Cr4   2.009037 S    
C4    C57   1.504520 S    
C100  H120  1.106493 S    
O1    C9    1.300523 A    
N1    O53   1.301732 A    
O7    C3    1.318335 A    
H98   C116  1.103880 S    
C75   H59   1.109644 S    
C47   H23   1.109897 S    
H97   C115  1.104645 S    
O23   Cr11  2.001703 S    
C91   H83   1.112475 S    
C68   N6    1.471924 S    
H99   C113  1.104644 S    
C41   H13   1.094741 S    
C29   C33   1.522994 S    
C116  H124  1.111430 S    
O16   C8    1.316097 A    
N5    O62   1.298523 A    
C91   C107  1.555014 S    
N4    O60   1.301503 A    
C92   C108  1.557046 S    
C13   O33   1.290405 A    
C119  H115  1.104659 S    
Cr4   O52   2.038133 S    
O2    Cr2   2.113751 S    
C37   H9    1.105029 S    
C49   C57   1.545860 S    
Cr6   O50   2.055680 S    
O10   Cr6   2.131258 S    
C114  H122  1.111430 S    
C25   C29   1.548161 S    
H62   C78   1.080695 S    
C75   H55   1.086471 S    
O9    Cr5   2.115900 S    
N3    O58   1.301715 A    
H30   C52   1.054893 S    
C102  C106  1.523515 S    
C75   C87   1.554471 S    
C81   C85   1.525356 S    
O7    Cr3   1.996557 S    
C6    C34   1.481572 S    
C97   H117  1.106495 S    
C65   H49   1.110810 S    
C95   C111  1.551903 S    
C99   H119  1.106492 S    
C91   C95   1.491184 S    
N4    O59   1.302602 A    
C28   C35   1.512347 S    
C96   H88   1.090765 S    
Cr2   O50   2.038133 S    
N6    O64   1.301932 A    
O14   Cr6   1.980790 S    
C16   C105  1.476644 S    
C110  C114  1.529563 S    
C7    O19   1.287663 A    
O37   Cr5   1.993738 S    
C78   H73   1.103273 S    
C90   H82   1.111802 S    
C76   C88   1.549167 S    
O3    Cr3   2.130163 S    
O38   C18   1.314704 A    
H31   C49   1.053946 S    
O25   Cr1   2.115886 S    
C30   C34   1.533886 S    
C43   C59   1.558044 S    
C96   H92   1.110294 S    
C44   C48   1.536569 S    
C93   C109  1.551902 S    
O17   Cr9   2.099313 S    
C83   H71   1.110291 S    
C56   N4    1.479357 S    
C14   O34   1.285956 A    
C78   C86   1.569670 S    
C41   C57   1.560434 S    
H93   C99   1.085479 S    
C65   N7    1.484792 S    
C50   C66   1.559607 S    
O4    Cr4   2.113751 S    
C74   H54   1.087369 S    
H94   C100  1.083694 S    
C27   C31   1.549355 S    
C54   C58   1.550209 S    
C92   H84   1.111803 S    
C39   H11   1.105102 S    
C42   H18   1.105989 S    
C44   H16   1.107215 S    
C109  C117  1.569175 S    
