data_mof_unit_21496.cif
_audit_creation_date              2012-10-26T21:12:36-0400
_audit_creation_method            fapswitch 2.2
_symmetry_space_group_name_H-M    P1
_symmetry_Int_Tables_number       1
_space_group_crystal_system       triclinic
_cell_length_a                    23.522454
_cell_length_b                    10.877759
_cell_length_c                    9.57179
_cell_angle_alpha                 90.974392
_cell_angle_beta                  90.044929
_cell_angle_gamma                 92.786207
_cell_volume                      2445.89694742

loop_
_atom_site_label
_atom_site_type_symbol
_atom_type_description
_atom_site_fract_x
_atom_site_fract_y
_atom_site_fract_z
_atom_type_partial_charge
C1    C     C_R   0.503921 0.263217 0.499241 0.550382
C2    C     C_R   0.122048 0.605128 0.457264 0.403548
C3    C     C_R   0.238840 0.498891 0.626378 -0.050655
C4    C     C_R   0.390955 0.499739 0.499973 0.565804
C5    C     C_R   0.298099 0.498235 0.626561 -0.136280
C6    C     C_R   0.328336 0.500220 0.499896 0.008366
C7    C     C_R   0.298162 0.502905 0.373199 -0.126852
C8    C     C_R   0.238898 0.503638 0.373341 -0.049983
C9    C     C_R   0.209032 0.501611 0.499854 0.238504
C10   C     C_R   0.761088 0.502278 0.627237 -0.056614
C11   C     C_R   0.701796 0.501148 0.627149 -0.149642
C12   C     C_R   0.965379 0.294909 0.587813 -0.121222
C13   C     C_R   0.671667 0.502556 0.500302 0.002349
C14   C     C_R   0.701965 0.505896 0.373749 -0.147570
C15   C     C_R   0.761262 0.507094 0.374173 -0.056518
C16   C     C_R   0.496230 0.737719 0.502012 0.566183
C17   C     C_R   0.791024 0.505006 0.500822 0.240848
C18   C     C_R   0.553176 0.128322 0.732498 -0.079107
C19   C     C_R   0.555994 0.073753 0.862531 -0.123865
C20   C     C_R   0.528907 0.959341 0.882650 -0.106167
C21   C     C_R   0.504443 0.893897 0.769425 -0.087790
C22   C     C_R   0.506810 0.942233 0.632536 -0.014991
C23   C     C_R   0.024678 0.294371 0.587544 -0.120932
C24   C     C_R   0.523306 0.067823 0.620403 0.015316
C25   C     C_R   0.507668 0.129742 0.498759 -0.047164
C26   C     C_R   0.486367 0.063202 0.382622 -0.116808
C27   C     C_R   0.479991 0.936171 0.384643 0.206824
C28   C     C_R   0.609041 0.500831 0.500055 0.529710
C29   C     C_R   0.492242 0.872771 0.508113 0.002397
C30   C     C_R   0.577646 0.660385 0.147187 -0.063832
C31   C     C_R   0.616734 0.735687 0.076121 -0.173471
C32   C     C_R   0.616992 0.734729 0.932188 -0.178513
C33   C     C_R   0.577821 0.659271 0.858577 -0.104637
C34   C     C_R   0.057441 0.398161 0.544035 0.029317
C35   C     C_R   0.538261 0.578421 0.926605 0.148189
C36   C     C_R   0.538208 0.578642 0.076342 0.177120
C37   C     C_R   0.463791 0.424872 0.072465 0.003766
C38   C     C_R   0.463784 0.424955 0.924379 0.002111
C39   C     C_R   0.882928 0.607257 0.458228 0.400786
C40   C     C_R   0.878031 0.401801 0.543640 0.401473
C41   C     C_R   0.937603 0.399248 0.544573 0.029263
C42   C     C_R   0.970033 0.503776 0.500640 -0.027776
C43   C     C_R   0.942611 0.608828 0.456942 0.029319
C44   C     C_R   0.030029 0.503230 0.500367 -0.027829
C45   C     C_R   0.062467 0.607741 0.456409 0.028682
C46   C     C_R   0.034686 0.712083 0.413180 -0.119920
C47   C     C_R   0.975379 0.712621 0.413444 -0.121694
C48   C     C_R   0.117112 0.399671 0.542666 0.402059
Cl1   Cl    Cl    0.450745 0.863722 0.232450 -0.611256
Cu1   Cu    Cu3+1 0.500000 0.499990 0.640660 0.921441
Cu2   Cu    Cu3+1 0.500000 0.500010 0.359340 0.972841
H1    H     H_    0.941422 0.213351 0.621974 0.171586
H2    H     H_    0.434171 0.363312 0.126686 0.119015
H3    H     H_    0.044718 0.212418 0.621516 0.171768
H4    H     H_    0.580341 0.671004 0.257361 0.182603
H5    H     H_    0.646554 0.796499 0.133470 0.134488
H6    H     H_    0.646788 0.795269 0.876864 0.138653
H7    H     H_    0.579673 0.670528 0.748788 0.188223
H8    H     H_    0.434147 0.363450 0.867654 0.128537
H9    H     H_    0.058645 0.793633 0.379005 0.173539
H10   H     H_    0.955336 0.794565 0.379456 0.170466
H11   H     H_    0.216009 0.497638 0.724580 0.136949
H12   H     H_    0.679639 0.498964 0.726290 0.132304
H13   H     H_    0.320151 0.496181 0.725797 0.136020
H14   H     H_    0.320267 0.504468 0.273990 0.143072
H15   H     H_    0.216094 0.505379 0.275127 0.136843
H16   H     H_    0.783856 0.501089 0.725541 0.133224
H17   H     H_    0.679939 0.507386 0.274433 0.131207
H18   H     H_    0.784148 0.508952 0.276054 0.133322
H19   H     H_    0.473314 0.110354 0.289909 0.167389
H20   H     H_    0.574450 0.217955 0.720925 0.145609
H21   H     H_    0.577264 0.122315 0.948921 0.120938
H22   H     H_    0.527594 0.920178 0.985816 0.178920
H23   H     H_    0.481247 0.809301 0.794110 0.172780
N1    N     N_R   0.852008 0.504755 0.501009 -0.399004
N2    N     N_R   0.148053 0.502143 0.499873 -0.400195
N3    N     N_R   0.500540 0.501210 0.147910 -0.236967
N4    N     N_R   0.500560 0.501290 0.852040 -0.250540
O1    O     O_R   0.500000 0.319640 0.618810 -0.503123
O2    O     O_R   0.582120 0.500020 0.618760 -0.530796
O3    O     O_R   0.582120 0.500050 0.381190 -0.530346
O4    O     O_2   0.855975 0.707561 0.418093 -0.494049
O5    O     O_2   0.846308 0.301923 0.583860 -0.492384
O6    O     O_2   0.144040 0.299301 0.582705 -0.485700
O7    O     O_2   0.153791 0.704944 0.416959 -0.479291
O8    O     O_R   0.500000 0.319660 0.381240 -0.508854
O9    O     O_R   0.417880 0.499950 0.618810 -0.501675
O10   O     O_R   0.417880 0.499980 0.381240 -0.486438
O11   O     O_R   0.500000 0.680340 0.618760 -0.548315
O12   O     O_R   0.500000 0.680360 0.381190 -0.455286

loop_
_geom_bond_atom_site_label_1
_geom_bond_atom_site_label_2
_ccdc_geom_bond_type
C16   O12   A    
C33   H7    S    
C22   C29   A    
C27   C29   A    
C41   C42   A    
C48   N2    A    
C19   C20   A    
Cu1   O1    S    
C7    C8    A    
C4    O9    A    
C10   H16   S    
C8    H15   S    
C12   C23   A    
C26   C27   A    
C37   C38   A    
C18   C24   A    
C11   H12   S    
C36   N3    A    
Cu2   O12   S    
C5    C6    A    
C10   C17   A    
C1    O8    A    
C2    O7    S    
C18   C19   A    
C35   C36   A    
C8    C9    A    
C13   C28   S    
C9    N2    S    
C39   N1    A    
C31   H5    S    
Cu2   O3    S    
C37   H2    S    
C16   O11   A    
C13   C14   A    
C1    C25   S    
C40   O5    S    
C19   H21   S    
C42   C44   A    
C32   H6    S    
Cu1   N4    S    
Cu2   O8    S    
C12   H1    S    
C2    C45   A    
C15   H18   S    
C34   C44   A    
C24   C25   A    
C4    C6    S    
C39   C43   A    
C38   N4    A    
C16   C29   S    
C45   C46   A    
C37   N3    A    
C21   H23   S    
C48   O6    S    
C5    H13   S    
Cu2   N3    S    
C12   C41   A    
C3    C9    A    
C7    H14   S    
Cu1   O11   S    
C31   C32   A    
C23   C34   A    
Cu1   Cu2   S    
Cu1   O9    S    
C40   C41   A    
C1    O1    A    
C22   C24   A    
C34   C48   A    
C42   C43   A    
C2    N2    A    
C44   C45   A    
C23   H3    S    
C3    H11   S    
C18   H20   S    
C15   C17   A    
C46   C47   A    
C46   H9    S    
C28   O3    A    
C39   O4    S    
C3    C5    A    
Cu1   O2    S    
Cu2   O10   S    
C47   H10   S    
C6    C7    A    
C4    O10   A    
C30   H4    S    
C35   N4    A    
C40   N1    A    
C30   C36   A    
C32   C33   A    
C25   C26   A    
C11   C13   A    
C30   C31   A    
C26   H19   S    
C33   C35   A    
C20   H22   S    
C28   O2    A    
C10   C11   A    
C38   H8    S    
C20   C21   A    
C17   N1    S    
C14   H17   S    
C14   C15   A    
C21   C22   A    
C43   C47   A    
C27   Cl1   S    
