data_mof_unit_38018.cif
_audit_creation_date              2012-12-10T18:59:14-0500
_audit_creation_method            fapswitch 2.2
_symmetry_space_group_name_H-M    P1
_symmetry_Int_Tables_number       1
_space_group_crystal_system       triclinic
_cell_length_a                    10.814221
_cell_length_b                    10.89319
_cell_length_c                    9.575282
_cell_angle_alpha                 90.434598
_cell_angle_beta                  90.208273
_cell_angle_gamma                 91.22025
_cell_volume                      1127.68490352

loop_
_atom_site_label
_atom_site_type_symbol
_atom_type_description
_atom_site_fract_x
_atom_site_fract_y
_atom_site_fract_z
_atom_type_partial_charge
C1    C     C_R   0.497773 0.262318 0.498763 0.849993
C2    C     C_R   0.062709 0.523674 0.633336 0.029920
C3    C     C_R   0.128934 0.528794 0.505271 -0.084892
C4    C     C_R   0.063843 0.527052 0.378726 -0.135642
C5    C     C_R   0.936491 0.513624 0.378203 -0.127229
C6    C     C_R   0.873007 0.488434 0.502346 -0.070794
C7    C     C_R   0.463040 0.064825 0.617974 -0.022127
C8    C     C_R   0.485133 0.128885 0.494450 -0.229629
C9    C     C_R   0.490556 0.060351 0.367952 0.419430
C10   C     C_R   0.485468 0.932655 0.371891 -0.202872
C11   C     C_R   0.486811 0.870337 0.499283 -0.158310
C12   C     C_R   0.263100 0.512785 0.500969 0.848480
C13   C     C_R   0.469185 0.938370 0.621119 0.029599
C14   C     C_3   0.536689 0.942112 0.758269 0.188626
C15   C     C_3   0.521055 0.080760 0.758448 0.203823
C16   C     C_R   0.603926 0.533787 0.073662 0.170007
C17   C     C_R   0.406326 0.444485 0.071531 0.468755
C18   C     C_R   0.405241 0.448063 0.923514 0.008975
C19   C     C_R   0.604598 0.531478 0.926754 0.151569
C20   C     C_3   0.677917 0.647621 0.916890 -0.443385
C21   C     C_3   0.675921 0.652909 0.075825 0.207241
C22   C     C_R   0.498108 0.737549 0.500425 0.870672
C23   C     C_R   0.737778 0.492361 0.500483 0.786859
C24   C     C_R   0.112291 0.558618 0.765879 0.331154
C25   C     C_R   0.057979 0.512419 0.887482 -0.220158
C26   C     C_R   0.951690 0.438199 0.878691 0.370117
C27   C     C_R   0.890230 0.424622 0.750962 -0.213477
C28   C     C_R   0.940119 0.478097 0.628902 -0.011519
Cu1   Cu    Cu3+1 0.499990 0.499980 0.640670 1.014800
Cu2   Cu    Cu3+1 0.500010 0.500020 0.359330 1.067176
H1    H     H_    0.111181 0.536198 0.279759 0.193843
H2    H     H_    0.608699 0.136123 0.758536 0.140307
H3    H     H_    0.328639 0.406404 0.866308 0.192683
H4    H     H_    0.771617 0.633775 0.873394 0.197900
H5    H     H_    0.623985 0.719247 0.865498 0.260443
H6    H     H_    0.768763 0.646080 0.124615 0.158478
H7    H     H_    0.097554 0.535351 0.988657 0.195114
H8    H     H_    0.805601 0.369954 0.748002 0.195032
H9    H     H_    0.888053 0.521015 0.279826 0.189342
H10   H     H_    0.487898 0.883077 0.274491 0.234523
H11   H     H_    0.486811 0.892743 0.842966 0.200059
N1    N     N_R   0.500790 0.500930 0.147930 -0.231118
N2    N     N_R   0.500790 0.500890 0.852020 -0.209366
O1    O     O_R   0.500000 0.319640 0.618810 -0.582171
O2    O     O_R   0.500010 0.319680 0.381230 -0.491958
O3    O     O_R   0.319640 0.499980 0.618820 -0.563445
O4    O     O_R   0.319650 0.500020 0.381230 -0.554127
O5    O     O_R   0.499990 0.680320 0.618770 -0.550777
O6    O     O_R   0.500000 0.680360 0.381190 -0.571438
O7    O     O_R   0.680350 0.499980 0.618770 -0.594901
O8    O     O_R   0.680360 0.500020 0.381180 -0.573892
O9    O     O_3   0.661682 0.909222 0.746731 -0.717483
H12   H     H_    0.699057 0.951784 0.665186 0.334184
Cl1   Cl    Cl    0.408141 0.130734 0.880087 -0.472943
Cl2   Cl    Cl    0.288625 0.355051 0.148722 -0.493720
O10   O     O_3   0.609161 0.752427 0.127402 -0.674574
H13   H     H_    0.526336 0.751436 0.081933 0.332898
Cl3   Cl    Cl    0.220721 0.681208 0.785982 -0.608443
Cl4   Cl    Cl    0.889648 0.370291 0.029139 -0.591526
Cl5   Cl    Cl    0.519004 0.124596 0.202579 -0.440080

loop_
_geom_bond_atom_site_label_1
_geom_bond_atom_site_label_2
_ccdc_geom_bond_type
C8    C9    A    
C21   O10   S    
C22   O5    A    
Cu2   O8    S    
Cu1   Cu2   S    
C1    C8    S    
C9    C10   A    
C17   Cl2   S    
Cu2   O2    S    
C23   O8    A    
C19   C20   S    
C7    C13   A    
Cu1   O3    S    
C1    O1    A    
C20   H4    S    
C9    Cl5   S    
C7    C15   S    
C17   C18   A    
C15   H2    S    
C21   H6    S    
C18   N2    A    
C24   C25   A    
C2    C24   A    
C11   C13   A    
C1    O2    A    
C26   C27   A    
C16   C21   S    
C12   O4    A    
C6    C23   S    
Cu1   N2    S    
C10   H10   S    
Cu2   O6    S    
C19   N2    A    
C2    C3    A    
C27   H8    S    
Cu1   O7    S    
C14   H11   S    
Cu1   O1    S    
C16   C19   A    
C5    C6    A    
C18   H3    S    
C14   O9    S    
C4    H1    S    
C10   C11   A    
Cu1   O5    S    
C3    C4    A    
C15   Cl1   S    
C16   N1    A    
Cu2   O4    S    
C7    C8    A    
C20   C21   S    
C24   Cl3   S    
C17   N1    A    
C26   Cl4   S    
C22   O6    A    
C27   C28   A    
O10   H13   S    
C5    H9    S    
C14   C15   S    
Cu2   N1    S    
C23   O7    A    
C2    C28   A    
C3    C12   S    
C11   C22   S    
C25   H7    S    
C25   C26   A    
C13   C14   S    
C20   H5    S    
C6    C28   A    
O9    H12   S    
C4    C5    A    
C12   O3    A    
