data_mof_unit_17058.cif
_audit_creation_date              2012-10-26T19:02:37-0400
_audit_creation_method            fapswitch 2.2
_symmetry_space_group_name_H-M    P1
_symmetry_Int_Tables_number       1
_space_group_crystal_system       triclinic
_cell_length_a                    17.353749
_cell_length_b                    8.682487
_cell_length_c                    7.439659
_cell_angle_alpha                 102.808248
_cell_angle_beta                  91.170162
_cell_angle_gamma                 93.087015
_cell_volume                      1090.87948656

loop_
_atom_site_label
_atom_site_type_symbol
_atom_type_description
_atom_site_fract_x
_atom_site_fract_y
_atom_site_fract_z
_atom_type_partial_charge
C1    C     C_R   0.497608 0.199713 0.453672 0.544462
C2    C     C_R   0.779566 0.498148 0.625423 0.266035
C3    C     C_R   0.141943 0.521843 0.389824 -0.110252
C4    C     C_R   0.858140 0.479446 0.610315 -0.110141
C5    C     C_R   0.107293 0.540190 0.560490 -0.006220
C6    C     C_R   0.892783 0.461142 0.439641 -0.006261
C7    C     C_R   0.153195 0.551490 0.722054 0.102931
C8    C     C_R   0.846858 0.449534 0.278044 0.102949
C9    C     C_R   0.232793 0.539068 0.708595 -0.132971
C10   C     C_R   0.767237 0.461560 0.291469 -0.132904
C11   C     C_2   0.023200 0.545703 0.567120 -0.144210
C12   C     C_R   0.502393 0.800287 0.546327 0.544390
C13   C     C_2   0.976882 0.455799 0.432986 -0.144205
C14   C     C_3   0.237223 0.324793 0.106574 -0.098253
C15   C     C_3   0.762382 0.676136 0.893135 -0.098137
C16   C     C_2   0.496472 0.031941 0.427413 -0.153002
C17   C     C_2   0.503529 0.968058 0.572586 -0.153028
C18   C     C_R   0.351081 0.503979 0.524382 0.550331
C19   C     C_R   0.648922 0.496119 0.475631 0.550230
C20   C     C_R   0.267096 0.514027 0.536099 -0.026422
C21   C     C_R   0.732926 0.486453 0.463954 -0.026503
C22   C     C_R   0.220482 0.502682 0.374665 0.266084
Cu1   Cu    Cu3+1 0.508700 0.517250 0.683000 0.981585
Cu2   Cu    Cu3+1 0.491300 0.482750 0.317000 0.981707
H1    H     H_    0.732279 0.451278 0.166623 0.187665
H2    H     H_    0.561032 0.621068 0.042494 0.236559
H3    H     H_    0.174575 0.297362 0.072352 0.109488
H4    H     H_    0.259583 0.241030 0.186090 0.113177
H5    H     H_    0.267868 0.306266 0.974803 0.131823
H6    H     H_    0.739562 0.759342 0.813446 0.113377
H7    H     H_    0.824996 0.704507 0.927024 0.109277
H8    H     H_    0.731867 0.694426 0.025066 0.131783
H9    H     H_    0.093382 0.679817 0.927880 0.222994
H10   H     H_    0.078570 0.480745 0.897601 0.217151
H11   H     H_    0.921399 0.520476 0.102446 0.217240
H12   H     H_    0.267739 0.549146 0.833417 0.187651
H13   H     H_    0.906764 0.321377 0.072266 0.222926
H14   H     H_    0.001024 0.378132 0.315560 0.116223
H15   H     H_    0.999066 0.623356 0.684571 0.116231
H16   H     H_    0.892086 0.479823 0.734157 0.136270
H17   H     H_    0.108019 0.521729 0.266029 0.136266
H18   H     H_    0.489832 0.960633 0.287377 0.135519
H19   H     H_    0.510169 0.039367 0.712622 0.135505
H20   H     H_    0.438968 0.378932 0.957506 0.236613
N1    N     N_2   0.478180 0.456750 0.041980 -0.249395
N2    N     N_2   0.521820 0.543250 0.958020 -0.249433
N3    N     N_3   0.120350 0.572706 0.900361 -0.619592
N4    N     N_3   0.879700 0.428377 0.099732 -0.619332
O1    O     O_R   0.505650 0.286040 0.618880 -0.506075
O2    O     O_3   0.748282 0.517085 0.798000 -0.531566
O3    O     O_R   0.494350 0.713960 0.381120 -0.506075
O4    O     O_R   0.490960 0.256910 0.309800 -0.505035
O5    O     O_R   0.509040 0.743090 0.690200 -0.505103
O6    O     O_R   0.394600 0.516230 0.672450 -0.526107
O7    O     O_R   0.605400 0.483770 0.327550 -0.526112
O8    O     O_R   0.379910 0.487100 0.363380 -0.443216
O9    O     O_R   0.620090 0.512900 0.636620 -0.443356
O10   O     O_3   0.251781 0.483627 0.202094 -0.531538

loop_
_geom_bond_atom_site_label_1
_geom_bond_atom_site_label_2
_ccdc_geom_bond_type
C12   C17   S    
Cu2   O4    S    
C9    H12   S    
C2    C4    A    
Cu1   Cu2   S    
C8    N4    S    
C22   O10   S    
C14   H3    S    
Cu2   O8    S    
Cu1   N2    S    
C9    C20   A    
C12   O5    A    
C18   O8    A    
C3    C5    A    
C7    C9    A    
C2    C21   A    
C17   H19   S    
C5    C7    A    
C15   H8    S    
C1    C16   S    
N1    N2    D    
C19   O9    A    
H13   N4    S    
C11   H15   S    
Cu2   O7    S    
C11   C13   D    
C13   H14   S    
Cu2   O3    S    
H9    N3    S    
Cu2   N1    S    
C10   H1    S    
Cu1   O5    S    
C19   C21   S    
C20   C22   A    
C5    C11   S    
C18   C20   S    
Cu1   O6    S    
C10   C21   A    
C14   O10   S    
C1    O4    A    
Cu1   O1    S    
C4    C6    A    
H11   N4    S    
C14   H5    S    
C16   H18   S    
C12   O3    A    
H20   N1    S    
C15   H6    S    
C8    C10   A    
C15   O2    S    
C19   O7    A    
Cu1   O9    S    
C18   O6    A    
C3    H17   S    
C3    C22   A    
C6    C8    A    
H10   N3    S    
C2    O2    S    
C14   H4    S    
H2    N2    S    
C1    O1    A    
C15   H7    S    
C4    H16   S    
C16   C17   D    
C6    C13   S    
C7    N3    S    
