data_mof_unit_64077.cif
_audit_creation_date              2012-12-11T20:14:02-0500
_audit_creation_method            fapswitch 2.2
_symmetry_space_group_name_H-M    P1
_symmetry_Int_Tables_number       1
_space_group_crystal_system       triclinic
_cell_length_a                    22.037244
_cell_length_b                    26.340535
_cell_length_c                    8.384677
_cell_angle_alpha                 90.0
_cell_angle_beta                  102.120505
_cell_angle_gamma                 89.876108
_cell_volume                      4758.56915172

loop_
_atom_site_label
_atom_site_type_symbol
_atom_type_description
_atom_site_fract_x
_atom_site_fract_y
_atom_site_fract_z
_atom_type_partial_charge
Ba1   Ba    Ba6+2 0.999850 0.464270 0.844920 1.846926
Ba2   Ba    Ba6+2 0.999850 0.535730 0.344920 1.857821
Ba3   Ba    Ba6+2 0.499850 0.964270 0.844920 1.846934
Ba4   Ba    Ba6+2 0.499850 0.035730 0.344920 1.857694
C1    C     C_3   0.034495 0.229126 0.530281 0.494837
C2    C     C_2   0.852828 0.701582 0.788080 -0.126281
C3    C     C_3   0.784391 0.763536 0.104800 -0.399669
C4    C     C_2   0.332906 0.810475 0.309477 -0.096653
C5    C     C_2   0.352827 0.201584 0.788100 -0.126245
C6    C     C_2   0.812291 0.305215 0.139564 0.007790
C7    C     C_2   0.805379 0.689624 0.653810 0.008070
C8    C     C_2   0.312211 0.805267 0.139682 0.007679
C9    C     C_2   0.305429 0.189667 0.653660 0.008034
C10   C     C_2   0.827233 0.343831 0.035932 -0.166634
C11   C     C_2   0.810521 0.645196 0.562993 -0.109858
C12   C     C_2   0.327213 0.843841 0.036000 -0.166579
C13   C     C_3   0.000239 0.794300 0.185275 0.497624
C14   C     C_2   0.310582 0.145243 0.562826 -0.109724
C15   C     C_1   0.863603 0.384986 0.100919 0.144001
C16   C     C_1   0.860625 0.612820 0.609243 0.116096
C17   C     C_1   0.363586 0.884995 0.100948 0.144196
C18   C     C_1   0.360636 0.112825 0.609227 0.116019
C19   C     C_R   0.154307 0.707037 0.896379 -0.035160
C20   C     C_R   0.171664 0.302786 0.379997 -0.068651
C21   C     C_R   0.654343 0.207019 0.896340 -0.034916
C22   C     C_R   0.671480 0.802654 0.380273 -0.067880
C23   C     C_R   0.111413 0.666126 0.824240 -0.071264
C24   C     C_3   0.535124 0.729121 0.533839 0.492987
C25   C     C_R   0.119637 0.337965 0.318726 -0.081048
C26   C     C_R   0.611431 0.166117 0.824224 -0.070913
C27   C     C_R   0.619504 0.837879 0.318943 -0.081443
C28   C     C_R   0.138046 0.615441 0.079772 0.017759
C29   C     C_R   0.140715 0.385595 0.579555 0.031226
C30   C     C_R   0.638064 0.115431 0.079751 0.017571
C31   C     C_R   0.640668 0.885569 0.579639 0.030565
C32   C     C_R   0.181611 0.650195 0.142464 -0.168385
C33   C     C_R   0.186163 0.352160 0.641305 -0.170513
C34   C     C_R   0.681652 0.150171 0.142406 -0.168458
C35   C     C_3   0.500307 0.294319 0.185351 0.497220
C36   C     C_R   0.686076 0.852109 0.641447 -0.171926
C37   C     C_R   0.191254 0.697835 0.053392 0.049834
C38   C     C_R   0.201256 0.307579 0.545970 0.030536
C39   C     C_R   0.691308 0.197806 0.053322 0.049839
C40   C     C_R   0.701106 0.807481 0.546215 0.029802
C41   C     C_3   0.979027 0.279912 0.054245 0.330825
C42   C     C_3   0.982088 0.724688 0.604814 0.295529
C43   C     C_3   0.479093 0.779856 0.055397 0.332638
C44   C     C_3   0.482105 0.224692 0.604895 0.295368
C45   C     C_2   0.777348 0.259528 0.069524 -0.083714
C46   C     C_3   0.865496 0.354973 0.375708 -0.017403
C47   C     C_2   0.750258 0.723084 0.608055 -0.086932
C48   C     C_2   0.277284 0.759569 0.069671 -0.084420
C49   C     C_2   0.250350 0.223166 0.607729 -0.086634
C50   C     C_2   0.234990 0.736480 0.139958 -0.054826
C51   C     C_2   0.253653 0.274182 0.620979 -0.074821
C52   C     C_2   0.735071 0.236437 0.139861 -0.054550
C53   C     C_2   0.753521 0.774102 0.621223 -0.075305
C54   C     C_R   0.101998 0.622597 0.929240 0.345362
C55   C     C_R   0.105751 0.378703 0.428018 0.323237
C56   C     C_R   0.602005 0.122594 0.929237 0.345810
C57   C     C_3   0.905455 0.669662 0.839602 -0.065585
C58   C     C_R   0.605690 0.878671 0.428130 0.321620
C59   C     C_3   0.948756 0.229259 0.999584 -0.265560
C60   C     C_3   0.951716 0.776526 0.569294 -0.349299
C61   C     C_3   0.448758 0.729221 0.000737 -0.265775
C62   C     C_3   0.451731 0.276526 0.569332 -0.349296
C63   C     C_3   0.182052 0.468935 0.286061 0.363752
C64   C     C_3   0.177870 0.532961 0.778366 0.350053
C65   C     C_3   0.681986 0.968911 0.286020 0.363517
C66   C     C_3   0.677888 0.032953 0.778353 0.350054
C67   C     C_3   0.241643 0.437968 0.328620 0.558587
C68   C     C_3   0.365450 0.855039 0.375802 -0.017066
C69   C     C_3   0.234326 0.567572 0.804118 0.539839
C70   C     C_3   0.741534 0.937881 0.328379 0.558107
C71   C     C_3   0.734351 0.067557 0.804119 0.540175
C72   C     C_3   0.811833 0.532536 0.932411 0.845961
C73   C     C_3   0.811984 0.466479 0.441959 0.882725
C74   C     C_3   0.311796 0.032550 0.932427 0.846152
C75   C     C_3   0.311949 0.966498 0.441920 0.882618
C76   C     C_3   0.760482 0.564802 0.977199 -0.226751
C77   C     C_3   0.763700 0.437043 0.510646 -0.241496
C78   C     C_3   0.260543 0.064786 0.977944 -0.226266
C79   C     C_3   0.405446 0.169653 0.839643 -0.065451
C80   C     C_3   0.263635 0.937057 0.510517 -0.241336
C81   C     C_3   0.012012 0.282297 0.559610 0.945586
C82   C     C_3   0.988210 0.741607 0.110372 0.910423
C83   C     C_3   0.512264 0.782289 0.561604 0.941579
C84   C     C_3   0.488153 0.241682 0.110057 0.908890
C85   C     C_2   0.895942 0.379176 0.260208 -0.214215
C86   C     C_2   0.903629 0.622444 0.752547 -0.216446
C87   C     C_2   0.395917 0.879191 0.260244 -0.214558
C88   C     C_2   0.403586 0.122419 0.752652 -0.216251
C89   C     C_3   0.151890 0.758471 0.811592 -0.189093
C90   C     C_2   0.833043 0.310377 0.309350 -0.096056
C91   C     C_3   0.117845 0.798134 0.894170 -0.190827
C92   C     C_3   0.118968 0.850224 0.815223 -0.410295
C93   C     C_3   0.198858 0.270682 0.260572 -0.200700
C94   C     C_3   0.255927 0.296620 0.219740 -0.180721
C95   C     C_3   0.285074 0.264178 0.105378 -0.399076
C96   C     C_3   0.651914 0.258460 0.811590 -0.189101
C97   C     C_3   0.617879 0.298113 0.894242 -0.190695
C98   C     C_3   0.618972 0.350206 0.815308 -0.410565
C99   C     C_3   0.698503 0.770357 0.260958 -0.199441
C100  C     C_3   0.756031 0.795815 0.221058 -0.181714
F1    F     F_    0.051078 0.301926 0.696599 -0.725334
F2    F     F_    0.803272 0.455588 0.278574 -0.773862
F3    F     F_    0.307719 0.037331 0.768114 -0.788499
F4    F     F_    0.303251 0.955636 0.278505 -0.773811
F5    F     F_    0.995495 0.207453 0.396666 -0.728395
F6    F     F_    0.945375 0.821599 0.162824 -0.719414
F7    F     F_    0.497744 0.707740 0.396991 -0.729731
F8    F     F_    0.445476 0.321680 0.163353 -0.719642
F9    F     F_    0.058269 0.587966 0.866022 -0.736736
F10   F     F_    0.059475 0.411689 0.367231 -0.729410
F11   F     F_    0.558246 0.087982 0.866058 -0.736654
F12   F     F_    0.043497 0.714523 0.139087 -0.765936
F13   F     F_    0.559456 0.911686 0.367278 -0.729585
F14   F     F_    0.550620 0.802056 0.699503 -0.724124
F15   F     F_    0.543445 0.214576 0.137982 -0.766362
F16   F     F_    0.267182 0.432592 0.192242 -0.680081
F17   F     F_    0.255330 0.572019 0.660428 -0.675978
F18   F     F_    0.766967 0.932442 0.191837 -0.679807
F19   F     F_    0.755372 0.071988 0.660453 -0.675742
F20   F     F_    0.808017 0.537232 0.768240 -0.788759
H1    H     H_    0.275521 0.457349 0.426323 0.069666
H2    H     H_    0.858906 0.454013 0.506062 -0.042447
H3    H     H_    0.291344 0.303645 0.333008 0.147061
H4    H     H_    0.210889 0.231957 0.306187 0.102096
H5    H     H_    0.164495 0.263913 0.146176 0.148121
H6    H     H_    0.667555 0.363687 0.829314 0.139446
H7    H     H_    0.596888 0.348408 0.683542 0.139166
H8    H     H_    0.592933 0.377817 0.875506 0.151639
H9    H     H_    0.568899 0.286197 0.883213 0.124477
H10   H     H_    0.639622 0.301371 0.025822 0.139970
H11   H     H_    0.698399 0.272165 0.803951 0.095070
H12   H     H_    0.628246 0.256012 0.682387 0.130812
H13   H     H_    0.357393 0.046850 0.999763 -0.008540
H14   H     H_    0.798383 0.725971 0.160280 0.158937
H15   H     H_    0.750598 0.758219 0.987698 0.133508
H16   H     H_    0.826128 0.782888 0.080117 0.193958
H17   H     H_    0.742904 0.833247 0.163089 0.194124
H18   H     H_    0.791661 0.801968 0.334448 0.145995
H19   H     H_    0.709936 0.731513 0.306298 0.101875
H20   H     H_    0.664245 0.763905 0.146176 0.148314
H21   H     H_    0.358864 0.954017 0.506051 -0.042620
H22   H     H_    0.714353 0.549986 0.915481 0.107495
H23   H     H_    0.716394 0.445861 0.439479 0.112417
H24   H     H_    0.214359 0.050002 0.916513 0.107476
H25   H     H_    0.216339 0.945967 0.439548 0.112512
H26   H     H_    0.764336 0.604630 0.937182 0.074871
H27   H     H_    0.771775 0.395589 0.504188 0.025363
H28   H     H_    0.264336 0.104639 0.938092 0.075020
H29   H     H_    0.271956 0.551688 0.900558 0.058340
H30   H     H_    0.271605 0.895607 0.503717 0.025256
H31   H     H_    0.763751 0.563977 0.111124 0.097433
H32   H     H_    0.765913 0.447602 0.639739 0.116027
H33   H     H_    0.263983 0.063879 0.111932 0.097760
H34   H     H_    0.265915 0.947515 0.639698 0.115843
H35   H     H_    0.014425 0.306057 0.451719 -0.219833
H36   H     H_    0.971465 0.747452 0.977273 -0.197588
H37   H     H_    0.515225 0.805968 0.453950 -0.213377
H38   H     H_    0.471200 0.247634 0.977023 -0.196087
H39   H     H_    0.082362 0.230983 0.507105 -0.048300
H40   H     H_    0.775495 0.957244 0.425947 0.069687
H41   H     H_    0.033255 0.815062 0.125868 -0.038443
H42   H     H_    0.583703 0.730920 0.515812 -0.045684
H43   H     H_    0.533305 0.315098 0.125890 -0.038281
H44   H     H_    0.899661 0.229719 0.011965 0.072789
H45   H     H_    0.916140 0.781962 0.643905 0.077367
H46   H     H_    0.399819 0.729541 0.014631 0.072434
H47   H     H_    0.416137 0.281959 0.643889 0.077198
H48   H     H_    0.729406 0.247848 0.260238 0.086311
H49   H     H_    0.796230 0.792530 0.680930 0.083912
H50   H     H_    0.229286 0.747906 0.260289 0.086451
H51   H     H_    0.771968 0.051674 0.900592 0.058414
H52   H     H_    0.296348 0.292585 0.680914 0.083469
H53   H     H_    0.809402 0.341487 0.905447 0.096882
H54   H     H_    0.774316 0.635784 0.457904 0.067203
H55   H     H_    0.309442 0.841458 0.905497 0.096874
H56   H     H_    0.274419 0.135865 0.457603 0.067141
H57   H     H_    0.284158 0.746372 0.952130 0.082990
H58   H     H_    0.206614 0.205540 0.550994 0.087445
H59   H     H_    0.784185 0.246350 0.951932 0.082905
H60   H     H_    0.706513 0.705417 0.551657 0.087890
H61   H     H_    0.823111 0.281064 0.391266 0.086160
H62   H     H_    0.232003 0.399895 0.372934 -0.187432
H63   H     H_    0.850675 0.736359 0.855491 0.070090
H64   H     H_    0.322891 0.781209 0.391437 0.085723
H65   H     H_    0.350651 0.236346 0.855583 0.069828
H66   H     H_    0.210597 0.643618 0.261994 0.125230
H67   H     H_    0.214009 0.358525 0.762354 0.113995
H68   H     H_    0.710648 0.143587 0.261921 0.125372
H69   H     H_    0.713934 0.858481 0.762475 0.114808
H70   H     H_    0.945202 0.387294 0.290734 0.102152
H71   H     H_    0.940300 0.595247 0.795743 0.135659
H72   H     H_    0.445195 0.887236 0.290710 0.101462
H73   H     H_    0.222065 0.605838 0.842499 -0.148295
H74   H     H_    0.440171 0.095160 0.796068 0.135401
H75   H     H_    0.035022 0.205014 0.639543 0.037429
H76   H     H_    0.021028 0.791585 0.317277 0.048844
H77   H     H_    0.533952 0.704838 0.641746 0.037797
H78   H     H_    0.521181 0.291498 0.317327 0.049177
H79   H     H_    0.954105 0.309688 0.972278 0.075167
H80   H     H_    0.947082 0.695308 0.555559 0.043786
H81   H     H_    0.453900 0.809690 0.974145 0.073539
H82   H     H_    0.447097 0.195308 0.555690 0.043702
H83   H     H_    0.974266 0.287418 0.181264 -0.004885
H84   H     H_    0.731860 0.899830 0.372804 -0.186416
H85   H     H_    0.997022 0.720936 0.739185 -0.027208
H86   H     H_    0.474748 0.787208 0.182853 -0.004500
H87   H     H_    0.497052 0.220951 0.739272 -0.026967
H88   H     H_    0.950295 0.222143 0.869982 0.133710
H89   H     H_    0.928422 0.779293 0.438842 0.175565
H90   H     H_    0.449750 0.722333 0.870632 0.132687
H91   H     H_    0.428461 0.279292 0.438860 0.175842
H92   H     H_    0.973508 0.198036 0.075523 0.184061
H93   H     H_    0.986979 0.806986 0.599842 0.130215
H94   H     H_    0.473850 0.697928 0.075673 0.184366
H95   H     H_    0.722091 0.105828 0.842461 -0.148350
H96   H     H_    0.486989 0.306989 0.599915 0.130237
H97   H     H_    0.162989 0.473326 0.397290 -0.084547
H98   H     H_    0.161768 0.529846 0.894228 -0.085176
H99   H     H_    0.662971 0.973308 0.397323 -0.084235
H100  H     H_    0.661780 0.029844 0.894209 -0.085395
H101  H     H_    0.148341 0.448621 0.190211 0.031254
H102  H     H_    0.140948 0.550057 0.682569 0.054087
H103  H     H_    0.648218 0.948635 0.190196 0.031721
H104  H     H_    0.640972 0.050053 0.682549 0.053895
H105  H     H_    0.167555 0.863703 0.829330 0.139436
H106  H     H_    0.857350 0.546859 0.000089 -0.007808
H107  H     H_    0.096920 0.848420 0.683426 0.139117
H108  H     H_    0.092910 0.877838 0.875348 0.151665
H109  H     H_    0.068860 0.786226 0.883073 0.124302
H110  H     H_    0.139563 0.801397 0.025770 0.139970
H111  H     H_    0.198381 0.772168 0.803993 0.095158
H112  H     H_    0.128240 0.756015 0.682377 0.130837
H113  H     H_    0.300529 0.227265 0.163823 0.159408
H114  H     H_    0.251249 0.257416 0.989129 0.132913
H115  H     H_    0.325986 0.284194 0.078314 0.194115
H116  H     H_    0.242074 0.333671 0.159822 0.193696
O1    O     O_2   0.875320 0.428620 0.822840 -0.506217
O2    O     O_3   0.033110 0.720317 0.529896 -0.588271
O3    O     O_3   0.541709 0.777888 0.044000 -0.572467
O4    O     O_3   0.533114 0.220315 0.529930 -0.588463
O5    O     O_3   0.072510 0.524860 0.092920 -0.417828
O6    O     O_3   0.072510 0.475140 0.592920 -0.417234
O7    O     O_3   0.572510 0.024860 0.092920 -0.417892
O8    O     O_3   0.572510 0.975140 0.592920 -0.417201
O9    O     O_3   0.927380 0.474960 0.096800 -0.473658
O10   O     O_3   0.927380 0.525040 0.596800 -0.479111
O11   O     O_3   0.427380 0.974960 0.096800 -0.473632
O12   O     O_2   0.875320 0.571380 0.322840 -0.487648
O13   O     O_3   0.427380 0.025040 0.596800 -0.479290
O14   O     O_3   0.978260 0.384470 0.628120 -0.415624
O15   O     O_3   0.978260 0.615530 0.128120 -0.411177
O16   O     O_3   0.478260 0.884470 0.628120 -0.415601
O17   O     O_3   0.478260 0.115530 0.128120 -0.411103
O18   O     O_2   0.882579 0.340207 0.713190 -0.521842
O19   O     O_2   0.862145 0.642737 0.121402 -0.526538
O20   O     O_2   0.382658 0.840134 0.713294 -0.521077
O21   O     O_2   0.362165 0.142787 0.121540 -0.526482
O22   O     O_3   0.801057 0.481758 0.965999 -0.599101
O23   O     O_2   0.375320 0.928620 0.822840 -0.506440
O24   O     O_3   0.800935 0.518318 0.457755 -0.593388
O25   O     O_3   0.301051 0.981753 0.965914 -0.599102
O26   O     O_3   0.300922 0.018337 0.457792 -0.593357
O27   O     O_3   0.951023 0.279525 0.585087 -0.617222
O28   O     O_3   0.943658 0.716120 0.179391 -0.600950
O29   O     O_3   0.450941 0.779477 0.584527 -0.618783
O30   O     O_3   0.443730 0.216136 0.179437 -0.600997
O31   O     O_2   0.124210 0.428020 0.866900 -0.445053
O32   O     O_2   0.124210 0.571980 0.366900 -0.445961
O33   O     O_2   0.624210 0.928020 0.866900 -0.444719
O34   O     O_2   0.375320 0.071380 0.322840 -0.487703
O35   O     O_2   0.624210 0.071980 0.366900 -0.446003
O36   O     O_3   0.021040 0.384370 0.061630 -0.444394
O37   O     O_3   0.021040 0.615630 0.561630 -0.434304
O38   O     O_3   0.521040 0.884370 0.061630 -0.443993
O39   O     O_3   0.521040 0.115630 0.561630 -0.434245
O40   O     O_2   0.121819 0.343646 0.988733 -0.427776
O41   O     O_2   0.121977 0.658162 0.496149 -0.439134
O42   O     O_2   0.621933 0.843693 0.989218 -0.427320
O43   O     O_2   0.621970 0.158163 0.496112 -0.439404
O44   O     O_3   0.195040 0.484923 0.731805 -0.639717
O45   O     O_3   0.196313 0.516437 0.229818 -0.631380
O46   O     O_3   0.695050 0.984912 0.731798 -0.639467
O47   O     O_3   0.696291 0.016410 0.229836 -0.631354
O48   O     O_3   0.041781 0.277830 0.044314 -0.573931
P1    P     P_3+3 0.869190 0.445350 0.992760 1.075638
P2    P     P_3+3 0.073700 0.665107 0.604322 1.041002
P3    P     P_3+3 0.576488 0.836453 0.104729 1.058353
P4    P     P_3+3 0.573704 0.165103 0.604319 1.040765
P5    P     P_3+3 0.920981 0.660899 0.065753 1.016528
P6    P     P_3+3 0.918736 0.340674 0.574212 0.993717
P7    P     P_3+3 0.421000 0.160920 0.065810 1.016568
P8    P     P_3+3 0.418743 0.840661 0.574163 0.993381
P9    P     P_3+3 0.869190 0.554650 0.492760 1.073046
P10   P     P_3+3 0.369190 0.945350 0.992760 1.075467
P11   P     P_3+3 0.369190 0.054650 0.492760 1.072831
P12   P     P_3+3 0.130420 0.444720 0.696970 1.101169
P13   P     P_3+3 0.130420 0.555280 0.196970 1.100477
P14   P     P_3+3 0.630420 0.944720 0.696970 1.101437
P15   P     P_3+3 0.630420 0.055280 0.196970 1.100476
P16   P     P_3+3 0.076504 0.336450 0.104609 1.056962

loop_
_geom_bond_atom_site_label_1
_geom_bond_atom_site_label_2
_ccdc_geom_bond_type
C81   O27   S    
C18   P11   S    
C90   H61   S    
C82   O28   S    
C59   H88   S    
Ba2   O37   S    
O38   P3    S    
Ba4   O17   S    
C77   H32   S    
C9    C14   A    
O8    P14   S    
C66   H104  S    
C64   H102  S    
C6    C90   A    
C62   H91   S    
C5    C9    A    
C80   H30   S    
C86   H71   S    
C8    C12   A    
C77   H23   S    
C54   F9    S    
C47   C53   D    
C12   H55   S    
C24   H42   S    
C76   H22   S    
C29   C55   D    
C30   C56   D    
C27   C58   S    
C5    H65   S    
C24   F7    S    
O3    P3    S    
C11   C16   A    
C43   H81   S    
C83   F14   S    
C2    C7    A    
C68   C87   A    
C30   P15   S    
C31   P14   S    
Ba4   P15   S    
C46   P6    S    
O27   P6    S    
Ba3   O13   S    
C38   C51   S    
C74   C78   S    
C21   C96   S    
C71   H95   S    
C40   C53   S    
C41   H79   S    
O9    P1    S    
Ba1   P1    S    
C65   C70   S    
C84   F15   S    
C68   P8    S    
C5    C79   A    
C53   H49   S    
C94   H3    S    
C69   F17   S    
C72   H106  S    
Ba3   O8    S    
Ba1   O14   S    
C72   O22   S    
O7    P15   S    
C10   C15   A    
C64   H98   S    
C98   H6    S    
C98   H8    S    
C99   H19   S    
C97   H9    S    
O43   P4    D    
C19   C37   A    
C61   H46   S    
C50   H50   S    
C31   C36   D    
C34   C39   S    
Ba1   O5    S    
O34   P11   D    
C70   H40   S    
C84   H38   S    
C75   F4    S    
C23   P2    S    
O1    P1    D    
C94   C95   S    
C35   H78   S    
C42   C60   S    
C100  H17   S    
C6    C45   S    
C12   C17   A    
Ba1   P12   S    
C21   C39   A    
C93   C94   S    
C22   C40   A    
O25   P10   S    
C41   O48   S    
C60   H93   S    
C32   H66   S    
C24   H77   S    
C28   C32   D    
C2    C57   A    
C73   F2    S    
Ba2   O5    S    
O31   P12   D    
C75   C80   S    
C27   P3    S    
C60   H45   S    
O23   P10   D    
C63   H97   S    
C58   F13   S    
Ba3   O16   S    
C95   H114  S    
C59   H92   S    
C1    C81   S    
C80   H25   S    
C14   H56   S    
C89   C91   S    
C7    C11   A    
C93   H4    S    
C88   H74   S    
C36   H69   S    
C89   H112  S    
O11   P10   S    
C72   F20   S    
C62   H47   S    
O33   P14   D    
C6    C10   A    
Ba2   O9    S    
C80   H34   S    
C46   C90   A    
C77   H27   S    
C19   C89   S    
O45   P13   S    
C65   H99   S    
Ba4   O7    S    
C4    C8    A    
C24   C83   S    
C16   P9    S    
C92   H105  S    
O21   P7    D    
Ba2   P9    S    
Ba3   Ba4   S    
C74   H13   S    
C57   C86   A    
C76   H31   S    
O5    P13   S    
C60   H89   S    
C33   H67   S    
O26   P11   S    
C14   C18   A    
Ba4   O35   S    
O12   P9    D    
C72   C76   S    
C78   H24   S    
C96   H11   S    
Ba1   O31   S    
Ba2   O32   S    
Ba3   O23   S    
O22   P1    S    
C49   H58   S    
C96   C97   S    
O13   P11   S    
C51   H52   S    
C25   P16   S    
C36   C40   S    
O39   P4    S    
C66   C71   S    
C18   C88   A    
C44   C62   S    
C96   H12   S    
C64   O44   S    
C97   C98   S    
C20   C38   A    
C28   C54   D    
C44   O4    S    
Ba2   O15   S    
C1    H75   S    
C4    H64   S    
C3    H16   S    
O2    P2    S    
C94   H116  S    
C63   H101  S    
C75   O26   S    
C92   H107  S    
C20   C25   S    
Ba1   O36   S    
C62   H96   S    
C45   H59   S    
O20   P8    D    
C66   H100  S    
C91   H110  S    
Ba3   P14   S    
O41   P2    D    
C95   H115  S    
C42   H80   S    
C52   H48   S    
C32   C37   S    
Ba3   O7    S    
C35   C84   S    
C8    C48   S    
Ba3   O33   S    
C9    C49   S    
C4    C68   A    
C71   H51   S    
C20   C93   S    
C74   O25   S    
C98   H7    S    
C47   H60   S    
O16   P8    S    
C2    H63   S    
O44   P12   S    
C29   C33   D    
C13   C82   S    
C74   F3    S    
Ba2   O12   S    
C22   C99   S    
C28   P13   S    
C46   C85   A    
C44   H87   S    
C73   C77   S    
O10   P9    S    
C48   H57   S    
C84   O30   S    
C35   F8    S    
C65   O47   S    
C57   P5    S    
C100  H18   S    
C42   O2    S    
C1    H39   S    
C17   C87   A    
C21   C26   S    
O46   P14   S    
Ba4   O11   S    
C23   C54   S    
O32   P13   D    
C3    H14   S    
C42   H85   S    
Ba4   O34   S    
Ba2   O6    S    
C61   H90   S    
C13   H41   S    
C43   O3    S    
C87   H72   S    
C1    F5    S    
C55   F10   S    
C85   H70   S    
C63   C67   S    
Ba2   P13   S    
O17   P7    S    
C95   H113  S    
O42   P3    D    
O19   P5    D    
C15   P1    S    
C99   C100  S    
Ba4   O39   S    
C67   H1    S    
C81   H35   S    
C82   H36   S    
C78   H28   S    
C73   H2    S    
C99   H20   S    
C73   O24   S    
C91   C92   S    
O15   P5    S    
C13   F6    S    
C75   H21   S    
C70   H84   S    
C97   H10   S    
C89   H111  S    
C76   H26   S    
C79   C88   A    
C67   F16   S    
C71   F19   S    
Ba1   O6    S    
C61   H94   S    
O35   P15   D    
C13   H76   S    
C82   F12   S    
Ba1   Ba2   S    
O28   P5    S    
Ba4   O8    S    
O29   P8    S    
O30   P7    S    
C29   P12   S    
C79   P7    S    
O4    P4    S    
C25   C55   S    
C66   O46   S    
C26   C56   S    
Ba4   P11   S    
C19   C23   S    
C26   P4    S    
C22   C27   S    
C41   H83   S    
O47   P15   S    
O48   P16   S    
C81   F1    S    
C65   H103  S    
C48   C50   D    
C33   C38   S    
C49   C51   D    
C17   P10   S    
O40   P16   D    
O24   P9    S    
C78   H33   S    
Ba1   O10   S    
Ba3   O38   S    
O37   P2    S    
C64   C69   S    
C16   C86   A    
C41   C59   S    
C69   H73   S    
Ba3   P10   S    
C15   C85   A    
O18   P6    D    
O6    P12   S    
O36   P16   S    
Ba1   O1    S    
C59   H44   S    
C83   H37   S    
C34   H68   S    
C3    C100  S    
C11   H54   S    
C67   H62   S    
C69   H29   S    
C70   F18   S    
C30   C34   D    
O14   P6    S    
C45   C52   D    
C93   H5    S    
C63   O45   S    
C83   O29   S    
C3    H15   S    
C31   C58   D    
C92   H108  S    
C35   H43   S    
C37   C50   S    
C10   H53   S    
C7    C47   S    
C39   C52   S    
C43   H86   S    
C44   H82   S    
C56   F11   S    
C91   H109  S    
C43   C61   S    
