data_mof_unit_36830.cif
_audit_creation_date              2012-12-10T18:50:02-0500
_audit_creation_method            fapswitch 2.2
_symmetry_space_group_name_H-M    P1
_symmetry_Int_Tables_number       1
_space_group_crystal_system       triclinic
_cell_length_a                    10.706578
_cell_length_b                    9.90141
_cell_length_c                    10.646007
_cell_angle_alpha                 89.820062
_cell_angle_beta                  91.331638
_cell_angle_gamma                 89.994487
_cell_volume                      1128.27514985

loop_
_atom_site_label
_atom_site_type_symbol
_atom_type_description
_atom_site_fract_x
_atom_site_fract_y
_atom_site_fract_z
_atom_type_partial_charge
C1    C     C_R   0.260059 0.500003 0.499903 0.903428
C2    C     C_R   0.583881 0.927427 0.573995 0.033676
C3    C     C_R   0.418978 0.928632 0.424047 -0.087420
C4    C     C_R   0.421045 0.071951 0.421866 -0.091217
C5    C     C_R   0.499676 0.499936 0.257961 0.885466
C6    C     C_R   0.739894 0.499999 0.500364 0.885688
C7    C     C_R   0.499913 0.499693 0.742203 0.837527
C8    C     C_3   0.618206 0.574896 0.074405 -0.159636
C9    C     C_3   0.381178 0.575897 0.068611 -0.168503
C10   C     C_3   0.616485 0.575597 0.929546 -0.466212
C11   C     C_3   0.379448 0.569753 0.923743 -0.444775
C12   C     C_3   0.502846 0.352193 0.929208 -0.378542
C13   C     C_3   0.498568 0.351657 0.071420 -0.420268
C14   C     C_3   0.499399 0.499520 0.121343 -0.008849
C15   C     C_3   0.499581 0.499354 0.878621 0.133073
C16   C     C_2   0.739201 0.515381 0.125967 0.410563
C17   C     C_2   0.259929 0.522552 0.119823 0.397211
C18   C     C_2   0.648880 0.142635 0.681997 0.431235
C19   C     C_2   0.686659 0.854185 0.640103 0.495486
C20   C     C_R   0.064573 0.379746 0.525487 -0.189967
C21   C     C_R   0.063332 0.620279 0.475025 -0.110762
C22   C     C_R   0.936654 0.379745 0.525689 -0.191918
C23   C     C_R   0.935437 0.620280 0.475284 -0.077637
C24   C     C_R   0.872455 0.500027 0.500611 -0.023660
C25   C     C_R   0.127522 0.500010 0.500143 -0.030473
C26   C     C_R   0.577790 0.071490 0.580801 0.047999
H1    H     H_    0.353836 0.874919 0.363164 0.154549
H2    H     H_    0.413563 0.296942 0.101479 0.176009
H3    H     H_    0.590406 0.301992 0.900407 0.214942
H4    H     H_    0.422320 0.292979 0.890594 0.192173
H5    H     H_    0.113767 0.286268 0.545819 0.168745
H6    H     H_    0.111508 0.713672 0.454209 0.168836
H7    H     H_    0.888538 0.286215 0.545989 0.164822
H8    H     H_    0.886271 0.713602 0.454362 0.191727
H9    H     H_    0.766462 0.413412 0.101675 0.079240
H10   H     H_    0.228952 0.420750 0.098307 0.072687
H11   H     H_    0.685732 0.242235 0.669123 0.108339
H12   H     H_    0.357769 0.126100 0.359035 0.141178
H13   H     H_    0.670493 0.760689 0.688555 0.093791
H14   H     H_    0.613905 0.682011 0.106188 0.182830
H15   H     H_    0.389060 0.684201 0.096225 0.174918
H16   H     H_    0.614650 0.682203 0.896130 0.186378
H17   H     H_    0.373238 0.674388 0.885439 0.188841
H18   H     H_    0.702419 0.528640 0.891776 0.155668
H19   H     H_    0.296088 0.514131 0.886475 0.157947
H20   H     H_    0.579632 0.293357 0.110073 0.191669
N1    N     N_R   0.499970 0.857200 0.499970 -0.138916
N2    N     N_R   0.499970 0.142800 0.499970 -0.135956
O1    O     O_R   0.316750 0.614620 0.499990 -0.616880
O2    O     O_2   0.195097 0.594149 0.184937 -0.561890
O3    O     O_2   0.665279 0.089841 0.784910 -0.602437
O4    O     O_2   0.793243 0.898076 0.639238 -0.589590
O5    O     O_R   0.316750 0.385380 0.499990 -0.629502
O6    O     O_R   0.499970 0.614670 0.314790 -0.608995
O7    O     O_R   0.499970 0.385330 0.314790 -0.627394
O8    O     O_R   0.683220 0.614710 0.500010 -0.636773
O9    O     O_R   0.683220 0.385290 0.500010 -0.656292
O10   O     O_R   0.500010 0.614660 0.685200 -0.654878
O11   O     O_R   0.500010 0.385340 0.685200 -0.651595
O12   O     O_2   0.808302 0.582366 0.193970 -0.556204
Zn1   Zn    Zn3+2 0.499980 0.653120 0.500000 0.956530
Zn2   Zn    Zn3+2 0.499980 0.346880 0.500000 0.933971

loop_
_geom_bond_atom_site_label_1
_geom_bond_atom_site_label_2
_ccdc_geom_bond_type
C17   O2    D    
N1    Zn1   S    
C8    C14   S    
C23   C24   A    
C13   H2    S    
C11   H17   S    
O6    Zn1   S    
C12   H3    S    
C10   H16   S    
O5    Zn2   S    
C7    O10   A    
C9    H15   S    
C18   C26   S    
C12   C15   S    
C26   N2    A    
C9    C14   S    
C23   H8    S    
C6    C24   S    
O10   Zn1   S    
C3    H1    S    
O9    Zn2   S    
C8    C16   S    
C13   C14   S    
C6    O8    A    
C1    C25   S    
C9    C11   S    
C6    O9    A    
C5    C14   S    
C19   H13   S    
C3    N1    A    
C9    C17   S    
C17   H10   S    
C18   H11   S    
C20   C22   A    
C18   O3    D    
C11   C15   S    
C10   C15   S    
C21   C23   A    
C16   H9    S    
C16   O12   D    
C13   H20   S    
C2    N1    A    
C21   H6    S    
C22   C24   A    
C11   H19   S    
O1    Zn1   S    
C20   C25   A    
C10   H18   S    
C3    C4    A    
O7    Zn2   S    
C5    O6    A    
C12   C13   S    
C8    C10   S    
C4    N2    A    
C7    O11   A    
C22   H7    S    
C1    O5    A    
O8    Zn1   S    
O11   Zn2   S    
C21   C25   A    
C7    C15   S    
C8    H14   S    
C12   H4    S    
C2    C19   S    
N2    Zn2   S    
C19   O4    D    
C5    O7    A    
C4    H12   S    
C2    C26   A    
C20   H5    S    
C1    O1    A    
