data_mof_unit_12592.cif
_audit_creation_date              2012-12-10T20:28:39-0500
_audit_creation_method            fapswitch 2.2
_symmetry_space_group_name_H-M    P1
_symmetry_Int_Tables_number       1
_space_group_crystal_system       triclinic
_cell_length_a                    10.701104
_cell_length_b                    10.670338
_cell_length_c                    9.849768
_cell_angle_alpha                 90.168927
_cell_angle_beta                  92.444585
_cell_angle_gamma                 88.911065
_cell_volume                      1123.46077734

loop_
_atom_site_label
_atom_site_type_symbol
_atom_type_description
_atom_site_fract_x
_atom_site_fract_y
_atom_site_fract_z
_atom_type_partial_charge
C1    C     C_R   0.503686 0.259762 0.499736 0.887703
C2    C     C_R   0.064214 0.575061 0.600889 0.051276
C3    C     C_R   0.126260 0.523166 0.490346 -0.095096
C4    C     C_R   0.060921 0.458500 0.387582 -0.163261
C5    C     C_R   0.934343 0.443893 0.395899 -0.144697
C6    C     C_R   0.875086 0.482501 0.513146 -0.107364
C7    C     C_R   0.565851 0.064083 0.614248 0.104287
C8    C     C_R   0.525202 0.128160 0.497205 -0.104168
C9    C     C_R   0.514119 0.063606 0.373224 -0.182866
C10   C     C_R   0.517773 0.934430 0.373518 -0.147465
C11   C     C_R   0.532330 0.870502 0.497872 -0.098468
C12   C     C_R   0.259927 0.510108 0.497049 0.903801
C13   C     C_R   0.571109 0.936021 0.614756 0.144428
C14   C     C_3   0.535428 0.930392 0.760007 -0.369979
C15   C     C_3   0.526523 0.072584 0.757516 -0.478660
C16   C     C_R   0.440490 0.408003 0.068403 0.023153
C17   C     C_R   0.567091 0.584560 0.075386 0.557455
C18   C     C_R   0.568518 0.583352 0.931407 0.522298
C19   C     C_R   0.440066 0.408300 0.925633 -0.008213
C20   C     C_3   0.303925 0.380823 0.913416 -0.480420
C21   C     C_3   0.304334 0.381046 0.067487 0.484804
C22   C     C_R   0.509298 0.739547 0.500255 0.935656
C23   C     C_R   0.740711 0.491998 0.503842 0.878823
C24   C     C_R   0.116735 0.666557 0.688562 0.129050
C25   C     C_R   0.072643 0.681809 0.818669 -0.230398
C26   C     C_R   0.971630 0.612379 0.857764 0.203490
C27   C     C_R   0.903681 0.542515 0.760434 -0.140858
C28   C     C_R   0.945274 0.531894 0.625882 0.021657
H1    H     H_    0.107611 0.418102 0.301933 0.189683
H2    H     H_    0.613959 0.895778 0.827987 0.268087
H3    H     H_    0.429263 0.109681 0.765441 0.228057
H4    H     H_    0.597959 0.118034 0.825462 0.216422
H5    H     H_    0.247253 0.459237 0.867233 0.179037
H6    H     H_    0.286155 0.287352 0.867200 0.229869
H7    H     H_    0.246742 0.457611 0.111340 0.079892
H8    H     H_    0.115115 0.749030 0.888094 0.187621
H9    H     H_    0.824275 0.492337 0.794273 0.195585
H10   H     H_    0.882851 0.401020 0.311318 0.179262
H11   H     H_    0.492387 0.111469 0.277972 0.213779
H12   H     H_    0.497786 0.886090 0.278370 0.211645
H13   H     H_    0.444645 0.885286 0.775035 0.233018
N1    N     N_R   0.499160 0.499140 0.142800 -0.224766
N2    N     N_R   0.499160 0.499180 0.857150 -0.178135
O1    O     O_R   0.500020 0.316790 0.614690 -0.618450
O2    O     O_R   0.500000 0.316760 0.385350 -0.605045
O3    O     O_R   0.316770 0.500020 0.614690 -0.613109
O4    O     O_R   0.316760 0.499980 0.385350 -0.620143
O5    O     O_R   0.500000 0.683240 0.614650 -0.568253
O6    O     O_R   0.499980 0.683210 0.385310 -0.579954
O7    O     O_R   0.683240 0.500020 0.614650 -0.612304
O8    O     O_R   0.683230 0.499980 0.385310 -0.572003
Zn1   Zn    Zn3+2 0.500010 0.500020 0.653130 1.002355
Zn2   Zn    Zn3+2 0.499990 0.499980 0.346870 1.029758
F1    F     F_    0.630779 0.673367 0.146588 -0.602170
F2    F     F_    0.637902 0.667339 0.866750 -0.640984
F3    F     F_    0.283149 0.263625 0.120193 -0.643071
I1    I     I_    0.218403 0.815356 0.610725 -0.383504
I2    I     I_    0.919159 0.620796 0.061122 -0.278147

loop_
_geom_bond_atom_site_label_1
_geom_bond_atom_site_label_2
_ccdc_geom_bond_type
C21   F3    S    
O7    Zn1   S    
C15   H3    S    
C16   C21   S    
C21   H7    S    
C16   N1    A    
C1    C8    S    
C11   C13   A    
C9    C10   A    
C11   C22   S    
C23   O8    A    
C19   C20   S    
C7    C13   A    
O4    Zn2   S    
C20   H6    S    
O1    Zn1   S    
C7    C15   S    
C17   C18   A    
O2    Zn2   S    
C15   H4    S    
C18   N2    A    
C24   C25   A    
C4    C5    A    
C26   I2    S    
C1    O2    A    
C26   C27   A    
C18   F2    S    
C27   H9    S    
C12   O4    A    
O6    Zn2   S    
C6    C23   S    
C12   O3    A    
C14   H2    S    
C22   O5    A    
C2    C3    A    
C14   H13   S    
N1    Zn2   S    
C2    C24   A    
C5    C6    A    
N2    Zn1   S    
C7    C8    A    
C10   C11   A    
C20   H5    S    
C25   H8    S    
C3    C4    A    
O3    Zn1   S    
O5    Zn1   S    
C20   C21   S    
C10   H12   S    
C17   N1    A    
C22   O6    A    
C27   C28   A    
C14   C15   S    
C24   I1    S    
C23   O7    A    
C2    C28   A    
C3    C12   S    
C1    O1    A    
C13   C14   S    
C25   C26   A    
C5    H10   S    
C17   F1    S    
C9    H11   S    
C6    C28   A    
C4    H1    S    
C19   N2    A    
C8    C9    A    
O8    Zn2   S    
C16   C19   A    
