data_mof_unit_59920.cif
_audit_creation_date              2012-12-10T17:35:32-0500
_audit_creation_method            fapswitch 2.2
_symmetry_space_group_name_H-M    P1
_symmetry_Int_Tables_number       1
_space_group_crystal_system       triclinic
_cell_length_a                    10.742752
_cell_length_b                    12.427987
_cell_length_c                    13.219905
_cell_angle_alpha                 116.925401
_cell_angle_beta                  76.824165
_cell_angle_gamma                 101.710913
_cell_volume                      1522.09214645

loop_
_atom_site_label
_atom_site_type_symbol
_atom_type_description
_atom_site_fract_x
_atom_site_fract_y
_atom_site_fract_z
_atom_type_partial_charge
C1    C     C_R   0.511418 0.854900 0.286628 0.765216
C2    C     C_3   0.121624 0.998266 0.498688 0.156099
C3    C     C_3   0.041421 0.010950 0.616399 -0.393743
C4    C     C_3   0.070256 0.879245 0.399591 0.018390
C5    C     C_R   0.327072 0.277492 0.022867 -0.192742
C6    C     C_R   0.454345 0.228379 0.834920 -0.049515
C7    C     C_R   0.596133 0.813750 0.084035 -0.196856
C8    C     C_R   0.621883 0.734509 0.968941 -0.146483
C9    C     C_R   0.576644 0.611803 0.931788 -0.190636
C10   C     C_R   0.499543 0.566015 0.009286 0.079214
C11   C     C_R   0.461162 0.649857 0.124053 0.083674
C12   C     C_R   0.739729 0.000013 0.499755 0.751962
C13   C     C_R   0.457880 0.440016 0.976360 0.073131
C14   C     C_R   0.369202 0.401376 0.054344 0.169896
C15   C     C_R   0.321095 0.486878 0.161854 -0.248492
C16   C     C_R   0.364903 0.609189 0.195644 -0.206992
C17   C     C_R   0.502388 0.350811 0.868387 -0.263702
C18   C     C_R   0.368749 0.191346 0.913265 -0.199389
C19   C     C_R   0.518876 0.772483 0.163294 -0.104535
C20   C     C_R   0.706043 0.355929 0.335956 -0.284806
C21   C     C_R   0.328688 0.766372 0.649768 0.090163
C22   C     C_R   0.298079 0.680706 0.693743 -0.269627
C23   C     C_R   0.480942 0.145008 0.713380 0.792665
C24   C     C_R   0.365072 0.579644 0.644561 -0.208173
C25   C     C_R   0.460549 0.558447 0.545980 0.014897
C26   C     C_R   0.492906 0.654298 0.508966 0.290831
C27   C     C_R   0.529230 0.451286 0.484913 -0.085114
C28   C     C_R   0.633455 0.452609 0.397065 0.102617
C29   C     C_R   0.666042 0.549875 0.367684 -0.270129
C30   C     C_R   0.596122 0.647304 0.421074 -0.186014
C31   C     C_R   0.500299 0.340692 0.501035 0.287926
C32   C     C_R   0.677626 0.254063 0.357221 0.326695
C33   C     C_R   0.260168 0.999498 0.499475 0.774652
C34   C     C_3   0.960185 0.107707 0.478062 -0.389198
C35   C     C_3   0.102187 0.108148 0.479804 -0.429920
C36   C     C_3   0.897652 0.009662 0.615725 -0.374406
C37   C     C_3   0.925261 0.879982 0.401640 -0.429061
C38   C     C_3   0.877810 0.999551 0.498932 0.150654
Cu1   Cu    Cu3+1 0.529690 0.098270 0.475420 0.933855
Cu2   Cu    Cu3+1 0.470310 0.901730 0.524580 0.923179
H1    H     H_    0.926767 0.195310 0.545226 0.178008
H2    H     H_    0.841495 0.931612 0.631672 0.175718
H3    H     H_    0.053815 0.936764 0.636984 0.169147
H4    H     H_    0.330114 0.096885 0.888368 0.144185
H5    H     H_    0.249134 0.459139 0.220362 0.144998
H6    H     H_    0.259055 0.247657 0.082009 0.130137
H7    H     H_    0.573789 0.374022 0.807462 0.144200
H8    H     H_    0.639535 0.907173 0.111408 0.164281
H9    H     H_    0.601294 0.555981 0.841330 0.124972
H10   H     H_    0.680753 0.767749 0.908457 0.139953
H11   H     H_    0.950102 0.100422 0.393256 0.164853
H12   H     H_    0.319293 0.671243 0.277586 0.198252
H13   H     H_    0.746028 0.549973 0.300596 0.144689
H14   H     H_    0.786262 0.358813 0.269903 0.151509
H15   H     H_    0.278211 0.846170 0.689859 0.120378
H16   H     H_    0.341668 0.525236 0.690911 0.142571
H17   H     H_    0.224448 0.694243 0.768247 0.140997
H18   H     H_    0.627679 0.716759 0.391773 0.202989
H19   H     H_    0.160145 0.105591 0.397502 0.174658
H20   H     H_    0.134629 0.194417 0.550540 0.183143
H21   H     H_    0.861980 0.094187 0.686858 0.153645
H22   H     H_    0.075788 0.097693 0.685971 0.152038
H23   H     H_    0.866592 0.800810 0.413931 0.169171
H24   H     H_    0.910940 0.871109 0.317279 0.132121
H25   H     H_    0.124348 0.878146 0.316509 0.125656
N1    N     N_R   0.574690 0.246280 0.438200 -0.186492
N2    N     N_R   0.426100 0.754320 0.561190 -0.209187
O1    O     O_R   0.537340 0.972510 0.318130 -0.589540
O2    O     O_R   0.487200 0.806530 0.359650 -0.597813
O3    O     O_R   0.707380 0.082980 0.479220 -0.605101
O4    O     O_R   0.657240 0.917000 0.520740 -0.601359
O5    O     O_R   0.512800 0.193470 0.640350 -0.567548
O6    O     O_R   0.462660 0.027490 0.681870 -0.590837
O7    O     O_R   0.342760 0.083000 0.479260 -0.560634
O8    O     O_R   0.292620 0.917020 0.520780 -0.571021
N3    N     N_3   0.092190 0.769438 0.405377 -0.596749
H26   H     H_    0.030214 0.758246 0.474271 0.231729
H27   H     H_    0.069330 0.694112 0.330516 0.206410
N4    N     N_3   0.759205 0.159613 0.289422 -0.613823
H28   H     H_    0.729095 0.082524 0.303042 0.272647
H29   H     H_    0.850590 0.192571 0.313313 0.184286
N5    N     N_3   0.390624 0.320528 0.576915 -0.536376
H30   H     H_    0.308326 0.339890 0.561802 0.187804
H31   H     H_    0.407925 0.367935 0.661668 0.205153

loop_
_geom_bond_atom_site_label_1
_geom_bond_atom_site_label_2
_ccdc_geom_bond_type
C2    C35   S    
C31   N1    A    
Cu2   O4    S    
Cu1   O1    S    
C36   H2    S    
C22   H17   S    
C21   H15   S    
C7    C8    A    
C11   C19   A    
C34   H11   S    
C29   C30   A    
C31   N5    S    
C26   N2    A    
C28   C29   A    
N3    H27   S    
C4    H25   S    
C15   C16   A    
C1    O1    A    
Cu2   O6    S    
C35   H19   S    
C34   C35   S    
Cu1   O7    S    
C33   O8    A    
C8    C9    A    
Cu2   N2    S    
Cu1   O5    S    
C9    C10   A    
C21   C22   A    
C21   N2    A    
C34   H1    S    
C23   O6    A    
C37   H23   S    
C6    C18   A    
C1    C19   S    
Cu2   O2    S    
C27   C31   A    
C17   H7    S    
C9    H9    S    
C24   C25   A    
C20   H14   S    
Cu1   Cu2   S    
N4    H29   S    
C5    C18   A    
C20   C28   A    
C25   C26   A    
C1    O2    A    
C35   H20   S    
C2    C4    S    
C37   C38   S    
C18   H4    S    
C11   C16   A    
C3    H3    S    
N3    H26   S    
C5    C14   A    
C2    C33   S    
C12   O4    A    
C26   C30   A    
C7    C19   A    
Cu1   N1    S    
C22   C24   A    
C24   H16   S    
C15   H5    S    
C36   H21   S    
C8    H10   S    
C37   H24   S    
C32   N1    A    
C20   C32   A    
C3    H22   S    
C6    C17   A    
C12   O3    A    
C34   C38   S    
C23   O5    A    
C16   H12   S    
C10   C13   A    
C25   C27   A    
C5    H6    S    
N5    H31   S    
Cu2   O8    S    
C13   C17   A    
C7    H8    S    
C36   C38   S    
C2    C3    S    
C32   N4    S    
C29   H13   S    
C3    C36   S    
C6    C23   S    
C30   H18   S    
Cu1   O3    S    
C12   C38   S    
C4    N3    S    
C10   C11   A    
N4    H28   S    
C33   O7    A    
C4    C37   S    
N5    H30   S    
C27   C28   A    
C14   C15   A    
C13   C14   A    
