data_mof_unit_10324.cif
_audit_creation_date              2013-03-05T16:33:18-0500
_audit_creation_method            fapswitch 2.2
_symmetry_space_group_name_H-M    P1
_symmetry_Int_Tables_number       1
_space_group_crystal_system       triclinic
_cell_length_a                    14.919516
_cell_length_b                    14.222416
_cell_length_c                    23.440109
_cell_angle_alpha                 89.995059
_cell_angle_beta                  90.34981
_cell_angle_gamma                 90.029456
_cell_volume                      4973.69999369

loop_
_atom_site_label
_atom_site_type_symbol
_atom_site_description
_atom_site_fract_x
_atom_site_fract_y
_atom_site_fract_z
_atom_type_partial_charge
O1    O     O_R   0.369060 0.579480 0.500000 -0.571899
O2    O     O_R   0.630940 0.420520 0.500000 -0.633192
O3    O     O_R   0.630940 0.579480 0.500000 -0.570704
O4    O     O_R   0.369060 0.420520 0.500000 -0.631596
C1    C     C_R   0.327714 0.500170 0.501585 0.915900
C2    C     C_R   0.672095 0.500094 0.500609 0.906810
O5    O     O_R   0.499970 0.579500 0.416160 -0.643876
O6    O     O_R   0.500030 0.420500 0.583840 -0.539904
O7    O     O_R   0.500030 0.579500 0.583840 -0.648463
O8    O     O_R   0.499970 0.420500 0.416160 -0.542460
C3    C     C_R   0.499352 0.500287 0.389437 0.904824
C4    C     C_R   0.500552 0.500223 0.610788 0.891639
Zn1   Zn    Zn3+2 0.500000 0.606140 0.500000 0.990011
Zn2   Zn    Zn3+2 0.500000 0.393860 0.500000 1.019492
C5    C     C_R   0.571361 0.517099 0.880120 0.534850
C6    C     C_R   0.420699 0.533392 0.120527 0.534755
N1    N     N_R   0.490592 0.521112 0.852570 -0.342518
N2    N     N_R   0.500541 0.519459 0.148014 -0.342202
C7    C     C_R   0.411424 0.527446 0.881294 0.530443
C8    C     C_R   0.579022 0.507592 0.119137 0.533327
C9    C     C_R   0.411489 0.533532 0.941128 -0.136596
C10   C     C_R   0.580159 0.514253 0.059382 -0.137702
C11   C     C_R   0.494609 0.526200 0.970276 -0.081281
C12   C     C_R   0.497439 0.525644 0.030282 -0.081388
C13   C     C_R   0.574911 0.517482 0.939518 -0.057614
C14   C     C_R   0.417201 0.534586 0.061085 -0.057187
C15   C     C_R   0.331699 0.545465 0.972723 0.504202
C16   C     C_R   0.660624 0.508962 0.027832 0.505454
C17   C     C_R   0.335282 0.544096 0.032162 -0.253854
C18   C     C_R   0.656898 0.508737 0.968425 -0.255501
O9    O     O_2   0.647950 0.512474 0.849843 -0.597802
O10   O     O_2   0.344985 0.545923 0.150870 -0.595496
O11   O     O_2   0.333584 0.527082 0.851715 -0.525609
O12   O     O_2   0.654977 0.488842 0.148514 -0.521675
H1    H     H_    0.273132 0.549671 0.055559 0.197862
H2    H     H_    0.718840 0.500841 0.945043 0.198408
C19   C     C_R   0.542252 0.586596 0.241469 0.254885
C20   C     C_R   0.470236 0.595631 0.758548 0.255144
C21   C     C_R   0.543424 0.577854 0.300534 -0.337243
C22   C     C_R   0.471711 0.587218 0.699514 -0.333249
H3    H     H_    0.577365 0.631075 0.325819 0.186579
H4    H     H_    0.453692 0.648013 0.674020 0.186982
C23   C     C_R   0.499532 0.502860 0.327348 -0.183173
C24   C     C_R   0.498046 0.502851 0.673246 -0.184449
C25   C     C_R   0.451777 0.436091 0.295041 0.495029
C26   C     C_R   0.523771 0.424893 0.706721 0.490170
C27   C     C_R   0.458536 0.439672 0.235441 -0.297486
C28   C     C_R   0.512939 0.430923 0.766102 -0.308169
H5    H     H_    0.428839 0.385605 0.208993 0.155501
H6    H     H_    0.525571 0.371230 0.793470 0.151079
C29   C     C_R   0.501377 0.515232 0.208813 0.257380
C30   C     C_R   0.489459 0.515946 0.791837 0.265371
C31   C     C_R   0.091924 0.583793 0.497589 0.459502
C32   C     C_R   0.909881 0.434535 0.479393 0.511551
C33   C     C_R   0.901042 0.564688 0.547996 0.501214
C34   C     C_R   0.096284 0.425436 0.538579 0.504968
C35   C     C_R   0.184206 0.582345 0.492943 -0.300254
C36   C     C_R   0.817321 0.433611 0.475792 -0.357975
C37   C     C_R   0.809056 0.566267 0.540949 -0.283854
C38   C     C_R   0.188448 0.424128 0.531943 -0.341960
H7    H     H_    0.217964 0.643773 0.476339 0.221160
H8    H     H_    0.784364 0.382342 0.448619 0.173672
H9    H     H_    0.769930 0.617264 0.564324 0.199063
H10   H     H_    0.225848 0.363311 0.546045 0.165385
C39   C     C_R   0.231906 0.501482 0.507985 -0.181046
C40   C     C_R   0.767696 0.500487 0.505339 -0.182401
C41   C     C_R   0.048004 0.503992 0.519297 -0.089823
C42   C     C_R   0.951611 0.499596 0.516572 -0.094559
C43   C     C_R   0.450920 0.104765 0.459496 -0.372779
C44   C     C_R   0.570623 0.894549 0.524755 -0.367872
C45   C     C_R   0.550983 0.104813 0.539490 -0.377489
C46   C     C_R   0.430306 0.894490 0.474136 -0.381181
H11   H     H_    0.415611 0.069557 0.425323 0.163941
H12   H     H_    0.628491 0.929708 0.542549 0.156976
H13   H     H_    0.588157 0.069769 0.572930 0.159762
H14   H     H_    0.372763 0.929540 0.455684 0.159747
C47   C     C_R   0.445383 0.203562 0.463167 0.546492
C48   C     C_R   0.567647 0.795578 0.526722 0.544992
C49   C     C_R   0.555837 0.203691 0.536010 0.560530
C50   C     C_R   0.432876 0.795266 0.472646 0.543897
N3    N     N_R   0.500000 0.252470 0.500000 -0.186419
N4    N     N_R   0.500000 0.747530 0.500000 -0.170065
C51   C     C_R   0.500692 0.052901 0.499574 0.072708
C52   C     C_R   0.500539 0.946341 0.499454 0.080904
O13   O     O_3   0.248789 0.553200 0.946349 -0.601769
C53   C     C_3   0.229993 0.648947 0.934569 0.149116
H15   H     H_    0.192720 0.651510 0.893413 0.190355
H16   H     H_    0.291229 0.693136 0.928651 0.108461
C54   C     C_3   0.170537 0.690915 0.981163 -0.402901
H17   H     H_    0.111188 0.644965 0.987749 0.245596
H18   H     H_    0.208743 0.695184 0.021870 0.222097
C55   C     C_3   0.138695 0.789439 0.965166 -0.946917
H19   H     H_    0.196992 0.836708 0.958475 0.268320
H20   H     H_    0.097210 0.818482 0.000159 0.272168
H21   H     H_    0.097402 0.787047 0.925596 0.264435
O14   O     O_3   0.743296 0.498734 0.054204 -0.600284
C56   C     C_3   0.780203 0.588419 0.066372 0.147662
H22   H     H_    0.818553 0.582186 0.106981 0.190739
H23   H     H_    0.728673 0.644133 0.073556 0.108122
C57   C     C_3   0.844835 0.618541 0.019176 -0.399763
H24   H     H_    0.893453 0.561013 0.010884 0.246566
H25   H     H_    0.806690 0.632676 0.979277 0.220104
C58   C     C_3   0.896273 0.707311 0.035697 -0.945294
H26   H     H_    0.849002 0.765919 0.044168 0.266714
H27   H     H_    0.941020 0.728088 0.000182 0.275087
H28   H     H_    0.937960 0.694397 0.074335 0.267065
O15   O     O_3   0.386097 0.250744 0.427932 -0.580351
C59   C     C_3   0.298756 0.246012 0.451495 0.152188
H29   H     H_    0.264405 0.312761 0.440539 0.178816
H30   H     H_    0.298884 0.240753 0.499051 0.110888
C60   C     C_3   0.243086 0.165373 0.425999 -0.465622
H31   H     H_    0.244285 0.169026 0.378702 0.228850
H32   H     H_    0.270531 0.096528 0.439552 0.219250
C61   C     C_3   0.146269 0.170038 0.446408 -0.878249
H33   H     H_    0.143867 0.161516 0.493446 0.274068
H34   H     H_    0.106596 0.112747 0.426290 0.260977
H35   H     H_    0.115736 0.238442 0.434795 0.277950
O16   O     O_3   0.636506 0.746675 0.552768 -0.623575
C62   C     C_3   0.626510 0.748715 0.612845 0.101547
H36   H     H_    0.632153 0.675226 0.628499 0.171815
H37   H     H_    0.560286 0.775782 0.627755 0.115055
C63   C     C_3   0.702291 0.806044 0.640055 -0.393097
H38   H     H_    0.767816 0.779624 0.624537 0.242352
H39   H     H_    0.695996 0.881025 0.627572 0.215282
C64   C     C_3   0.700038 0.799261 0.705032 -0.951709
H40   H     H_    0.636490 0.829243 0.721444 0.265040
H41   H     H_    0.757056 0.839465 0.723483 0.268919
H42   H     H_    0.705694 0.724829 0.718968 0.274359
O17   O     O_3   0.617748 0.251004 0.569213 -0.595751
C65   C     C_3   0.703146 0.245444 0.542982 0.134997
H43   H     H_    0.738197 0.312359 0.551896 0.190124
H44   H     H_    0.699909 0.239330 0.495455 0.118104
C66   C     C_3   0.760345 0.165694 0.567901 -0.474541
H45   H     H_    0.757386 0.167098 0.615227 0.228841
H46   H     H_    0.734980 0.096773 0.552695 0.220201
C67   C     C_3   0.857816 0.174909 0.549312 -0.868794
H47   H     H_    0.862349 0.175394 0.502021 0.282113
H48   H     H_    0.896803 0.114219 0.565867 0.258804
H49   H     H_    0.887506 0.240856 0.566394 0.289059
O18   O     O_3   0.363269 0.745650 0.447808 -0.625369
C68   C     C_3   0.362869 0.757414 0.387781 0.081672
H50   H     H_    0.382511 0.689533 0.368077 0.183806
H51   H     H_    0.410207 0.812096 0.371631 0.113765
C69   C     C_3   0.267976 0.781971 0.367909 -0.372053
H52   H     H_    0.220045 0.729219 0.384708 0.225856
H53   H     H_    0.249128 0.852132 0.384924 0.219389
C70   C     C_3   0.260948 0.783290 0.302956 -0.935476
H54   H     H_    0.308038 0.835880 0.284942 0.266555
H55   H     H_    0.191632 0.802484 0.289998 0.266282
H56   H     H_    0.276693 0.712704 0.285327 0.275581
C71   C     C_3   0.583779 0.672910 0.215299 -0.869355
H57   H     H_    0.657278 0.672228 0.222996 0.247871
H58   H     H_    0.571247 0.678212 0.168764 0.230321
H59   H     H_    0.554948 0.736821 0.235287 0.227872
C72   C     C_3   0.449357 0.690333 0.784034 -0.875211
H60   H     H_    0.495516 0.743909 0.766166 0.226917
H61   H     H_    0.379350 0.710227 0.773192 0.246305
H62   H     H_    0.457379 0.691829 0.831049 0.232946
O19   O     O_3   0.399719 0.369496 0.323150 -0.578423
C73   C     C_3   0.312804 0.359133 0.298708 0.145220
H63   H     H_    0.275879 0.307054 0.324757 0.162915
H64   H     H_    0.315643 0.327584 0.255483 0.090948
C74   C     C_3   0.257143 0.450538 0.297726 -0.413161
H65   H     H_    0.289586 0.504600 0.270609 0.243272
H66   H     H_    0.190615 0.435016 0.278329 0.193382
C75   C     C_3   0.242569 0.490521 0.357273 -0.833498
H67   H     H_    0.205354 0.439497 0.383982 0.235320
H68   H     H_    0.202617 0.556032 0.353999 0.231377
H69   H     H_    0.307594 0.507609 0.377919 0.270655
O20   O     O_3   0.558068 0.345181 0.679913 -0.584409
C76   C     C_3   0.631371 0.303571 0.709638 0.159903
H70   H     H_    0.654754 0.242866 0.684005 0.178914
H71   H     H_    0.610124 0.271956 0.750627 0.077316
C77   C     C_3   0.711729 0.370458 0.718689 -0.402445
H72   H     H_    0.691774 0.433781 0.743130 0.252451
H73   H     H_    0.763572 0.333513 0.744502 0.188892
C78   C     C_3   0.753603 0.400918 0.662519 -0.838710
H74   H     H_    0.788259 0.340405 0.642690 0.246294
H75   H     H_    0.804231 0.456155 0.670846 0.235337
H76   H     H_    0.702099 0.429708 0.632917 0.282796
O21   O     O_3   0.045761 0.665023 0.483433 -0.593200
C79   C     C_3   0.023131 0.663099 0.424868 0.059149
H77   H     H_    0.963702 0.617127 0.418218 0.146428
H78   H     H_    0.079523 0.637498 0.398037 0.110362
C80   C     C_3   0.999112 0.762391 0.405394 -0.291092
H79   H     H_    0.941965 0.788973 0.430974 0.239039
H80   H     H_    0.057524 0.809643 0.412448 0.220899
C81   C     C_3   0.973387 0.763978 0.342283 -0.975095
H81   H     H_    0.030130 0.738882 0.315868 0.265669
H82   H     H_    0.956531 0.836963 0.329297 0.269417
H83   H     H_    0.914080 0.718394 0.334435 0.270771
O22   O     O_3   0.957471 0.366855 0.449597 -0.619048
C82   C     C_3   0.994835 0.405606 0.399346 0.063311
H84   H     H_    0.042257 0.353109 0.381857 0.166949
H85   H     H_    0.035553 0.469065 0.408215 0.107507
C83   C     C_3   0.923825 0.425846 0.353225 -0.385551
H86   H     H_    0.884444 0.360991 0.344586 0.239299
H87   H     H_    0.877350 0.481655 0.367923 0.212189
C84   C     C_3   0.967524 0.459155 0.298093 -0.924315
H88   H     H_    0.006780 0.524381 0.305906 0.259274
H89   H     H_    0.914865 0.474347 0.265712 0.278925
H90   H     H_    0.012646 0.403908 0.281061 0.261896
O23   O     O_3   0.941724 0.631419 0.582439 -0.599386
C85   C     C_3   0.957903 0.593727 0.637437 0.076045
H91   H     H_    0.028761 0.608948 0.649021 0.170682
H92   H     H_    0.949422 0.515903 0.640423 0.094026
C86   C     C_3   0.896590 0.641764 0.680574 -0.369023
H93   H     H_    0.907288 0.719061 0.678941 0.242157
H94   H     H_    0.825581 0.626963 0.669258 0.216397
C87   C     C_3   0.914867 0.607211 0.741167 -0.924707
H95   H     H_    0.904004 0.530108 0.744113 0.265412
H96   H     H_    0.868530 0.642767 0.771126 0.276991
H97   H     H_    0.984908 0.623754 0.754007 0.264582
O24   O     O_3   0.052696 0.348031 0.561028 -0.601310
C88   C     C_3   0.059022 0.349249 0.621424 0.079993
H98   H     H_    0.990140 0.344765 0.639003 0.144365
H99   H     H_    0.089205 0.414786 0.639626 0.075174
C89   C     C_3   0.113595 0.265069 0.642871 -0.341024
H100  H     H_    0.181282 0.265919 0.623456 0.209690
H101  H     H_    0.122115 0.270925 0.689876 0.184901
C90   C     C_3   0.067740 0.171723 0.629311 -0.814099
H102  H     H_    0.001043 0.168496 0.650023 0.244961
H103  H     H_    0.109414 0.112875 0.645721 0.238374
H104  H     H_    0.059440 0.163076 0.582539 0.284820

loop_
_geom_bond_atom_site_label_1
_geom_bond_atom_site_label_2
_geom_bond_distance
_ccdc_geom_bond_type
C36   H8    1.083990 S    
O5    Zn1   2.001441 S    
C45   H13   1.079515 S    
C76   H70   1.109533 S    
C33   C37   1.381485 A    
C44   C48   1.409043 A    
C87   H95   1.110626 S    
C43   C47   1.410266 A    
C70   H54   1.111017 S    
C25   O19   1.392778 S    
O23   C85   1.415543 S    
O3    C2    1.285537 A    
C45   C49   1.410491 A    
C61   H33   1.109997 S    
C85   H92   1.116225 S    
C27   H5    1.080888 S    
O21   C79   1.411948 S    
O5    C3    1.289076 A    
C76   H71   1.108730 S    
C32   O22   1.387567 S    
C89   C90   1.525802 S    
C81   H83   1.111093 S    
O1    C1    1.286002 A    
C70   H55   1.110269 S    
C12   C14   1.407578 A    
C90   H104  1.109402 S    
C67   H49   1.110730 S    
C37   C40   1.394997 A    
C19   C29   1.407766 A    
C53   H16   1.117964 S    
C80   H80   1.111805 S    
C32   C42   1.412881 A    
O20   C76   1.422327 S    
C34   C38   1.384879 A    
C49   O17   1.379265 S    
C84   H90   1.110787 S    
C56   H22   1.111167 S    
C83   H86   1.111331 S    
C46   C50   1.412183 A    
C59   H29   1.108468 S    
C5    O9    1.350445 S    
C81   H82   1.110248 S    
C71   H59   1.110709 S    
C15   O13   1.383922 S    
O7    Zn1   2.001372 S    
O16   C62   1.417286 S    
C57   H24   1.111629 S    
C79   H77   1.111614 S    
C36   C40   1.392705 A    
C80   H79   1.111759 S    
C60   H32   1.107282 S    
C74   H65   1.110310 S    
C82   H85   1.106694 S    
C44   H12   1.079173 S    
C86   C87   1.525926 S    
C71   H57   1.110282 S    
C43   H11   1.079120 S    
C47   N3    1.372653 A    
C54   H18   1.110125 S    
C44   C52   1.407418 A    
C34   O24   1.383886 S    
C88   H99   1.118455 S    
O3    Zn1   1.990209 S    
C46   H14   1.080969 S    
C8    O12   1.349146 S    
C78   H76   1.110556 S    
C28   H6    1.079996 S    
C9    C15   1.416121 A    
C84   H88   1.111434 S    
C10   C16   1.415888 A    
C72   H62   1.107997 S    
C75   H68   1.108736 S    
O19   C73   1.422047 S    
C75   H67   1.109328 S    
O2    C2    1.287325 A    
C25   C27   1.402196 A    
C20   C72   1.506942 S    
C19   C71   1.506945 S    
C69   C70   1.525589 S    
O2    Zn2   1.989827 S    
N1    C30   1.425470 S    
C57   H25   1.110209 S    
C56   H23   1.117811 S    
C24   C26   1.410292 A    
N2    C29   1.426374 S    
C33   C42   1.405857 A    
C45   C51   1.405147 A    
C62   H37   1.118563 S    
C6    C14   1.394088 A    
C76   C77   1.543730 S    
C26   C28   1.404862 A    
C86   H93   1.111495 S    
C73   C74   1.543045 S    
C47   O15   1.380723 S    
C74   C75   1.524073 S    
O18   C68   1.416919 S    
C69   H53   1.111579 S    
O8    Zn2   2.001377 S    
C88   C89   1.531324 S    
C49   N3    1.371003 A    
C31   C35   1.381936 A    
O24   C88   1.418347 S    
C69   H52   1.110029 S    
C80   C81   1.526211 S    
C27   C29   1.398932 A    
C78   H75   1.106090 S    
O13   C53   1.417262 S    
Zn1   N4    2.010907 S    
C57   C58   1.525894 S    
C38   H10   1.080280 S    
C41   C42   1.440501 S    
C81   H81   1.110954 S    
C79   C80   1.526237 S    
C73   H64   1.109191 S    
C58   H28   1.110858 S    
C65   H44   1.118165 S    
C88   H98   1.111346 S    
C90   H102  1.110793 S    
C43   C51   1.403573 A    
C64   H41   1.110280 S    
C31   O21   1.384593 S    
C66   C67   1.526214 S    
C48   N4    1.367319 A    
C89   H101  1.111482 S    
C51   C52   1.515543 S    
C85   C86   1.529044 S    
C2    C40   1.429956 S    
O6    C4    1.297975 A    
C82   C83   1.536315 S    
C33   O23   1.383656 S    
O14   C56   1.417386 S    
C70   H56   1.111421 S    
C1    C39   1.438299 S    
C55   H20   1.110397 S    
C58   H27   1.110213 S    
C77   H73   1.111360 S    
C54   C55   1.525852 S    
C3    C23   1.455853 S    
C72   H61   1.110226 S    
C23   C25   1.405591 A    
C77   C78   1.523525 S    
C46   C52   1.409144 A    
C75   H69   1.108372 S    
C83   H87   1.110426 S    
C8    C10   1.404065 A    
C38   C39   1.396318 A    
C78   H74   1.107959 S    
C87   H96   1.110471 S    
C9    C11   1.416108 A    
C7    O11   1.348927 S    
C66   H45   1.110637 S    
C10   C12   1.415801 A    
C68   C69   1.528319 S    
C65   C66   1.533207 S    
O1    Zn1   1.989828 S    
C55   H21   1.110872 S    
O15   C59   1.419970 S    
C63   H39   1.109663 S    
C87   H97   1.110787 S    
C58   H26   1.110850 S    
C56   C57   1.532883 S    
C67   H48   1.109794 S    
C84   H89   1.110363 S    
O17   C65   1.420327 S    
C32   C36   1.383066 A    
C62   C63   1.529785 S    
C13   C18   1.400311 A    
C5    N1    1.364898 A    
O6    Zn2   2.001436 S    
C60   H31   1.110110 S    
C48   O16   1.380182 S    
C53   H15   1.111165 S    
C6    N2    1.365367 A    
C35   C39   1.396843 A    
C67   H47   1.111005 S    
C53   C54   1.532476 S    
C61   H34   1.110320 S    
C62   H36   1.110774 S    
C35   H7    1.081803 S    
C6    O10   1.350443 S    
C34   C41   1.402913 A    
C17   H1    1.083129 S    
C37   H9    1.082335 S    
C59   C60   1.534753 S    
C18   H2    1.083204 S    
C16   O14   1.384007 S    
O22   C82   1.417555 S    
C63   C64   1.526695 S    
C68   H51   1.117851 S    
C65   H43   1.105018 S    
C54   H17   1.111764 S    
C86   H94   1.110565 S    
C90   H103  1.110232 S    
C50   O18   1.381048 S    
C68   H50   1.110529 S    
C73   H63   1.108392 S    
C20   C22   1.389233 A    
C89   H100  1.110236 S    
C64   H40   1.110677 S    
C15   C17   1.394067 A    
C64   H42   1.110929 S    
O4    C1    1.290796 A    
C16   C18   1.393283 A    
C55   H19   1.110888 S    
N1    C7    1.366165 A    
C50   N4    1.366666 A    
C59   H30   1.117199 S    
C60   C61   1.525867 S    
N2    C8    1.366592 A    
C71   H58   1.108125 S    
O4    Zn2   1.990211 S    
C31   C41   1.406986 A    
O7    C4    1.292362 A    
C79   H78   1.114811 S    
C61   H35   1.107685 S    
C5    C13   1.392974 A    
O8    C3    1.296123 A    
C11   C12   1.406940 A    
C26   O20   1.395206 S    
C22   C24   1.406000 A    
C11   C13   1.407575 A    
C20   C30   1.404643 A    
C85   H91   1.111073 S    
C21   H3    1.084737 S    
C14   C17   1.400611 A    
C19   C21   1.390051 A    
C82   H84   1.109157 S    
C21   C23   1.402031 A    
C72   H60   1.110507 S    
C66   H46   1.108669 S    
C22   H4    1.084060 S    
C4    C24   1.465204 S    
C74   H66   1.111272 S    
Zn2   N3    2.010907 S    
C63   H38   1.110843 S    
C28   C30   1.397143 A    
C83   C84   1.526246 S    
C7    C9    1.405178 A    
C77   H72   1.109240 S    
