data_mof_unit_28577.cif
_audit_creation_date              2013-03-05T15:50:58-0500
_audit_creation_method            fapswitch 2.2
_symmetry_space_group_name_H-M    P1
_symmetry_Int_Tables_number       1
_space_group_crystal_system       triclinic
_cell_length_a                    6.950825
_cell_length_b                    17.494636
_cell_length_c                    19.469199
_cell_angle_alpha                 109.509919
_cell_angle_beta                  89.510891
_cell_angle_gamma                 89.999229
_cell_volume                      2231.4719894

loop_
_atom_site_label
_atom_site_type_symbol
_atom_site_description
_atom_site_fract_x
_atom_site_fract_y
_atom_site_fract_z
_atom_type_partial_charge
O1    O     O_R   0.505810 0.439670 0.562310 -0.605407
O2    O     O_R   0.169070 0.404920 0.411210 -0.583832
O3    O     O_R   0.005550 0.560330 0.437690 -0.584980
C1    C     C_R   0.340276 0.381608 0.383324 1.099785
O4    O     O_R   0.175650 0.430000 0.560110 -0.543991
O5    O     O_R   0.012170 0.585580 0.587650 -0.573447
C2    C     C_R   0.344206 0.414956 0.581901 1.032595
O6    O     O_R   0.499180 0.414420 0.412350 -0.569914
O7    O     O_3   0.341430 0.551020 0.508860 -0.238783
V1    V     V_3+5 0.063930 0.490540 0.498360 1.379825
O8    O     O_R   0.682850 0.595080 0.588790 -0.578758
C3    C     C_R   0.851424 0.618153 0.616804 1.047641
O9    O     O_R   0.676280 0.570000 0.439890 -0.555512
C4    C     C_R   0.844926 0.584675 0.417993 1.091079
V2    V     V_3+5 0.564760 0.509460 0.501640 1.380442
O10   O     O_3   0.837130 0.448980 0.491140 -0.245134
C5    C     C_R   0.770161 0.880324 0.184204 0.354822
C6    C     C_R   0.913199 0.862835 0.128827 -0.447491
C7    C     C_R   0.042046 0.796872 0.119443 0.324992
C8    C     C_R   0.019183 0.745279 0.162165 -0.154698
C9    C     C_R   0.882610 0.766334 0.220137 0.028029
C10   C     C_R   0.756845 0.832986 0.230279 0.015743
C11   C     C_R   0.128440 0.672873 0.149051 0.340069
C12   C     C_R   0.121398 0.631006 0.198845 -0.174683
C13   C     C_R   0.997779 0.654873 0.259615 -0.072426
C14   C     C_R   0.871812 0.720817 0.268632 0.044920
C15   C     C_R   0.734402 0.741303 0.325907 0.006199
C16   C     C_R   0.608312 0.806407 0.333635 -0.097965
C17   C     C_R   0.621009 0.851952 0.287472 -0.103243
C18   C     C_R   0.991097 0.610988 0.308949 0.367747
C19   C     C_R   0.853627 0.631476 0.366488 -0.426244
C20   C     C_R   0.724315 0.696542 0.374333 0.298422
H1    H     H_    0.206965 0.576363 0.186897 0.224325
H2    H     H_    0.498719 0.823369 0.375859 0.190525
H3    H     H_    0.523250 0.902699 0.297788 0.184916
C21   C     C_3   0.717101 0.788732 0.768529 -0.118986
C22   C     C_3   0.834029 0.777997 0.698467 0.306395
C23   C     C_3   0.864703 0.687632 0.687446 -0.405322
C24   C     C_3   0.747643 0.697408 0.758438 -0.187083
C25   C     C_3   0.935534 0.720813 0.802539 0.293185
C26   C     C_3   0.050172 0.710560 0.732475 0.370057
C27   C     C_3   0.022163 0.801516 0.742355 -0.310579
C28   C     C_3   0.904742 0.811215 0.813296 -0.368009
H4    H     H_    0.636279 0.655594 0.766273 0.213457
H5    H     H_    0.132969 0.843653 0.734603 0.184947
C29   C     C_3   0.472602 0.230771 0.303467 0.327138
C30   C     C_3   0.308254 0.180934 0.258194 -0.173718
C31   C     C_3   0.407119 0.186398 0.188266 -0.215631
C32   C     C_3   0.574862 0.235172 0.233607 -0.274959
C33   C     C_3   0.458686 0.313642 0.242797 0.376462
C34   C     C_3   0.292507 0.265502 0.196327 -0.226974
C35   C     C_3   0.198340 0.260485 0.267377 -0.104589
C36   C     C_3   0.362079 0.310393 0.313390 -0.396093
H6    H     H_    0.721685 0.217820 0.212107 0.154914
H7    H     H_    0.217760 0.280075 0.152050 0.180271
C37   C     C_R   0.264341 0.120004 0.818742 -0.192612
C38   C     C_R   0.416558 0.132117 0.867742 -0.131859
C39   C     C_R   0.555421 0.190269 0.869356 -0.107579
C40   C     C_R   0.538586 0.239428 0.825222 0.011312
C41   C     C_R   0.386715 0.225338 0.773865 0.120288
C42   C     C_R   0.249922 0.164046 0.769861 0.124829
C43   C     C_R   0.671755 0.301853 0.830869 0.302420
C44   C     C_R   0.655152 0.348316 0.785408 -0.255896
C45   C     C_R   0.509795 0.334359 0.732544 0.035104
C46   C     C_R   0.372593 0.272458 0.726927 0.051040
C47   C     C_R   0.222559 0.257679 0.674834 -0.052248
C48   C     C_R   0.081159 0.197560 0.673321 -0.153125
C49   C     C_R   0.097527 0.149924 0.719460 -0.138024
C50   C     C_R   0.496867 0.382720 0.686950 -0.079164
C51   C     C_R   0.353019 0.366549 0.632743 -0.315033
C52   C     C_R   0.221867 0.302130 0.624885 0.300753
H8    H     H_    0.157907 0.075150 0.819228 0.098931
H9    H     H_    0.674578 0.197607 0.906326 0.163330
H10   H     H_    0.757115 0.397029 0.793759 0.223508
O11   O     O_R   0.271890 0.085690 0.087580 -0.586058
O12   O     O_R   0.595690 0.070020 0.939870 -0.618569
O13   O     O_R   0.758900 0.914390 0.912370 -0.618626
C53   C     C_R   0.427145 0.084283 0.917788 0.910886
O14   O     O_R   0.602020 0.095100 0.088770 -0.585055
O15   O     O_R   0.765280 0.939660 0.062330 -0.563461
C54   C     C_R   0.430656 0.117440 0.117210 1.055691
O16   O     O_R   0.265520 0.060430 0.937620 -0.611053
O17   O     O_3   0.429560 0.949050 0.991100 -0.224742
V3    V     V_3+5 0.707160 0.009450 0.001650 1.259866
O18   O     O_R   0.094540 0.929890 0.060190 -0.546884
C55   C     C_R   0.925470 0.913882 0.080891 1.147837
O19   O     O_R   0.088200 0.904800 0.911290 -0.561932
C56   C     C_R   0.919362 0.881253 0.883587 1.021396
V4    V     V_3+5 0.206300 0.990390 0.998440 1.308751
O20   O     O_3   0.934030 0.050940 0.008900 -0.300100
N1    N     N_R   0.646555 0.949780 0.196830 0.229023
O21   O     O_R   0.719940 0.021864 0.212394 -0.361565
O22   O     O_R   0.461709 0.940630 0.188036 -0.394414
C57   C     C_2   0.529961 0.832885 0.790490 0.735951
H11   H     H_    0.500966 0.887354 0.777467 -0.033060
O23   O     O_2   0.413635 0.810042 0.826647 -0.548218
N2    N     N_R   0.985065 0.689257 0.860487 0.268812
O24   O     O_R   0.861206 0.694923 0.912433 -0.311488
O25   O     O_R   0.148503 0.652703 0.859386 -0.241777
N3    N     N_R   0.231036 0.666667 0.711024 0.254458
O26   O     O_R   0.246438 0.593685 0.713762 -0.411533
O27   O     O_R   0.352386 0.690268 0.671089 -0.383754
C58   C     C_2   0.223937 0.106483 0.267919 0.761353
H12   H     H_    0.257869 0.090757 0.315806 0.059508
O28   O     O_2   0.112938 0.064358 0.222976 -0.551445
N4    N     N_R   0.563626 0.209417 0.361913 0.268553
O29   O     O_R   0.646710 0.139221 0.347794 -0.290535
O30   O     O_R   0.552882 0.258033 0.428980 -0.338925
N5    N     N_R   0.538175 0.386686 0.233606 0.255404
O31   O     O_R   0.481549 0.409964 0.180209 -0.307381
O32   O     O_R   0.660206 0.430760 0.280353 -0.377663
N6    N     N_R   0.203558 0.785953 0.070387 0.267143
O33   O     O_R   0.177459 0.773442 0.001471 -0.286347
O34   O     O_R   0.377941 0.787012 0.094418 -0.333638
C59   C     C_2   0.997930 0.280664 0.293061 0.597451
H13   H     H_    0.915501 0.321213 0.273211 0.067235
O35   O     O_2   0.934144 0.258410 0.341689 -0.501128
N7    N     N_R   0.822266 0.321063 0.884049 0.240443
O36   O     O_R   0.779668 0.338925 0.952853 -0.331210
O37   O     O_R   0.994893 0.336128 0.865641 -0.368777
C60   C     C_2   0.631158 0.451677 0.696188 0.602607
H14   H     H_    0.574129 0.511524 0.703484 0.037768
O38   O     O_2   0.805058 0.441053 0.691102 -0.569648
N8    N     N_R   0.109658 0.274616 0.559614 0.216253
O39   O     O_R   0.946733 0.309282 0.555192 -0.333625
O40   O     O_R   0.173729 0.215684 0.503583 -0.326988
C61   C     C_2   0.908883 0.186085 0.626639 0.765397
H15   H     H_    0.808764 0.235817 0.634472 0.022411
O41   O     O_2   0.878628 0.121108 0.579219 -0.484564
C62   C     C_2   0.955264 0.084428 0.714839 0.597702
H16   H     H_    0.004580 0.024876 0.712871 0.030697
O42   O     O_2   0.782475 0.096790 0.714571 -0.583004
N9    N     N_R   0.231679 0.635469 0.082032 0.269905
O43   O     O_R   0.140659 0.616522 0.020494 -0.242047
O44   O     O_R   0.402380 0.605319 0.083076 -0.296292
N10   N     N_R   0.120892 0.544193 0.299388 0.238690
O45   O     O_R   0.055183 0.470726 0.282607 -0.398864
O46   O     O_R   0.305670 0.556246 0.304050 -0.338540
N11   N     N_R   0.588960 0.720164 0.433824 0.233798
O47   O     O_R   0.421469 0.685404 0.426460 -0.333722
O48   O     O_R   0.613951 0.788063 0.486739 -0.295172
N12   N     N_R   0.785188 0.809251 0.640342 0.254653
O49   O     O_R   0.627497 0.850320 0.643584 -0.337877
O50   O     O_R   0.907446 0.801068 0.587417 -0.336391

loop_
_geom_bond_atom_site_label_1
_geom_bond_atom_site_label_2
_geom_bond_distance
_ccdc_geom_bond_type
C9    C14   1.425530 A    
C37   C42   1.414484 A    
C10   C17   1.405954 A    
C1    C36   1.514086 S    
C26   C27   1.549803 S    
C62   O42   1.220707 D    
C7    C8    1.425113 A    
C5    N1    1.439417 S    
C4    C19   1.492287 S    
O15   V3    2.005292 S    
O12   V3    2.009264 S    
C2    C51   1.503897 S    
N6    O34   1.300893 A    
N2    O24   1.300771 A    
C19   C20   1.417196 A    
C7    N6    1.438343 S    
C37   C38   1.398811 A    
C29   C32   1.553873 S    
C14   C15   1.413865 A    
C43   C44   1.392755 A    
O16   V4    2.008434 S    
C28   C56   1.505620 S    
C16   C17   1.388307 A    
O12   C53   1.303766 A    
N5    O32   1.298773 A    
O5    C3    1.291673 A    
C23   C24   1.557099 S    
N4    O29   1.299604 A    
V2    O10   2.143448 S    
C31   C54   1.509079 S    
C6    C7    1.422513 A    
C22   C27   1.547167 S    
N7    O36   1.301290 A    
O15   C55   1.299788 A    
C58   H12   1.084250 S    
O8    V2    2.030413 S    
C31   C34   1.557946 S    
O17   V3    2.178019 S    
O13   C56   1.290889 A    
C59   O35   1.218013 D    
C11   C12   1.397206 A    
C51   C52   1.418369 A    
O1    V2    2.002220 S    
O7    V1    2.178097 S    
C1    O6    1.289502 A    
C47   C48   1.432784 A    
C16   H2    1.081886 S    
C40   C41   1.424170 A    
O9    C4    1.298603 A    
C3    C23   1.504355 S    
O14   V3    1.984309 S    
C50   C51   1.418504 A    
V3    O20   1.723050 S    
C43   N7    1.437185 S    
N6    O33   1.299639 A    
N2    O25   1.300148 A    
C5    C6    1.416287 A    
C25   C28   1.539130 S    
O17   V4    1.696715 S    
C33   C36   1.542568 S    
C30   C58   1.496220 S    
C22   N12   1.454195 S    
C11   N9    1.435056 S    
C48   C49   1.419912 A    
C52   N8    1.436407 S    
C12   C13   1.401830 A    
C23   C26   1.541368 S    
N10   O46   1.300568 A    
C24   C25   1.547518 S    
O4    C2    1.305747 A    
O18   V4    2.000767 S    
O11   C54   1.286863 A    
O13   V3    1.993717 S    
C37   H8    1.080751 S    
C39   C40   1.409595 A    
O18   C55   1.299699 A    
C33   N5    1.456482 S    
C34   C35   1.554096 S    
C41   C42   1.416121 A    
C27   H5    1.109825 S    
O2    C1    1.310835 A    
C61   O41   1.221111 D    
C47   C52   1.433749 A    
C22   C23   1.537337 S    
C48   C61   1.482222 S    
N1    O22   1.300451 A    
C53   O16   1.298288 A    
C30   C31   1.551084 S    
C8    C11   1.423769 A    
C50   C60   1.488939 S    
N11   O47   1.300136 A    
N3    O27   1.299886 A    
C33   C34   1.539798 S    
C26   N3    1.456471 S    
C58   O28   1.218550 D    
C6    C55   1.493702 S    
C45   C50   1.419460 A    
C57   O23   1.219507 D    
C60   H14   1.083160 S    
C24   H4    1.109103 S    
O3    C4    1.300518 A    
C20   N11   1.434966 S    
C25   C26   1.531622 S    
C41   C46   1.424446 A    
C32   C33   1.549892 S    
O6    V2    2.019231 S    
C18   N10   1.437332 S    
O19   V4    2.030201 S    
N9    O43   1.301253 A    
N12   O50   1.300349 A    
C27   C28   1.557809 S    
C61   H15   1.083545 S    
O2    V1    1.984414 S    
N1    O21   1.299911 A    
C35   C36   1.534654 S    
N8    O40   1.300677 A    
C35   C59   1.478290 S    
C13   C18   1.416324 A    
C29   C30   1.531649 S    
C31   C32   1.543133 S    
C40   C43   1.408229 A    
C15   C20   1.413881 A    
O1    C2    1.302699 A    
C38   C53   1.483547 S    
C21   C24   1.557515 S    
C12   H1    1.082031 S    
N10   O45   1.299762 A    
O5    V1    1.993666 S    
O8    C3    1.302778 A    
C30   C35   1.544009 S    
C44   H10   1.079095 S    
C17   H3    1.081104 S    
O14   C54   1.312360 A    
C5    C10   1.412064 A    
C45   C46   1.420166 A    
O9    V2    2.000640 S    
C62   H16   1.085141 S    
C13   C14   1.410826 A    
O4    V1    2.009106 S    
C25   N2    1.455615 S    
O3    V1    2.005512 S    
V1    O10   1.723118 S    
N5    O31   1.300478 A    
N11   O48   1.299316 A    
C42   C49   1.414856 A    
C38   C39   1.395279 A    
C18   C19   1.417729 A    
N4    O30   1.300179 A    
C29   N4    1.459764 S    
C29   C36   1.544505 S    
N3    O26   1.300017 A    
C34   H7    1.110181 S    
O7    V2    1.698853 S    
C57   H11   1.084071 S    
N7    O37   1.301316 A    
C60   O38   1.221102 D    
O11   V4    2.019977 S    
C44   C45   1.410541 A    
C21   C57   1.497123 S    
C8    C9    1.419420 A    
O19   C56   1.303941 A    
C21   C22   1.538330 S    
C46   C47   1.423351 A    
C15   C16   1.404029 A    
N9    O44   1.301531 A    
N12   O49   1.300044 A    
C49   C62   1.493825 S    
C21   C28   1.551084 S    
C59   H13   1.080615 S    
V4    O20   2.143462 S    
C9    C10   1.416364 A    
C32   H6    1.103036 S    
C39   H9    1.081207 S    
N8    O39   1.301620 A    
