data_mof_unit_30826.cif
_audit_creation_date              2012-10-26T18:44:24-0400
_audit_creation_method            fapswitch 2.2
_symmetry_space_group_name_H-M    P1
_symmetry_Int_Tables_number       1
_space_group_crystal_system       triclinic
_cell_length_a                    13.011682
_cell_length_b                    15.986727
_cell_length_c                    14.754876
_cell_angle_alpha                 88.951376
_cell_angle_beta                  96.513087
_cell_angle_gamma                 89.397408
_cell_volume                      3048.65929503

loop_
_atom_site_label
_atom_site_type_symbol
_atom_type_description
_atom_site_fract_x
_atom_site_fract_y
_atom_site_fract_z
_atom_type_partial_charge
C1    C     C_R   0.499841 0.340832 0.500709 0.553404
C2    C     C_R   0.493537 0.424025 0.048280 0.217200
C3    C     C_R   0.496155 0.501755 0.902508 -0.094430
C4    C     C_R   0.495109 0.499880 0.096454 -0.103458
C5    C     C_R   0.486678 0.425863 0.951258 0.221855
C6    C     C_R   0.492347 0.576640 0.046294 0.197071
C7    C     C_1   0.498389 0.500577 0.802450 0.243728
C8    C     C_1   0.498192 0.500003 0.197173 0.242190
C9    C     C_R   0.300496 0.505421 0.482716 0.591497
C10   C     C_R   0.700020 0.496552 0.517105 0.612565
C11   C     C_R   0.813191 0.491376 0.527278 -0.046107
C12   C     C_R   0.502387 0.659056 0.499525 0.578021
C13   C     C_R   0.188057 0.513958 0.472816 -0.057716
C14   C     C_R   0.030281 0.592005 0.422789 0.236179
C15   C     C_R   0.977376 0.439335 0.603904 0.261132
C16   C     C_R   0.136076 0.578261 0.417571 0.189481
C17   C     C_R   0.868781 0.440219 0.595944 0.153191
C18   C     C_R   0.134385 0.463405 0.530264 0.217714
C19   C     C_R   0.865898 0.538111 0.465556 0.201132
C20   C     C_R   0.029145 0.479186 0.536402 -0.071129
C21   C     C_R   0.974786 0.536525 0.474315 -0.102517
C22   C     C_R   0.454453 0.955392 0.562843 0.242138
C23   C     C_R   0.571337 0.956498 0.443658 0.206129
C24   C     C_R   0.575756 0.044490 0.446397 0.231858
C25   C     C_R   0.510407 0.912678 0.501228 -0.066086
C26   C     C_R   0.517933 0.087004 0.506856 -0.076053
C27   C     C_3   0.808410 0.548697 0.312910 0.061768
C28   C     C_3   0.754984 0.607584 0.238960 -0.252597
C29   C     C_3   0.757735 0.571928 0.144022 -0.455664
C30   C     C_3   0.204316 0.330166 0.530300 0.022644
C31   C     C_3   0.116050 0.267652 0.531390 -0.256462
C32   C     C_3   0.141245 0.186423 0.485368 -0.461336
C33   C     C_3   0.977690 0.725830 0.442285 0.069656
C34   C     C_R   0.464365 0.042456 0.569598 0.219458
C35   C     C_3   0.911878 0.798159 0.397342 -0.248225
C36   C     C_3   0.905340 0.870308 0.462800 -0.442086
C37   C     C_3   0.042046 0.450474 0.754522 0.051725
C38   C     C_3   0.135405 0.508505 0.755088 -0.279900
C39   C     C_3   0.158344 0.551622 0.846467 -0.496427
C40   C     C_3   0.502051 0.107799 0.706346 0.017358
C41   C     C_3   0.492345 0.059310 0.795237 -0.251653
C42   C     C_3   0.571194 0.088440 0.872427 -0.447824
C43   C     C_3   0.577087 0.899055 0.304265 0.042353
C44   C     C_3   0.643792 0.845629 0.248484 -0.273032
C45   C     C_1   0.508754 0.822939 0.498844 0.078478
C46   C     C_3   0.595591 0.839199 0.149901 -0.426305
C47   C     C_3   0.386477 0.665308 0.115630 0.016444
C48   C     C_3   0.322411 0.719354 0.042851 -0.249944
C49   C     C_3   0.217026 0.741857 0.072130 -0.465555
C50   C     C_3   0.364148 0.341964 0.881575 0.026128
C51   C     C_3   0.346157 0.269172 0.816619 -0.251048
C52   C     C_3   0.231326 0.252581 0.792275 -0.464451
C53   C     C_1   0.511135 0.176824 0.504987 0.062896
C54   C     C_1   0.505108 0.251791 0.503046 0.056061
C55   C     C_1   0.506121 0.747991 0.498381 0.082729
C56   C     C_R   0.500963 0.577590 0.950814 0.185329
Cu1   Cu    Cu3+1 0.500030 0.500000 0.589220 1.116665
Cu2   Cu    Cu3+1 0.499970 0.500000 0.410780 1.110074
H1    H     H_    0.765492 0.488834 0.312408 0.160694
H2    H     H_    0.102517 0.253196 0.602950 0.203728
H3    H     H_    0.043941 0.295540 0.495071 0.174921
H4    H     H_    0.154063 0.199061 0.413252 0.158892
H5    H     H_    0.075658 0.142691 0.486594 0.177556
H6    H     H_    0.211705 0.156217 0.522051 0.189802
H7    H     H_    0.902028 0.260223 0.664624 0.351722
H8    H     H_    0.086575 0.683757 0.234845 0.350029
H9    H     H_    0.057281 0.748570 0.463605 0.186993
H10   H     H_    0.942334 0.704379 0.503972 0.133576
H11   H     H_    0.945945 0.820975 0.335839 0.193879
H12   H     H_    0.887873 0.534718 0.295848 0.154071
H13   H     H_    0.832540 0.775643 0.375693 0.190375
H14   H     H_    0.868536 0.849375 0.523534 0.167248
H15   H     H_    0.857842 0.921950 0.427906 0.230922
H16   H     H_    0.983805 0.894280 0.485089 0.167142
H17   H     H_    0.053626 0.408791 0.815997 0.174337
H18   H     H_    0.970353 0.487868 0.760618 0.157787
H19   H     H_    0.204843 0.471879 0.741837 0.207841
H20   H     H_    0.119794 0.557095 0.700323 0.167627
H21   H     H_    0.090520 0.589719 0.861160 0.167393
H22   H     H_    0.225598 0.593432 0.844016 0.172459
H23   H     H_    0.673262 0.618093 0.251490 0.185149
H24   H     H_    0.177548 0.504508 0.902269 0.141802
H25   H     H_    0.493164 0.175670 0.717922 0.154292
H26   H     H_    0.582348 0.098675 0.687758 0.136953
H27   H     H_    0.413067 0.067721 0.815017 0.196079
H28   H     H_    0.505643 0.991672 0.784738 0.232225
H29   H     H_    0.651063 0.076929 0.855399 0.172266
H30   H     H_    0.560793 0.053128 0.936184 0.177299
H31   H     H_    0.560699 0.156223 0.884349 0.207823
H32   H     H_    0.558783 0.959891 0.267674 0.192926
H33   H     H_    0.503584 0.865434 0.310869 0.122850
H34   H     H_    0.794572 0.668913 0.241826 0.183488
H35   H     H_    0.721763 0.873572 0.249205 0.198341
H36   H     H_    0.652925 0.781867 0.279875 0.160479
H37   H     H_    0.515902 0.814797 0.147358 0.180847
H38   H     H_    0.643045 0.795960 0.113239 0.206931
H39   H     H_    0.592998 0.901603 0.115293 0.165467
H40   H     H_    0.264247 0.928120 0.727250 0.362662
H41   H     H_    0.773171 0.076803 0.288889 0.368745
H42   H     H_    0.393839 0.698977 0.181225 0.185509
H43   H     H_    0.343731 0.606707 0.127325 0.160345
H44   H     H_    0.364377 0.777849 0.030332 0.215672
H45   H     H_    0.838976 0.564626 0.128797 0.156977
H46   H     H_    0.310253 0.684371 0.978330 0.203526
H47   H     H_    0.172898 0.684208 0.083427 0.166759
H48   H     H_    0.172306 0.780566 0.017793 0.158914
H49   H     H_    0.226626 0.778214 0.135907 0.197991
H50   H     H_    0.326381 0.398870 0.847385 0.099651
H51   H     H_    0.327617 0.327705 0.944730 0.181882
H52   H     H_    0.381171 0.283841 0.753004 0.180993
H53   H     H_    0.383797 0.212122 0.849587 0.186537
H54   H     H_    0.194036 0.238249 0.854744 0.164848
H55   H     H_    0.221726 0.198299 0.746310 0.175880
H56   H     H_    0.716453 0.615309 0.092243 0.196946
H57   H     H_    0.192826 0.307988 0.756517 0.210138
H58   H     H_    0.401194 0.663878 0.772691 0.354643
H59   H     H_    0.399315 0.267834 0.199557 0.381408
H60   H     H_    0.719603 0.510097 0.139377 0.169349
H61   H     H_    0.277120 0.299362 0.561515 0.149771
H62   H     H_    0.216318 0.346612 0.458470 0.111886
N1    N     N_1   0.500030 0.499980 0.276710 -0.163803
N2    N     N_1   0.499970 0.500020 0.723290 -0.165019
O1    O     O_R   0.500050 0.380310 0.575330 -0.483923
O2    O     O_3   0.186436 0.400435 0.583787 -0.532522
O3    O     O_2   0.763559 0.419741 0.740876 -0.232808
O4    O     O_2   0.717021 0.328999 0.611348 -0.281823
O5    O     O_3   0.885843 0.295680 0.715658 -0.472547
O6    O     O_2   0.285788 0.689466 0.401367 -0.261502
O7    O     O_2   0.250895 0.590751 0.277463 -0.322157
O8    O     O_3   0.124429 0.715077 0.285223 -0.498447
O9    O     O_3   0.981092 0.660987 0.378765 -0.516655
O10   O     O_3   0.033575 0.398423 0.677245 -0.515374
O11   O     O_3   0.422096 0.084274 0.638205 -0.523071
O12   O     O_R   0.499950 0.619690 0.424670 -0.486863
O13   O     O_3   0.632883 0.912159 0.390467 -0.529978
O14   O     O_2   0.306585 0.840976 0.573626 -0.268916
O15   O     O_2   0.441185 0.849346 0.703002 -0.245506
O16   O     O_3   0.296956 0.964298 0.683754 -0.489085
O17   O     O_2   0.584334 0.143766 0.300002 -0.259027
O18   O     O_2   0.712480 0.167422 0.431403 -0.259349
O19   O     O_3   0.739555 0.039807 0.331006 -0.515963
O20   O     O_3   0.487731 0.651512 0.091531 -0.554432
O21   O     O_3   0.471823 0.352868 0.903073 -0.509529
O22   O     O_2   0.544546 0.743707 0.954694 -0.230465
O23   O     O_R   0.500000 0.380310 0.424640 -0.477238
O24   O     O_2   0.598708 0.664229 0.828696 -0.259856
O25   O     O_3   0.403204 0.698838 0.827562 -0.506419
O26   O     O_2   0.511659 0.254010 0.049264 -0.230768
O27   O     O_2   0.587104 0.327615 0.184299 -0.250484
O28   O     O_3   0.387216 0.316492 0.156994 -0.539761
O29   O     O_R   0.500000 0.619690 0.575360 -0.486588
O30   O     O_R   0.349020 0.499990 0.563110 -0.496824
O31   O     O_R   0.650980 0.500010 0.436890 -0.495028
O32   O     O_R   0.348970 0.499990 0.412410 -0.450031
O33   O     O_R   0.651030 0.500010 0.587590 -0.441070
O34   O     O_3   0.809711 0.587576 0.398643 -0.531208
S1    S     S_3+6 0.805207 0.370750 0.666811 0.045391
S2    S     S_3+6 0.202294 0.643726 0.344501 0.013166
S3    S     S_3+6 0.373717 0.899610 0.632033 0.036167
S4    S     S_3+6 0.653959 0.101673 0.375972 0.032357
S5    S     S_3+6 0.515459 0.673640 0.890764 0.038889
S6    S     S_3+6 0.498159 0.327019 0.109756 0.046583

loop_
_geom_bond_atom_site_label_1
_geom_bond_atom_site_label_2
_ccdc_geom_bond_type
C29   H56   S    
C9    O30   A    
C47   H43   S    
O22   S5    D    
C41   C42   S    
C40   H26   S    
C1    O23   A    
C35   C36   S    
C12   O29   A    
C4    C8    S    
C2    S6    S    
Cu2   O23   S    
O6    S2    D    
C49   H49   S    
C53   C54   T    
Cu2   O12   S    
C41   H28   S    
Cu1   O33   S    
C47   O20   S    
C11   C19   A    
C13   C18   A    
H40   O16   S    
H7    O5    S    
C14   C21   A    
C28   C29   S    
C19   C21   A    
C24   C26   A    
C3    C7    S    
C30   C31   S    
O3    S1    D    
C8    N1    T    
C5    O21   S    
C22   S3    S    
C52   H54   S    
C48   H46   S    
Cu1   O30   S    
C29   H45   S    
C31   H3    S    
C9    C13   S    
C44   H35   S    
Cu2   O32   S    
Cu1   N2    S    
O14   S3    D    
O16   S3    S    
C26   C34   A    
C11   C17   A    
C15   O10   S    
C47   C48   S    
C22   C25   A    
C23   C24   A    
H59   O28   S    
C6    O20   S    
C17   S1    S    
O5    S1    S    
C33   O9    S    
C37   H17   S    
C35   H13   S    
C12   O12   A    
C50   H50   S    
C19   O34   S    
C40   H25   S    
O28   S6    S    
C10   O31   A    
O7    S2    D    
C44   C46   S    
C14   O9    S    
C15   C20   A    
C22   C34   A    
O24   S5    D    
C43   H32   S    
O15   S3    D    
C16   S2    S    
C51   C52   S    
C32   H6    S    
C4    C6    A    
O25   S5    S    
C49   H47   S    
C38   H20   S    
C34   O11   S    
C52   H55   S    
C56   S5    S    
C50   H51   S    
C43   H33   S    
C47   H42   S    
C39   H21   S    
C31   H2    S    
C2    C4    A    
C43   C44   S    
C1    O1    A    
C37   C38   S    
Cu2   O31   S    
Cu1   O1    S    
C3    C56   A    
O19   S4    S    
C31   C32   S    
C48   H44   S    
C50   C51   S    
C28   H34   S    
C43   O13   S    
C45   C55   T    
C27   H12   S    
C36   H16   S    
C1    C54   S    
C40   C41   S    
C46   H39   S    
C30   O2    S    
O17   S4    D    
C51   H52   S    
C14   C16   A    
C2    C5    A    
C42   H30   S    
C7    N2    T    
C26   C53   S    
C25   C45   S    
C50   O21   S    
C33   H9    S    
C29   H60   S    
C52   H57   S    
C27   O34   S    
C15   C17   A    
C48   C49   S    
Cu2   N1    S    
C51   H53   S    
C28   H23   S    
C37   H18   S    
C39   H24   S    
C6    C56   A    
C3    C5    A    
C10   O33   A    
C9    O32   A    
H58   O25   S    
C24   S4    S    
H41   O19   S    
C49   H48   S    
C42   H29   S    
C38   H19   S    
C32   H5    S    
C41   H27   S    
C40   O11   S    
C37   O10   S    
C23   O13   S    
O8    S2    S    
C42   H31   S    
O26   S6    D    
C39   H22   S    
O4    S1    D    
C32   H4    S    
C27   H1    S    
O18   S4    D    
Cu1   Cu2   S    
C38   C39   S    
C30   H62   S    
Cu1   O29   S    
C33   C35   S    
C18   C20   A    
C23   C25   A    
C46   H37   S    
C12   C55   S    
C44   H36   S    
C10   C11   S    
C46   H38   S    
C20   C21   A    
C35   H11   S    
C30   H61   S    
C13   C16   A    
C27   C28   S    
O27   S6    D    
C36   H15   S    
C36   H14   S    
C33   H10   S    
C18   O2    S    
H8    O8    S    
