data_mof_unit_68251.cif
_audit_creation_date              2012-10-26T20:33:43-0400
_audit_creation_method            fapswitch 2.2
_symmetry_space_group_name_H-M    P1
_symmetry_Int_Tables_number       1
_space_group_crystal_system       triclinic
_cell_length_a                    11.11247
_cell_length_b                    9.499809
_cell_length_c                    7.879627
_cell_angle_alpha                 91.065155
_cell_angle_beta                  88.733492
_cell_angle_gamma                 90.65129
_cell_volume                      831.426540449

loop_
_atom_site_label
_atom_site_type_symbol
_atom_type_description
_atom_site_fract_x
_atom_site_fract_y
_atom_site_fract_z
_atom_type_partial_charge
C1    C     C_R   0.496110 0.219740 0.498913 0.493248
C2    C     C_1   0.494300 0.935378 0.501090 -0.102295
C3    C     C_3   0.076884 0.646894 0.525172 0.501550
C4    C     C_3   0.931868 0.647213 0.558544 0.481107
C5    C     C_3   0.123037 0.488978 0.500919 -0.053308
C6    C     C_3   0.878267 0.491999 0.507031 -0.056578
C7    C     C_3   0.161382 0.184790 0.591225 0.034190
C8    C     C_3   0.159962 0.038753 0.662678 -0.264515
C9    C     C_3   0.032882 0.000978 0.723618 -0.337191
C10   C     C_3   0.221204 0.289123 0.181716 0.014907
C11   C     C_3   0.232262 0.152706 0.082542 -0.303945
C12   C     C_R   0.260046 0.490663 0.501126 0.566113
C13   C     C_3   0.360820 0.127516 0.019772 -0.477768
C14   C     C_3   0.771495 0.208973 0.658741 -0.008175
C15   C     C_3   0.722675 0.231721 0.840971 -0.244144
C16   C     C_3   0.650243 0.103754 0.903498 -0.467310
C17   C     C_3   0.871576 0.202943 0.271634 0.069309
C18   C     C_3   0.920478 0.108855 0.127313 -0.303316
C19   C     C_3   0.975981 0.971724 0.183995 -0.442702
C20   C     C_3   0.157964 0.696639 0.823330 -0.121330
C21   C     C_3   0.210989 0.763120 0.322636 -0.082264
C22   C     C_3   0.810074 0.685040 0.832124 -0.133764
C23   C     C_R   0.740727 0.497952 0.500213 0.554271
C24   C     C_3   0.787540 0.826002 0.494730 -0.110803
C25   C     C_R   0.494727 0.780199 0.501176 0.499879
C26   C     C_1   0.494781 0.064599 0.498226 -0.113949
C27   C     C_3   0.065173 0.402851 0.653897 0.143989
C28   C     C_3   0.073018 0.434810 0.320333 0.118693
C29   C     C_3   0.924960 0.388703 0.647223 0.121812
C30   C     C_3   0.932263 0.448354 0.324212 0.159547
Cu1   Cu    Cu3+1 0.500000 0.500010 0.669080 0.935625
Cu2   Cu    Cu3+1 0.500000 0.500010 0.330920 0.954903
H1    H     H_    0.073355 0.471315 0.764746 0.126410
H2    H     H_    0.029516 0.910176 0.806082 0.195739
H3    H     H_    0.977041 0.981761 0.611641 0.201224
H4    H     H_    0.289516 0.278158 0.278467 0.194058
H5    H     H_    0.240300 0.377800 0.094168 0.167169
H6    H     H_    0.205919 0.066804 0.166479 0.151237
H7    H     H_    0.171549 0.155570 0.975512 0.215813
H8    H     H_    0.389032 0.211146 0.930446 0.202722
H9    H     H_    0.367655 0.022905 0.955673 0.132983
H10   H     H_    0.422366 0.126408 0.128162 0.172804
H11   H     H_    0.763404 0.097213 0.624739 0.116353
H12   H     H_    0.104965 0.507465 0.219450 0.141217
H13   H     H_    0.715357 0.254622 0.563669 0.171845
H14   H     H_    0.796378 0.259732 0.925993 0.196096
H15   H     H_    0.663357 0.323329 0.849585 0.213035
H16   H     H_    0.566754 0.090960 0.831365 0.176830
H17   H     H_    0.627454 0.118044 0.040472 0.156997
H18   H     H_    0.701151 0.004619 0.884844 0.123764
H19   H     H_    0.779781 0.165526 0.307228 0.117580
H20   H     H_    0.931428 0.187060 0.373651 0.230033
H21   H     H_    0.848730 0.074788 0.044216 0.137581
H22   H     H_    0.985566 0.171675 0.053236 0.232238
H23   H     H_    0.890205 0.424286 0.772029 0.140029
H24   H     H_    0.017976 0.982860 0.309626 0.196107
H25   H     H_    0.044961 0.935902 0.090194 0.126616
H26   H     H_    0.906597 0.887550 0.186105 0.203102
H27   H     H_    0.216355 0.607776 0.847342 0.147618
H28   H     H_    0.074849 0.683458 0.900303 0.150072
H29   H     H_    0.205689 0.786655 0.884352 0.109926
H30   H     H_    0.276081 0.754538 0.424386 0.188807
H31   H     H_    0.208602 0.874613 0.291890 0.086984
H32   H     H_    0.243410 0.706890 0.206186 0.124902
H33   H     H_    0.800042 0.584866 0.899961 0.142959
H34   H     H_    0.917545 0.545046 0.250177 0.165582
H35   H     H_    0.726924 0.712510 0.768806 0.158086
H36   H     H_    0.817618 0.765510 0.935086 0.116044
H37   H     H_    0.800687 0.881328 0.616422 0.127159
H38   H     H_    0.709745 0.756726 0.498692 0.161574
H39   H     H_    0.769095 0.906772 0.399639 0.099091
H40   H     H_    0.252826 0.208969 0.542158 0.131138
H41   H     H_    0.096257 0.175275 0.492353 0.214041
H42   H     H_    0.188341 0.966266 0.559349 0.170246
H43   H     H_    0.226245 0.027423 0.762224 0.155693
H44   H     H_    0.993873 0.086133 0.800980 0.203567
N1    N     N_1   0.500000 0.499970 0.076820 -0.118395
N2    N     N_1   0.500000 0.499970 0.923180 -0.140592
O1    O     O_R   0.500000 0.288400 0.642760 -0.528118
O2    O     O_3   0.107121 0.297552 0.264562 -0.622024
O3    O     O_3   0.894097 0.244721 0.633294 -0.622750
O4    O     O_3   0.866786 0.346270 0.223424 -0.560853
O5    O     O_3   0.143037 0.731312 0.648797 -0.560402
O6    O     O_3   0.093243 0.716683 0.365535 -0.583286
O7    O     O_3   0.918151 0.693237 0.733267 -0.623602
O8    O     O_3   0.888343 0.748663 0.442690 -0.562402
O9    O     O_R   0.500000 0.288400 0.357240 -0.527716
O10   O     O_R   0.317700 0.499990 0.642790 -0.485151
O11   O     O_R   0.317700 0.499990 0.357210 -0.565683
O12   O     O_R   0.682300 0.499990 0.642790 -0.569184
O13   O     O_R   0.682300 0.499990 0.357210 -0.457850
O14   O     O_R   0.500000 0.711620 0.642810 -0.509583
O15   O     O_R   0.500000 0.711620 0.357190 -0.515018
O16   O     O_3   0.127046 0.284583 0.715984 -0.566247

loop_
_geom_bond_atom_site_label_1
_geom_bond_atom_site_label_2
_ccdc_geom_bond_type
C19   H24   S    
C1    O9    A    
C25   O15   A    
C27   C29   S    
C15   H15   S    
C17   H19   S    
C13   H9    S    
C24   H38   S    
C7    C8    S    
C7    H41   S    
N1    N2    T    
C19   H25   S    
C10   H5    S    
C16   H18   S    
C18   C19   S    
Cu2   O13   S    
C4    O8    S    
C15   C16   S    
C17   O4    S    
C22   O7    S    
C20   H29   S    
C13   H8    S    
C18   H21   S    
Cu2   N1    S    
C5    C27   S    
Cu1   Cu2   S    
C8    C9    S    
C21   H32   S    
C9    H44   S    
C20   H28   S    
Cu2   O15   S    
C16   H16   S    
C17   H20   S    
C13   H10   S    
C24   H37   S    
C14   H13   S    
C19   H26   S    
C12   O10   A    
C12   O11   A    
C16   H17   S    
C5    C12   S    
C4    C6    S    
C7    H40   S    
C10   O2    S    
C4    O7    S    
C29   H23   S    
Cu2   O9    S    
C28   H12   S    
C8    H43   S    
C27   H1    S    
C30   O4    S    
C11   H6    S    
C22   H33   S    
C29   O3    S    
C5    C28   S    
Cu2   O11   S    
C21   O6    S    
Cu1   O12   S    
C8    H42   S    
C17   C18   S    
C23   O12   A    
C2    C26   T    
C20   H27   S    
C11   H7    S    
C22   H36   S    
C21   H30   S    
C30   H34   S    
C6    C30   S    
C3    O5    S    
C1    C26   S    
C1    O1    A    
C23   O13   A    
C3    C4    S    
Cu1   N2    S    
C7    O16   S    
C25   O14   A    
Cu1   O10   S    
C3    C5    S    
Cu1   O1    S    
C14   O3    S    
C28   C30   S    
C11   C13   S    
C9    H2    S    
C6    C23   S    
C2    C25   S    
C28   O2    S    
C22   H35   S    
C21   H31   S    
C10   C11   S    
C18   H22   S    
C6    C29   S    
Cu1   O14   S    
C20   O5    S    
C3    O6    S    
C9    H3    S    
C14   C15   S    
C27   O16   S    
C10   H4    S    
C15   H14   S    
C24   O8    S    
C24   H39   S    
C14   H11   S    
