data_mof_unit_15192.cif
_audit_creation_date              2012-12-10T18:06:43-0500
_audit_creation_method            fapswitch 2.2
_symmetry_space_group_name_H-M    P1
_symmetry_Int_Tables_number       1
_space_group_crystal_system       triclinic
_cell_length_a                    12.605703
_cell_length_b                    13.122438
_cell_length_c                    15.432825
_cell_angle_alpha                 82.885926
_cell_angle_beta                  98.41165
_cell_angle_gamma                 97.776789
_cell_volume                      2488.03204728

loop_
_atom_site_label
_atom_site_type_symbol
_atom_type_description
_atom_site_fract_x
_atom_site_fract_y
_atom_site_fract_z
_atom_type_partial_charge
C1    C     C_R   0.443595 0.307148 0.513910 0.908209
C2    C     C_R   0.433081 0.451350 0.106244 0.082209
C3    C     C_R   0.327208 0.468559 0.067658 0.128454
C4    C     C_R   0.510973 0.433760 0.053310 0.001751
C5    C     C_R   0.474326 0.419077 0.963734 -0.007834
C6    C     C_R   0.361071 0.408408 0.934202 0.125189
C7    C     C_R   0.290774 0.442082 0.983070 -0.249284
C8    C     C_R   0.624544 0.437116 0.083800 0.197620
C9    C     C_R   0.695209 0.417144 0.028063 -0.288707
C10   C     C_R   0.662224 0.415793 0.937976 0.057493
C11   C     C_R   0.552306 0.424290 0.905505 0.075623
C12   C     C_R   0.434354 0.508064 0.336581 0.861133
C13   C     C_R   0.739482 0.419464 0.878940 0.230969
C14   C     C_R   0.707145 0.445142 0.788605 -0.232471
C15   C     C_R   0.525553 0.453964 0.816206 -0.235175
C16   C     C_R   0.733836 0.934819 0.545496 0.182316
C17   C     C_R   0.596929 0.800916 0.492827 -0.092406
C18   C     C_R   0.298083 0.153543 0.516462 0.171208
C19   C     C_R   0.270214 0.049697 0.504758 -0.122952
C20   C     C_R   0.349201 0.987299 0.501127 -0.220159
C21   C     C_R   0.460018 0.025276 0.517496 0.056025
C22   C     C_R   0.488036 0.125611 0.543509 0.025765
C23   C     C_R   0.557582 0.691890 0.490202 0.873841
C24   C     C_R   0.543382 0.964685 0.513646 0.062439
C25   C     C_R   0.652265 0.998925 0.545916 0.068450
C26   C     C_R   0.675248 0.091987 0.583934 -0.277220
C27   C     C_R   0.593274 0.152390 0.587483 0.219428
C28   C     C_R   0.520289 0.869126 0.480401 -0.247094
C29   C     C_R   0.704950 0.834699 0.521383 -0.227610
C30   C     C_R   0.408663 0.194793 0.528310 -0.181687
C31   C     C_R   0.139513 0.656667 0.610771 0.020636
C32   C     C_R   0.756754 0.378727 0.397219 0.019373
C33   C     C_R   0.851689 0.355904 0.372890 -0.250473
C34   C     C_R   0.564334 0.485937 0.663933 0.897308
C35   C     C_R   0.949649 0.405136 0.409436 -0.157011
C36   C     C_R   0.952520 0.476818 0.471518 0.050178
C37   C     C_R   0.853432 0.497856 0.493007 0.232850
C38   C     C_R   0.048894 0.527850 0.513240 -0.037275
C39   C     C_R   0.044235 0.602715 0.571770 0.098065
C40   C     C_R   0.944350 0.622038 0.590181 -0.228269
C41   C     C_R   0.850880 0.569258 0.552231 -0.242371
C42   C     C_R   0.150230 0.506681 0.499626 -0.080500
C43   C     C_R   0.238032 0.627076 0.598131 0.303325
C44   C     C_R   0.392737 0.495822 0.244594 -0.075422
C45   C     C_R   0.600849 0.464621 0.757918 -0.125776
C46   C     C_R   0.257223 0.504789 0.116891 -0.173483
C47   C     C_R   0.292105 0.523163 0.204417 -0.196212
C48   C     C_R   0.456160 0.450716 0.196980 -0.203833
H1    H     H_    0.206122 0.441515 0.956996 0.165183
H2    H     H_    0.765777 0.782264 0.528953 0.173599
H3    H     H_    0.755091 0.115147 0.616793 0.187204
H4    H     H_    0.441032 0.842833 0.448712 0.150571
H5    H     H_    0.320440 0.908098 0.490615 0.144987
H6    H     H_    0.186143 0.017154 0.496182 0.193489
H7    H     H_    0.446367 0.474414 0.791688 0.194396
H8    H     H_    0.936574 0.676192 0.635530 0.199503
H9    H     H_    0.161977 0.455229 0.453878 0.159086
H10   H     H_    0.679854 0.341753 0.368676 0.139611
H11   H     H_    0.020831 0.386073 0.387140 0.154238
H12   H     H_    0.849388 0.301044 0.325522 0.156239
H13   H     H_    0.777435 0.586119 0.570566 0.213088
H14   H     H_    0.763775 0.449801 0.741623 0.176706
H15   H     H_    0.779953 0.418679 0.053960 0.156512
H16   H     H_    0.176646 0.519873 0.087464 0.144802
H17   H     H_    0.239572 0.554712 0.241114 0.158069
H18   H     H_    0.521993 0.411884 0.232275 0.185406
N1    N     N_R   0.239390 0.551900 0.544730 -0.120830
N2    N     N_R   0.759950 0.448600 0.455730 -0.133097
O1    O     O_R   0.374950 0.371210 0.521360 -0.574723
O2    O     O_R   0.542050 0.338030 0.492790 -0.610138
O3    O     O_R   0.368720 0.526070 0.390200 -0.619848
O4    O     O_R   0.535820 0.492890 0.361630 -0.614182
O5    O     O_R   0.457950 0.661970 0.507210 -0.601450
O6    O     O_R   0.625050 0.628790 0.478640 -0.632995
O7    O     O_R   0.464180 0.507110 0.638370 -0.576195
O8    O     O_R   0.631280 0.473930 0.609800 -0.641319
Zn1   Zn    Zn3+2 0.388420 0.522150 0.519080 0.981038
Zn2   Zn    Zn3+2 0.611580 0.477850 0.480920 0.929433
N3    N     N_2   0.848043 0.399493 0.911907 -0.319013
H19   H     H_    0.853873 0.336881 0.959124 0.223694
C49   C     C_3   0.929439 0.412028 0.852936 -0.742679
H20   H     H_    0.008969 0.399525 0.891526 0.244850
H21   H     H_    0.936641 0.491821 0.818749 0.252563
H22   H     H_    0.909310 0.354295 0.804308 0.245522
I1    I     I_    0.900442 0.978948 0.586487 -0.329202
I2    I     I_    0.164191 0.233702 0.520616 -0.326761
N4    N     N_2   0.612234 0.228754 0.647859 -0.291720
H23   H     H_    0.691808 0.260527 0.659535 0.235671
C50   C     C_3   0.565889 0.194640 0.728636 -0.743237
H24   H     H_    0.586145 0.254786 0.774540 0.249789
H25   H     H_    0.598752 0.123170 0.761685 0.241400
H26   H     H_    0.476514 0.179625 0.714812 0.267064
N5    N     N_2   0.337091 0.680951 0.633903 -0.253589
H27   H     H_    0.348791 0.757923 0.609774 0.227381
C51   C     C_3   0.367312 0.662523 0.728247 -0.685837
H28   H     H_    0.354343 0.729558 0.761089 0.245402
H29   H     H_    0.454709 0.654302 0.741967 0.232213
H30   H     H_    0.320204 0.591861 0.757065 0.241726
I3    I     I_    0.137490 0.786382 0.682453 -0.380791
I4    I     I_    0.284022 0.321945 0.828618 -0.362159
N6    N     N_2   0.672259 0.471830 0.166109 -0.329189
H31   H     H_    0.739089 0.436656 0.194849 0.221410
C52   C     C_3   0.691163 0.583112 0.165587 -0.735459
H32   H     H_    0.721201 0.603036 0.233444 0.245765
H33   H     H_    0.752628 0.615985 0.121725 0.238288
H34   H     H_    0.615138 0.618140 0.142737 0.251880

loop_
_geom_bond_atom_site_label_1
_geom_bond_atom_site_label_2
_ccdc_geom_bond_type
N4    H23   S    
C13   N3    S    
N6    H31   S    
O2    Zn2   S    
C17   C29   A    
O1    Zn1   S    
C51   H28   S    
N1    Zn1   S    
C32   H10   S    
C4    C8    A    
C49   H20   S    
C51   H30   S    
C26   C27   A    
C18   I2    S    
C31   C43   A    
C36   C37   A    
O8    Zn2   S    
C38   C42   A    
C3    C7    A    
C5    C6    A    
C14   H14   S    
C37   N2    A    
C35   H11   S    
C18   C19   A    
O4    Zn2   S    
C43   N5    S    
C11   C15   A    
C19   C20   A    
C8    C9    A    
C40   H8    S    
C18   C30   A    
C31   I3    S    
C50   H25   S    
C8    N6    S    
C44   C47   A    
C34   O7    A    
C32   N2    A    
C12   O4    A    
N5    C51   S    
C21   C22   A    
C23   O5    A    
C42   H9    S    
C49   H21   S    
C14   C45   A    
C29   H2    S    
N2    Zn2   S    
C38   C39   A    
C24   C25   A    
C7    H1    S    
C39   C40   A    
N3    C49   S    
C4    C5    A    
C2    C48   A    
C16   C29   A    
C1    O1    A    
C41   H13   S    
C46   H16   S    
C35   C36   A    
C15   H7    S    
C2    C4    A    
C52   H33   S    
C34   C45   S    
C17   C23   S    
C50   H26   S    
C27   N4    S    
O7    Zn1   S    
C19   H6    S    
C43   N1    A    
C40   C41   A    
C12   O3    A    
C33   H12   S    
C22   C27   A    
N4    C50   S    
C16   I1    S    
C15   C45   A    
C23   O6    A    
O3    Zn1   S    
C49   H22   S    
C9    C10   A    
C16   C25   A    
C46   C47   A    
C22   C30   A    
C9    H15   S    
C17   C28   A    
C24   C28   A    
C20   H5    S    
C10   C13   A    
C51   H29   S    
C5    C11   A    
C6    C7    A    
N5    H27   S    
C3    C46   A    
C1    O2    A    
C32   C33   A    
C36   C38   A    
C2    C3    A    
C25   C26   A    
C12   C44   S    
C26   H3    S    
C28   H4    S    
C42   N1    A    
C1    C30   S    
C33   C35   A    
C31   C39   A    
C52   H34   S    
C37   C41   A    
C10   C11   A    
N3    H19   S    
C20   C21   A    
N6    C52   S    
O6    Zn2   S    
C21   C24   A    
C34   O8    A    
C52   H32   S    
O5    Zn1   S    
C48   H18   S    
C50   H24   S    
C13   C14   A    
C47   H17   S    
C44   C48   A    
C6    I4    S    
