data_mof_unit_49402.cif
_audit_creation_date              2013-03-05T16:00:37-0500
_audit_creation_method            fapswitch 2.2
_symmetry_space_group_name_H-M    P1
_symmetry_Int_Tables_number       1
_space_group_crystal_system       triclinic
_cell_length_a                    10.780867
_cell_length_b                    14.875114
_cell_length_c                    14.974234
_cell_angle_alpha                 64.324563
_cell_angle_beta                  105.694166
_cell_angle_gamma                 102.702714
_cell_volume                      2068.93353971

loop_
_atom_site_label
_atom_site_type_symbol
_atom_site_description
_atom_site_fract_x
_atom_site_fract_y
_atom_site_fract_z
_atom_type_partial_charge
O1    O     O_R   0.455060 0.022100 0.338110 -0.523037
O2    O     O_R   0.512640 0.160150 0.379180 -0.561940
C1    C     C_R   0.484207 0.119163 0.312898 0.839535
O3    O     O_R   0.288900 0.930980 0.479450 -0.532683
O4    O     O_R   0.346480 0.069030 0.520520 -0.535548
C2    C     C_R   0.259549 0.000860 0.498351 0.836026
Cu1   Cu    Cu3+1 0.465900 0.918260 0.475680 1.060799
Cu2   Cu    Cu3+1 0.534100 0.081740 0.524320 1.005778
O5    O     O_R   0.487360 0.839850 0.620820 -0.536736
O6    O     O_R   0.544940 0.977900 0.661890 -0.590768
O7    O     O_R   0.653520 0.930970 0.479480 -0.569336
O8    O     O_R   0.711100 0.069020 0.520550 -0.608154
C3    C     C_R   0.522267 0.879750 0.687692 0.844059
C4    C     C_R   0.738136 0.003366 0.494462 0.771169
C5    C     C_3   0.028091 0.922608 0.456786 0.070939
H1    H     H_    0.046194 0.937481 0.381745 0.194227
C6    C     C_3   0.885579 0.935303 0.441774 -0.391159
H2    H     H_    0.842614 0.968222 0.359460 0.171588
H3    H     H_    0.829445 0.861067 0.472283 0.233037
H4    H     H_    0.924261 0.887283 0.642489 0.221396
C7    C     C_3   0.099795 0.987261 0.601230 0.011170
C8    C     C_3   0.074366 0.105751 0.419948 -0.434626
C9    C     C_3   0.119992 0.001563 0.496108 -0.020667
H5    H     H_    0.140534 0.167630 0.435350 0.272104
H6    H     H_    0.074904 0.117847 0.341297 0.196582
C10   C     C_3   0.875106 0.004904 0.491543 0.072836
C11   C     C_3   0.954040 0.968699 0.601646 -0.384640
C12   C     C_3   0.935672 0.111427 0.428164 -0.407078
H7    H     H_    0.874447 0.142211 0.351160 0.173392
H8    H     H_    0.941072 0.163479 0.464955 0.210017
H9    H     H_    0.139093 0.058788 0.611378 0.181407
H10   H     H_    0.934554 0.009023 0.643169 0.164950
C13   C     C_R   0.486774 0.185897 0.206042 -0.108559
C14   C     C_R   0.546804 0.809590 0.795731 -0.078418
C15   C     C_R   0.461587 0.216901 0.029942 -0.174450
C16   C     C_R   0.469552 0.149397 0.130067 0.171954
C17   C     C_R   0.512468 0.290147 0.180124 -0.242276
C18   C     C_R   0.517475 0.358714 0.080309 0.052502
C19   C     C_R   0.481607 0.320835 0.003561 0.064984
C20   C     C_R   0.552451 0.464001 0.054184 0.080172
C21   C     C_R   0.533682 0.530417 0.950696 0.049240
C22   C     C_R   0.504039 0.489496 0.877480 -0.202368
C23   C     C_R   0.470841 0.387240 0.902016 0.132739
C24   C     C_R   0.612011 0.504876 0.127183 -0.201029
C25   C     C_R   0.649828 0.607760 0.098417 -0.186897
C26   C     C_R   0.620414 0.673956 0.997179 0.124724
C27   C     C_R   0.552468 0.636273 0.923126 0.046469
C28   C     C_R   0.656357 0.777545 0.969340 -0.160127
C29   C     C_R   0.624706 0.844202 0.868724 -0.200377
C30   C     C_R   0.501298 0.705787 0.825634 0.120706
H11   H     H_    0.659865 0.923183 0.848326 0.169576
H12   H     H_    0.700117 0.635860 0.156122 0.160409
H13   H     H_    0.445060 0.186571 0.973387 0.193173
H14   H     H_    0.525415 0.317279 0.238486 0.183931
H15   H     H_    0.507053 0.537157 0.799765 0.179016
H16   H     H_    0.637843 0.458455 0.206662 0.141704
H17   H     H_    0.711656 0.806817 0.025131 0.162677
N1    N     N_R   0.585360 0.204570 0.560800 -0.233420
N2    N     N_R   0.414550 0.795430 0.439160 -0.242630
C31   C     C_R   0.721061 0.277398 0.672796 -0.269280
C32   C     C_R   0.688850 0.201251 0.637301 0.017958
C33   C     C_R   0.516474 0.286208 0.511129 0.467663
C34   C     C_R   0.559820 0.372694 0.533813 -0.097292
C35   C     C_R   0.652911 0.361411 0.623372 0.114954
C36   C     C_R   0.503878 0.465556 0.477644 0.096002
C37   C     C_R   0.520126 0.535813 0.522543 0.113251
C38   C     C_R   0.586841 0.505512 0.623773 -0.134898
C39   C     C_R   0.664473 0.427831 0.668608 -0.122839
C40   C     C_R   0.433417 0.490169 0.378058 -0.142568
C41   C     C_R   0.362085 0.571199 0.330668 -0.129021
C42   C     C_R   0.371924 0.638146 0.375522 0.054364
C43   C     C_R   0.460590 0.628465 0.467002 -0.045206
C44   C     C_R   0.293735 0.715355 0.328160 -0.298683
C45   C     C_R   0.309476 0.789726 0.364553 0.536989
C46   C     C_R   0.488937 0.714748 0.492836 0.247043
H18   H     H_    0.722083 0.412955 0.744059 0.159125
H19   H     H_    0.301072 0.583129 0.256783 0.157378
H20   H     H_    0.795579 0.269221 0.740086 0.164324
H21   H     H_    0.740781 0.135883 0.675331 0.145650
H22   H     H_    0.572905 0.535967 0.672582 0.168796
H23   H     H_    0.431620 0.446672 0.335827 0.177431
H24   H     H_    0.217640 0.717055 0.263150 0.188230
I1    I     I_    0.050703 0.766076 0.545340 -0.189305
I2    I     I_    0.385332 0.340002 0.780948 -0.334902
I3    I     I_    0.321837 0.660230 0.742067 -0.234717
I4    I     I_    0.466111 0.996851 0.153627 -0.301213
I5    I     I_    0.663374 0.724991 0.603496 -0.375092
N3    N     N_R   0.208165 0.853406 0.326199 0.123645
O9    O     O_R   0.232550 0.950109 0.281043 -0.342714
O10   O     O_R   0.088159 0.813409 0.311784 -0.379382
N4    N     N_R   0.384566 0.273583 0.460730 0.106812
O11   O     O_R   0.293092 0.285916 0.494616 -0.381508
O12   O     O_R   0.357001 0.269875 0.372292 -0.407506
I6    I     I_    0.202960 0.881546 0.736339 -0.291555

loop_
_geom_bond_atom_site_label_1
_geom_bond_atom_site_label_2
_geom_bond_distance
_ccdc_geom_bond_type
N1    C33   1.376432 A    
C34   C36   1.436814 A    
C15   H13   1.080090 S    
C21   C22   1.406360 A    
C15   C16   1.388243 A    
C28   H17   1.083785 S    
C25   C26   1.397150 A    
Cu1   O7    1.977169 S    
C7    H9    1.114301 S    
C31   H20   1.083661 S    
C10   C11   1.550981 S    
C17   C18   1.405564 A    
C6    C10   1.550998 S    
C35   C39   1.389461 A    
C12   H7    1.112912 S    
C43   C46   1.443645 A    
C18   C19   1.418681 A    
O7    C4    1.307217 A    
C7    I6    2.144274 S    
C1    C13   1.477134 S    
C5    H1    1.110823 S    
C13   C16   1.414284 A    
Cu1   O5    1.946134 S    
C44   C45   1.392644 A    
O5    C3    1.307484 A    
C30   I3    2.148676 S    
Cu2   N1    2.049302 S    
C37   C43   1.452619 A    
C29   H11   1.083077 S    
C8    H6    1.113135 S    
C41   C42   1.395959 A    
N1    C32   1.357677 A    
C5    C9    1.574669 S    
C37   C38   1.406752 A    
C7    C11   1.535733 S    
C8    C12   1.556294 S    
C41   H19   1.084298 S    
C23   I2    2.131900 S    
O3    Cu1   1.976509 S    
Cu1   N2    2.049650 S    
C27   C30   1.418385 A    
C26   C28   1.402299 A    
C14   C30   1.418422 A    
C38   C39   1.391216 A    
Cu1   Cu2   2.728263 S    
O3    C2    1.307197 A    
N4    O11   1.301766 A    
C42   C44   1.388911 A    
C19   C23   1.398099 A    
C25   H12   1.084059 S    
C16   I4    2.133347 S    
C13   C17   1.407064 A    
C31   C32   1.391019 A    
O1    C1    1.310807 A    
C15   C19   1.401062 A    
C33   C34   1.420287 A    
C22   H15   1.073933 S    
N4    O12   1.299334 A    
C24   H16   1.078846 S    
C20   C24   1.414702 A    
Cu2   O8    1.976510 S    
C33   N4    1.432443 S    
C6    H2    1.114210 S    
C21   C27   1.425678 A    
C4    C10   1.483954 S    
N2    C45   1.376120 A    
C17   H14   1.077489 S    
C46   I5    2.170828 S    
C20   C21   1.417748 A    
O8    C4    1.307180 A    
C7    C9    1.563776 S    
C8    H5    1.102486 S    
C22   C23   1.387155 A    
N2    C46   1.402925 A    
C44   H24   1.084905 S    
C24   C25   1.394012 A    
C5    C6    1.533202 S    
C26   C27   1.413864 A    
C28   C29   1.394876 A    
C14   C29   1.402142 A    
C11   H10   1.113447 S    
O1    Cu1   1.958316 S    
O2    Cu2   1.946134 S    
C38   H22   1.066891 S    
N3    O10   1.302348 A    
O6    C3    1.321337 A    
O4    Cu2   1.977169 S    
C5    I1    2.153746 S    
H4    C11   1.112292 S    
C39   H18   1.084149 S    
C10   C12   1.554004 S    
C31   C35   1.399101 A    
C12   H8    1.113050 S    
O2    C1    1.314675 A    
C3    C14   1.484332 S    
C18   C20   1.427324 A    
O4    C2    1.312347 A    
C32   H21   1.081816 S    
C36   C40   1.403986 A    
C2    C9    1.498054 S    
C6    H3    1.101303 S    
C40   C41   1.385280 A    
C40   H23   1.077649 S    
C34   C35   1.408814 A    
C42   C43   1.411431 A    
N3    O9    1.297123 A    
Cu2   O6    1.958316 S    
C36   C37   1.428123 A    
C8    C9    1.563544 S    
C45   N3    1.436764 S    
