data_mof_unit_8641.cif
_audit_creation_date              2013-03-05T15:49:09-0500
_audit_creation_method            fapswitch 2.2
_symmetry_space_group_name_H-M    P1
_symmetry_Int_Tables_number       1
_space_group_crystal_system       triclinic
_cell_length_a                    22.458062
_cell_length_b                    12.972322
_cell_length_c                    26.992933
_cell_angle_alpha                 89.90598
_cell_angle_beta                  90.764272
_cell_angle_gamma                 90.115792
_cell_volume                      7863.2119571

loop_
_atom_site_label
_atom_site_type_symbol
_atom_site_description
_atom_site_fract_x
_atom_site_fract_y
_atom_site_fract_z
_atom_type_partial_charge
O1    O     O_R   0.769900 0.064540 0.196060 -0.535864
O2    O     O_R   0.230100 0.064540 0.803940 -0.539413
O3    O     O_R   0.269900 0.564540 0.196060 -0.537825
O4    O     O_R   0.730100 0.564540 0.803940 -0.540042
O5    O     O_R   0.750800 0.274080 0.199250 -0.503337
O6    O     O_R   0.249200 0.274080 0.800750 -0.506859
O7    O     O_R   0.250800 0.774080 0.199250 -0.505288
O8    O     O_R   0.749200 0.774080 0.800750 -0.506946
C1    C     C_R   0.720561 0.344823 0.178239 0.556494
C2    C     C_R   0.279441 0.344769 0.821772 0.550676
C3    C     C_R   0.220561 0.844825 0.178240 0.555188
C4    C     C_R   0.779440 0.844772 0.821771 0.551016
O9    O     O_R   0.669990 0.371670 0.194150 -0.505129
O10   O     O_R   0.330010 0.371670 0.805850 -0.509303
O11   O     O_R   0.169990 0.871670 0.194150 -0.505363
O12   O     O_R   0.830010 0.871670 0.805850 -0.508306
O13   O     O_R   0.574600 0.238480 0.197800 -0.500943
O14   O     O_R   0.425400 0.238480 0.802200 -0.510683
O15   O     O_R   0.074600 0.738480 0.197800 -0.504987
O16   O     O_R   0.925400 0.738480 0.802200 -0.508347
C5    C     C_R   0.553614 0.157243 0.177509 0.562784
C6    C     C_R   0.446369 0.157228 0.822500 0.543151
C7    C     C_R   0.053612 0.657244 0.177509 0.551663
C8    C     C_R   0.946365 0.657228 0.822502 0.545248
O17   O     O_R   0.566130 0.068680 0.194240 -0.486407
O18   O     O_R   0.433870 0.068680 0.805760 -0.493614
O19   O     O_R   0.066130 0.568680 0.194240 -0.490335
O20   O     O_R   0.933870 0.568680 0.805760 -0.492941
O21   O     O_R   0.680610 0.992490 0.199570 -0.425293
O22   O     O_R   0.319390 0.992490 0.800430 -0.425484
O23   O     O_R   0.180610 0.492490 0.199570 -0.425233
O24   O     O_R   0.819390 0.492490 0.800430 -0.425478
C9    C     C_R   0.731050 0.001682 0.179262 0.572764
C10   C     C_R   0.268898 0.001578 0.820701 0.568363
C11   C     C_R   0.231050 0.501682 0.179262 0.571025
C12   C     C_R   0.768897 0.501576 0.820701 0.567840
O25   O     O_R   0.770060 0.065440 0.307230 -0.518110
O26   O     O_R   0.229940 0.065440 0.692770 -0.518769
O27   O     O_R   0.270060 0.565440 0.307230 -0.518720
O28   O     O_R   0.729940 0.565440 0.692770 -0.518835
O29   O     O_R   0.750960 0.274920 0.302300 -0.509658
O30   O     O_R   0.249040 0.274920 0.697700 -0.521783
O31   O     O_R   0.250960 0.774920 0.302300 -0.508033
O32   O     O_R   0.749040 0.774920 0.697700 -0.521345
C13   C     C_R   0.721359 0.347454 0.321529 0.574538
C14   C     C_R   0.279145 0.345888 0.677603 0.592418
C15   C     C_R   0.221468 0.847809 0.321422 0.581159
C16   C     C_R   0.778868 0.846472 0.677886 0.589406
O33   O     O_R   0.670160 0.372580 0.305320 -0.472243
O34   O     O_R   0.329840 0.372580 0.694680 -0.429511
O35   O     O_R   0.170160 0.872580 0.305320 -0.460317
O36   O     O_R   0.829840 0.872580 0.694680 -0.437466
O37   O     O_R   0.574760 0.239320 0.300850 -0.447812
O38   O     O_R   0.425240 0.239320 0.699150 -0.438868
O39   O     O_R   0.074760 0.739320 0.300850 -0.459031
O40   O     O_R   0.925240 0.739320 0.699150 -0.437452
C17   C     C_R   0.580868 0.155418 0.326899 0.570730
C18   C     C_R   0.445872 0.159141 0.678219 0.552620
C19   C     C_R   0.055356 0.658411 0.322024 0.582597
C20   C     C_R   0.945885 0.658950 0.678461 0.558916
O41   O     O_R   0.566290 0.069580 0.305400 -0.485480
O42   O     O_R   0.433710 0.069580 0.694600 -0.533466
O43   O     O_R   0.066290 0.569580 0.305400 -0.528381
O44   O     O_R   0.933710 0.569580 0.694600 -0.537971
O45   O     O_R   0.680760 0.993330 0.302620 -0.517764
O46   O     O_R   0.319240 0.993330 0.697380 -0.487969
O47   O     O_R   0.180760 0.493330 0.302620 -0.502824
O48   O     O_R   0.819240 0.493330 0.697380 -0.488416
C21   C     C_R   0.732221 0.000970 0.322637 0.535889
C22   C     C_R   0.268574 0.003485 0.676723 0.545441
C23   C     C_R   0.232237 0.500904 0.322608 0.545040
C24   C     C_R   0.768404 0.502908 0.676960 0.544101
Cr1   Cr    Cr6+3 0.756570 0.170940 0.251190 1.033086
Cr2   Cr    Cr6+3 0.243430 0.170940 0.748810 1.027145
Cr3   Cr    Cr6+3 0.256570 0.670940 0.251190 1.040503
Cr4   Cr    Cr6+3 0.743430 0.670940 0.748810 1.025003
Cr5   Cr    Cr6+3 0.623740 0.299110 0.249580 1.087634
Cr6   Cr    Cr6+3 0.376260 0.299110 0.750420 1.096615
Cr7   Cr    Cr6+3 0.123740 0.799110 0.249580 1.095197
Cr8   Cr    Cr6+3 0.876260 0.799110 0.750420 1.100723
Cr9   Cr    Cr6+3 0.625990 0.036240 0.250480 1.090558
Cr10  Cr    Cr6+3 0.374010 0.036240 0.749520 1.086098
Cr11  Cr    Cr6+3 0.125990 0.536240 0.250480 1.086049
Cr12  Cr    Cr6+3 0.874010 0.536240 0.749520 1.084641
O49   O     O_3   0.668770 0.168760 0.250420 -0.301264
O50   O     O_3   0.331230 0.168760 0.749580 -0.277616
O51   O     O_3   0.168770 0.668760 0.250420 -0.280396
O52   O     O_3   0.831230 0.668760 0.749580 -0.278798
C25   C     C_R   0.514976 0.070138 0.102661 -0.115615
C26   C     C_R   0.484275 0.069948 0.897615 -0.117033
C27   C     C_R   0.014942 0.570144 0.102672 -0.115706
C28   C     C_R   0.984242 0.569943 0.897625 -0.116966
C29   C     C_R   0.505989 0.070078 0.051688 0.011675
C30   C     C_R   0.493199 0.069965 0.948593 0.011770
C31   C     C_R   0.005949 0.570082 0.051700 0.011659
C32   C     C_R   0.993159 0.569962 0.948604 0.011739
C33   C     C_R   0.496370 0.976549 0.974579 -0.135707
C34   C     C_R   0.502167 0.976609 0.025929 -0.135292
C35   C     C_R   0.996315 0.476548 0.974593 -0.135641
C36   C     C_R   0.002111 0.476612 0.025943 -0.135420
H1    H     H_    0.480517 0.996587 0.878624 0.152454
H2    H     H_    0.518282 0.996810 0.121832 0.153735
H3    H     H_    0.980477 0.496581 0.878636 0.152688
H4    H     H_    0.018242 0.496818 0.121844 0.153369
H5    H     H_    0.493538 0.903504 0.955249 0.098307
H6    H     H_    0.504509 0.903605 0.045434 0.099583
H7    H     H_    0.993472 0.403502 0.955265 0.098426
H8    H     H_    0.004443 0.403609 0.045450 0.099440
C37   C     C_R   0.474254 0.162680 0.871937 -0.002905
C38   C     C_R   0.525646 0.162835 0.128104 -0.002296
C39   C     C_R   0.974240 0.662677 0.871943 -0.002829
C40   C     C_R   0.025630 0.662840 0.128111 -0.001579
C41   C     C_R   0.520457 0.257361 0.102844 -0.132904
C42   C     C_R   0.480021 0.257230 0.896977 -0.133942
C43   C     C_R   0.020449 0.757365 0.102849 -0.132692
C44   C     C_R   0.980016 0.757227 0.896982 -0.133619
C45   C     C_R   0.508933 0.258752 0.051687 0.014172
C46   C     C_R   0.491527 0.258668 0.948137 0.014405
C47   C     C_R   0.008919 0.758755 0.051693 0.014052
C48   C     C_R   0.991515 0.758666 0.948142 0.014315
C49   C     C_R   0.503510 0.164565 0.025888 0.063713
C50   C     C_R   0.496301 0.164513 0.974165 0.063931
C51   C     C_R   0.003481 0.664567 0.025897 0.063721
C52   C     C_R   0.996274 0.664512 0.974174 0.063899
C53   C     C_R   0.505188 0.352128 0.025484 -0.135242
C54   C     C_R   0.495915 0.352090 0.974113 -0.135634
C55   C     C_R   0.005187 0.852129 0.025488 -0.135353
C56   C     C_R   0.995915 0.852090 0.974116 -0.135557
H9    H     H_    0.472483 0.329059 0.877313 0.127677
H10   H     H_    0.528505 0.329168 0.122324 0.129741
H11   H     H_    0.972491 0.829056 0.877315 0.128316
H12   H     H_    0.028509 0.829171 0.122327 0.129805
H13   H     H_    0.492285 0.425029 0.954702 0.104666
H14   H     H_    0.509334 0.425090 0.044717 0.105499
H15   H     H_    0.992297 0.925027 0.954704 0.104881
H16   H     H_    0.009343 0.925092 0.044718 0.105467
C57   C     C_R   0.739318 0.955314 0.130001 0.062402
C58   C     C_R   0.260511 0.954875 0.869932 0.061851
C59   C     C_R   0.239319 0.455308 0.130002 0.062991
C60   C     C_R   0.760508 0.454867 0.869930 0.061832
C61   C     C_R   0.793601 0.970428 0.105758 -0.175606
C62   C     C_R   0.206263 0.969896 0.894163 -0.177068
C63   C     C_R   0.293604 0.470412 0.105761 -0.175268
C64   C     C_R   0.706262 0.469897 0.894162 -0.177424
C65   C     C_R   0.798128 0.951287 0.055287 -0.139418
C66   C     C_R   0.201745 0.950782 0.944655 -0.139898
C67   C     C_R   0.298134 0.451265 0.055292 -0.139329
C68   C     C_R   0.701743 0.450780 0.944654 -0.139938
C69   C     C_R   0.748273 0.917764 0.027943 0.004367
C70   C     C_R   0.251581 0.917418 0.972010 0.004648
C71   C     C_R   0.248279 0.417744 0.027946 0.004338
C72   C     C_R   0.751578 0.417404 0.972008 0.004649
C73   C     C_R   0.695184 0.895778 0.052512 -0.110911
C74   C     C_R   0.304588 0.895355 0.947449 -0.110621
C75   C     C_R   0.195187 0.395766 0.052513 -0.110918
C76   C     C_R   0.804582 0.395329 0.947445 -0.110685
C77   C     C_R   0.690357 0.912347 0.103552 0.242805
C78   C     C_R   0.309379 0.911793 0.896384 0.242774
C79   C     C_R   0.190357 0.412344 0.103552 0.243202
C80   C     C_R   0.809372 0.411769 0.896380 0.242822
C81   C     C_R   0.721240 0.824902 0.950144 -0.118041
C82   C     C_R   0.278591 0.824907 0.049942 -0.118180
C83   C     C_R   0.221248 0.324884 0.950147 -0.117972
C84   C     C_R   0.778586 0.324892 0.049940 -0.118245
C85   C     C_R   0.726027 0.811112 0.899422 -0.125679
C86   C     C_R   0.273875 0.811273 0.100680 -0.124874
C87   C     C_R   0.226033 0.311098 0.899424 -0.125436
C88   C     C_R   0.773871 0.311261 0.100679 -0.125356
C89   C     C_R   0.789958 0.961568 0.894444 -0.119624
C90   C     C_R   0.210166 0.961594 0.105410 -0.117644
C91   C     C_R   0.289964 0.461554 0.894449 -0.119591
C92   C     C_R   0.710168 0.461590 0.105408 -0.118050
C93   C     C_R   0.784002 0.976840 0.945218 -0.113749
C94   C     C_R   0.216089 0.976755 0.054606 -0.113483
C95   C     C_R   0.284009 0.476822 0.945222 -0.113658
C96   C     C_R   0.716090 0.476748 0.054604 -0.113534
C97   C     C_R   0.751136 0.906614 0.973725 0.042081
C98   C     C_R   0.248788 0.906483 0.026231 0.042014
C99   C     C_R   0.251144 0.406594 0.973729 0.042120
C100  C     C_R   0.748786 0.406471 0.026228 0.042012
C101  C     C_R   0.762165 0.877054 0.871465 0.026222
C102  C     C_R   0.237852 0.877180 0.128519 0.027685
C103  C     C_R   0.262169 0.377044 0.871468 0.026506
C104  C     C_R   0.737850 0.377173 0.128518 0.026865
H17   H     H_    0.831937 0.001871 0.125310 0.137581
H18   H     H_    0.167977 0.001326 0.874589 0.135750
H19   H     H_    0.331940 0.501853 0.125314 0.137645
H20   H     H_    0.667977 0.501339 0.874590 0.135153
H21   H     H_    0.696277 0.768644 0.971099 0.100691
H22   H     H_    0.303412 0.768609 0.029089 0.100537
H23   H     H_    0.196285 0.268624 0.971102 0.100721
H24   H     H_    0.803404 0.268589 0.029087 0.100555
H25   H     H_    0.704857 0.744173 0.882859 0.135693
H26   H     H_    0.294976 0.744415 0.117348 0.136113
H27   H     H_    0.204862 0.244160 0.882860 0.135741
H28   H     H_    0.794969 0.244401 0.117347 0.136085
H29   H     H_    0.840285 0.965300 0.037432 0.117294
H30   H     H_    0.159635 0.964768 0.962519 0.116797
H31   H     H_    0.340292 0.465272 0.037438 0.117336
H32   H     H_    0.659635 0.464774 0.962519 0.116706
H33   H     H_    0.806137 0.042220 0.962304 0.102930
H34   H     H_    0.194040 0.042046 0.037396 0.103351
H35   H     H_    0.306145 0.542200 0.962309 0.102893
H36   H     H_    0.694044 0.542042 0.037394 0.103342
H37   H     H_    0.818105 0.013250 0.873561 0.137795
H38   H     H_    0.182120 0.013245 0.126213 0.140070
H39   H     H_    0.318110 0.513238 0.873566 0.137461
H40   H     H_    0.682124 0.513245 0.126211 0.139954
H41   H     H_    0.656425 0.869839 0.031707 0.088477
H42   H     H_    0.343325 0.869489 0.968266 0.088784
H43   H     H_    0.156429 0.369830 0.031707 0.088513
H44   H     H_    0.843318 0.369452 0.968260 0.088704
C105  C     C_R   0.564806 0.162849 0.379274 0.073292
C106  C     C_R   0.478416 0.169410 0.630929 0.056262
C107  C     C_R   0.037606 0.664473 0.373900 0.080078
C108  C     C_R   0.974681 0.667251 0.629860 0.059294
C109  C     C_R   0.511382 0.209119 0.394316 0.270766
C110  C     C_R   0.477955 0.262843 0.603643 0.263564
C111  C     C_R   0.004333 0.746868 0.392874 0.245781
C112  C     C_R   0.987639 0.763486 0.607692 0.259658
C113  C     C_R   0.498708 0.213964 0.445202 -0.059704
C114  C     C_R   0.500455 0.264085 0.555203 -0.067491
C115  C     C_R   0.994966 0.751836 0.444399 -0.066904
C116  C     C_R   0.003800 0.766527 0.557427 -0.074579
C117  C     C_R   0.538544 0.173114 0.480688 0.003429
C118  C     C_R   0.523032 0.174316 0.533706 0.017394
C119  C     C_R   0.019684 0.676931 0.476318 0.014790
C120  C     C_R   0.006661 0.675410 0.529656 0.035312
C121  C     C_R   0.591709 0.127957 0.465088 -0.136275
C122  C     C_R   0.526674 0.083905 0.561974 -0.097838
C123  C     C_R   0.054450 0.598051 0.456688 -0.135595
C124  C     C_R   0.995929 0.580620 0.552786 -0.084337
C125  C     C_R   0.604786 0.123570 0.414801 -0.190251
C126  C     C_R   0.504524 0.081424 0.609976 -0.154608
C127  C     C_R   0.062386 0.590993 0.406251 -0.157029
C128  C     C_R   0.981036 0.576491 0.602210 -0.162744
H45   H     H_    0.543971 0.013655 0.546048 0.135233
H46   H     H_    0.623273 0.096763 0.491831 0.117468
H47   H     H_    0.996587 0.509111 0.532150 0.150163
H48   H     H_    0.075761 0.541245 0.480412 0.113375
H49   H     H_    0.505702 0.009044 0.630012 0.148873
H50   H     H_    0.646586 0.090429 0.403508 0.097917
H51   H     H_    0.971046 0.501573 0.617854 0.155457
H52   H     H_    0.090119 0.529367 0.392666 0.132076
H53   H     H_    0.457118 0.247288 0.457057 0.189358
H54   H     H_    0.498886 0.334568 0.533640 0.142347
H55   H     H_    0.967867 0.812812 0.459316 0.181719
H56   H     H_    0.013454 0.839772 0.539923 0.114220
C129  C     C_R   0.744106 0.948992 0.369849 -0.017422
C130  C     C_R   0.265087 0.976894 0.624854 0.004009
C131  C     C_R   0.244544 0.447522 0.369397 -0.014332
C132  C     C_R   0.764895 0.476427 0.625179 0.006795
C133  C     C_R   0.697708 0.898674 0.394209 -0.096069
C134  C     C_R   0.218146 0.918896 0.605238 -0.119745
C135  C     C_R   0.198228 0.397954 0.394180 -0.099453
C136  C     C_R   0.721898 0.408893 0.606497 -0.114100
C137  C     C_R   0.703164 0.876610 0.444275 -0.147803
C138  C     C_R   0.214963 0.902581 0.554367 -0.149521
C139  C     C_R   0.204855 0.373183 0.443884 -0.148811
C140  C     C_R   0.718876 0.391232 0.555732 -0.143609
C141  C     C_R   0.755587 0.902012 0.470299 0.017525
C142  C     C_R   0.257666 0.946771 0.523215 0.003179
C143  C     C_R   0.258376 0.395129 0.469074 0.019130
C144  C     C_R   0.757833 0.443066 0.523828 0.007017
C145  C     C_R   0.805567 0.940052 0.444639 0.223507
C146  C     C_R   0.304474 0.007377 0.542787 0.217537
C147  C     C_R   0.308128 0.431915 0.442710 0.218250
C148  C     C_R   0.800863 0.512408 0.542619 0.210399
C149  C     C_R   0.798871 0.964364 0.394419 -0.109099
C150  C     C_R   0.307634 0.021327 0.593815 -0.100829
C151  C     C_R   0.300234 0.459264 0.392940 -0.112467
C152  C     C_R   0.803846 0.528142 0.593498 -0.108798
C153  C     C_R   0.772798 0.979356 0.553717 -0.059142
C154  C     C_R   0.231373 0.004112 0.438397 -0.060286
C155  C     C_R   0.277659 0.472956 0.552017 -0.056866
C156  C     C_R   0.732254 0.501745 0.439027 -0.051935
C157  C     C_R   0.776802 0.970022 0.605434 0.214858
C158  C     C_R   0.225248 0.984040 0.387626 0.218675
C159  C     C_R   0.280326 0.465780 0.603845 0.214480
C160  C     C_R   0.726046 0.482456 0.388208 0.218906
C161  C     C_R   0.739317 0.793893 0.597421 -0.159369
C162  C     C_R   0.265080 0.811239 0.402590 -0.153255
C163  C     C_R   0.240459 0.291038 0.597040 -0.159435
C164  C     C_R   0.762783 0.307553 0.402997 -0.158005
C165  C     C_R   0.736617 0.803707 0.546559 -0.096925
C166  C     C_R   0.270677 0.832201 0.452562 -0.094625
C167  C     C_R   0.238886 0.298812 0.546020 -0.103246
C168  C     C_R   0.768589 0.327810 0.453006 -0.102941
C169  C     C_R   0.755259 0.894938 0.524375 0.026905
C170  C     C_R   0.252712 0.927499 0.470498 0.019516
C171  C     C_R   0.259026 0.388438 0.523214 0.029974
C172  C     C_R   0.752424 0.423986 0.471069 0.019907
C173  C     C_R   0.761879 0.874399 0.627171 0.017127
C174  C     C_R   0.240486 0.884889 0.370051 0.016950
C175  C     C_R   0.263275 0.372046 0.626375 0.019912
C176  C     C_R   0.739915 0.382890 0.370490 0.017072
H57   H     H_    0.655279 0.884746 0.375846 0.174180
H58   H     H_    0.184455 0.886590 0.629091 0.139286
H59   H     H_    0.155358 0.385482 0.376346 0.162993
H60   H     H_    0.691131 0.370356 0.630966 0.136723
H61   H     H_    0.784266 0.051666 0.536065 0.152764
H62   H     H_    0.219493 0.078908 0.453078 0.145481
H63   H     H_    0.290429 0.544092 0.533904 0.154629
H64   H     H_    0.721461 0.576958 0.453809 0.149648
H65   H     H_    0.664887 0.845912 0.463411 0.132599
H66   H     H_    0.178864 0.856506 0.539066 0.125258
H67   H     H_    0.166722 0.343248 0.463484 0.127243
H68   H     H_    0.685635 0.338361 0.541082 0.125223
H69   H     H_    0.722395 0.738341 0.524380 0.135191
H70   H     H_    0.287920 0.773466 0.477479 0.150219
H71   H     H_    0.223872 0.233378 0.524249 0.129902
H72   H     H_    0.784721 0.267983 0.477822 0.148319
H73   H     H_    0.727775 0.719679 0.613092 0.149229
H74   H     H_    0.276485 0.734560 0.389989 0.148581
H75   H     H_    0.227608 0.218001 0.613258 0.149788
H76   H     H_    0.772846 0.230393 0.390266 0.145400
H77   H     H_    0.835709 0.999286 0.375019 0.176043
H78   H     H_    0.342981 0.068664 0.609496 0.153462
H79   H     H_    0.336982 0.493305 0.373079 0.177739
H80   H     H_    0.836380 0.581868 0.608602 0.145045
O53   O     O_3   0.637470 0.891937 0.127352 -0.676587
H81   H     H_    0.608182 0.862783 0.103357 0.304192
O54   O     O_3   0.362154 0.891185 0.872558 -0.677982
H82   H     H_    0.391354 0.861822 0.896557 0.303381
O55   O     O_3   0.137467 0.391948 0.127350 -0.676192
H83   H     H_    0.108178 0.362800 0.103354 0.304133
O56   O     O_3   0.862144 0.391147 0.872551 -0.677831
H84   H     H_    0.891342 0.361770 0.896548 0.303446
O57   O     O_3   0.472092 0.247023 0.358979 -0.646839
H85   H     H_    0.437132 0.276860 0.375810 0.342415
O58   O     O_3   0.453172 0.350488 0.623758 -0.648989
H86   H     H_    0.455571 0.407803 0.599502 0.351403
O59   O     O_3   0.981060 0.819857 0.360801 -0.668799
H87   H     H_    0.958842 0.871664 0.380186 0.349603
O60   O     O_3   0.983173 0.852928 0.635087 -0.660768
H88   H     H_    0.993210 0.912747 0.613821 0.336745
N1    N     N_R   0.795608 0.057003 0.634853 0.086813
O61   O     O_R   0.776668 0.068307 0.679869 -0.330305
O62   O     O_R   0.826193 0.131312 0.614980 -0.316165
N2    N     N_R   0.204102 0.064001 0.354826 0.094758
O63   O     O_R   0.222963 0.069483 0.309520 -0.306159
O64   O     O_R   0.171470 0.138605 0.371704 -0.342745
N3    N     N_R   0.299861 0.553190 0.632623 0.087818
O65   O     O_R   0.332960 0.624119 0.612717 -0.315623
O66   O     O_R   0.279271 0.568506 0.676839 -0.327638
N4    N     N_R   0.706307 0.563676 0.355519 0.095401
O67   O     O_R   0.675196 0.640056 0.372545 -0.340852
O68   O     O_R   0.725082 0.568251 0.310162 -0.305795
N5    N     N_R   0.862379 0.955925 0.468949 0.060864
O69   O     O_R   0.900064 0.022631 0.451475 -0.358628
O70   O     O_R   0.879248 0.896947 0.505549 -0.310132
N6    N     N_R   0.348388 0.055597 0.511894 0.074855
O71   O     O_R   0.367855 0.009702 0.472483 -0.311297
O72   O     O_R   0.373167 0.141897 0.525608 -0.334020
N7    N     N_R   0.365936 0.443280 0.465908 0.062247
O73   O     O_R   0.404730 0.507373 0.447892 -0.340354
O74   O     O_R   0.382459 0.382112 0.501757 -0.329949
N8    N     N_R   0.841478 0.566794 0.511017 0.067424
O75   O     O_R   0.865019 0.521348 0.473083 -0.316845
O76   O     O_R   0.859733 0.658834 0.522963 -0.322396

loop_
_geom_bond_atom_site_label_1
_geom_bond_atom_site_label_2
_geom_bond_distance
_ccdc_geom_bond_type
O4    C12   1.273636 A    
C129  C133  1.399409 A    
O39   C19   1.273189 A    
C62   C66   1.389908 A    
C140  C144  1.405360 A    
Cr7   O51   1.971972 S    
C5    C38   1.468231 S    
O59   H87   0.991924 S    
C143  C147  1.414390 A    
C7    C40   1.468211 S    
C140  H68   1.083986 S    
C137  C141  1.401854 A    
C91   C103  1.401934 A    
C29   C49   1.409591 A    
C74   C78   1.399973 A    
C139  C143  1.402009 A    
C89   H37   1.083223 S    
C19   C107  1.463299 S    
C32   C35   1.400646 A    
O21   C9    1.270314 A    
C93   H33   1.082882 S    
C144  C172  1.449333 S    
C15   C174  1.457081 S    
C69   C73   1.400646 A    
O44   Cr12  2.056914 S    
C11   C59   1.474477 S    
C66   C70   1.401462 A    
C3    O11   1.269130 A    
C72   C76   1.400590 A    
C9    C57   1.474479 S    
C130  C134  1.393183 A    
C71   C75   1.400643 A    
C61   C65   1.390276 A    
C33   H5    1.083816 S    
O2    C10   1.273637 A    
C59   C79   1.416809 A    
C4    C101  1.463424 S    
C159  N3    1.439942 S    
O17   Cr9   2.057828 S    
C153  C169  1.405158 A    
C105  C125  1.400983 A    
C154  H62   1.083876 S    
C23   C131  1.462759 S    
N1    O61   1.301389 A    
O9    Cr5   2.058254 S    
C109  C113  1.407980 A    
O16   Cr8   1.936186 S    
O54   H82   0.991783 S    
C84   C88   1.386089 A    
C55   H16   1.083503 S    
C56   H15   1.083501 S    
C139  H67   1.083590 S    
C68   H32   1.083019 S    
C30   C33   1.400647 A    
O13   C5    1.275030 A    
O28   Cr4   2.060558 S    
O12   Cr8   2.062420 S    
C158  N2    1.439827 S    
C72   C100  1.472349 S    
O15   C7    1.275034 A    
C148  N8    1.439989 S    
O46   Cr10  1.938362 S    
C71   C99   1.473122 S    
C119  C120  1.473065 S    
C151  H79   1.083088 S    
O48   C24   1.267371 A    
C6    C37   1.468250 S    
N6    O71   1.301094 A    
C162  H74   1.084074 S    
C30   C50   1.409542 A    
C157  N1    1.440197 S    
C63   C67   1.390270 A    
C80   O56   1.382771 S    
C106  C110  1.417233 A    
C81   C97   1.402655 A    
C82   H22   1.082732 S    
C8    O20   1.264689 A    
C90   C94   1.393134 A    
C87   H27   1.083471 S    
Cr12  O52   1.971055 S    
O7    Cr3   1.939660 S    
C28   C39   1.404410 A    
C17   O41   1.295939 A    
C47   C51   1.411581 A    
C19   O43   1.263067 A    
C34   H6    1.083819 S    
C20   O44   1.268402 A    
Cr8   O52   1.968529 S    
C1    C104  1.462734 S    
O46   C22   1.267441 A    
C165  H69   1.083922 S    
C77   O53   1.382775 S    
C122  C126  1.394398 A    
O60   H88   0.991842 S    
C16   O36   1.271111 A    
C149  H77   1.083122 S    
C74   H42   1.082882 S    
O53   H81   0.991784 S    
O27   C23   1.264955 A    
O31   C15   1.269797 A    
C81   C85   1.386700 A    
O32   C16   1.265589 A    
C119  C123  1.397681 A    
O47   Cr11  1.938465 S    
N5    O69   1.301501 A    
C113  C117  1.405737 A    
C86   C102  1.404026 A    
C79   O55   1.382775 S    
C33   C34   1.390464 A    
C51   C52   1.403362 A    
O24   C12   1.271415 A    
C115  C119  1.407592 A    
C158  C174  1.415850 A    
C165  C169  1.391709 A    
O8    Cr4   1.942471 S    
C46   C50   1.411612 A    
O32   Cr4   1.932993 S    
C1    O9    1.269130 A    
C161  C173  1.407859 A    
C59   C63   1.404547 A    
O11   Cr7   2.058254 S    
C148  C152  1.389502 A    
C163  C175  1.408404 A    
O3    C11   1.272606 A    
C133  H57   1.083197 S    
Cr5   O49   1.971972 S    
C90   C102  1.401784 A    
C138  C142  1.404678 A    
C121  C125  1.393901 A    
C43   H12   1.084100 S    
C28   C32   1.387920 A    
C36   H8    1.083817 S    
C41   H10   1.084098 S    
O22   C10   1.271410 A    
C75   C79   1.400399 A    
C4    O12   1.267751 A    
C76   C80   1.399976 A    
C2    O10   1.267747 A    
C115  H55   1.080609 S    
C118  C122  1.400085 A    
C25   C38   1.404363 A    
C10   C58   1.473780 S    
C24   C132  1.440959 S    
C44   C48   1.401663 A    
C141  C169  1.462522 S    
C123  H48   1.083458 S    
C27   C40   1.404356 A    
C66   H30   1.083021 S    
C67   C71   1.401629 A    
O5    C1    1.271048 A    
O25   C21   1.264891 A    
C58   C78   1.416636 A    
N4    O68   1.301421 A    
C146  N6    1.441197 S    
O8    C4    1.270057 A    
C156  H64   1.083855 S    
N8    O76   1.301313 A    
C154  C170  1.398662 A    
Cr1   O49   1.971794 S    
C37   C42   1.406325 A    
C41   C45   1.401616 A    
Cr3   O51   1.971794 S    
N7    O74   1.301082 A    
C17   C105  1.467065 S    
C43   C47   1.401615 A    
N3    O66   1.301413 A    
C83   C99   1.402655 A    
C91   H39   1.083224 S    
C145  N5    1.441496 S    
O26   Cr2   2.060558 S    
C31   C51   1.409595 A    
N7    O73   1.301484 A    
C5    O17   1.264554 A    
O29   C13   1.268870 A    
O28   C24   1.264970 A    
O14   C6    1.275233 A    
C68   C72   1.401462 A    
C21   C129  1.462461 S    
O40   Cr8   1.942782 S    
C57   C77   1.416806 A    
C20   C108  1.474003 S    
C156  C160  1.399863 A    
O41   Cr9   2.059075 S    
C60   C80   1.416634 A    
C136  C140  1.390452 A    
C111  O59   1.380732 S    
O33   Cr5   2.053725 S    
C25   C29   1.387962 A    
O35   Cr7   2.053725 S    
C82   C98   1.402391 A    
O29   Cr1   1.936507 S    
C133  C137  1.384824 A    
C125  H50   1.081046 S    
C96   C100  1.406045 A    
C61   H17   1.083193 S    
C89   C93   1.393333 A    
C122  H45   1.083211 S    
C123  C127  1.378630 A    
C152  H80   1.084767 S    
C26   C37   1.404403 A    
C84   H24   1.082733 S    
C45   C53   1.403771 A    
Cr9   O49   1.967661 S    
C92   C96   1.393134 A    
C47   C55   1.403772 A    
C53   H14   1.083503 S    
C18   O42   1.272867 A    
Cr11  O51   1.967661 S    
O26   C22   1.265060 A    
O20   Cr12  2.057737 S    
C96   H36   1.082882 S    
C67   H31   1.083005 S    
C137  H65   1.083579 S    
C166  H70   1.084168 S    
C168  C172  1.390920 A    
C128  H51   1.083271 S    
N2    O64   1.301718 A    
C90   H38   1.083225 S    
O38   C18   1.275376 A    
C164  C176  1.405716 A    
C150  H78   1.084582 S    
C116  C120  1.402729 A    
C94   H34   1.082882 S    
C110  O58   1.381991 S    
O30   C14   1.266705 A    
C145  C149  1.397535 A    
C82   C86   1.386085 A    
C147  C151  1.398008 A    
C116  H56   1.083270 S    
N6    O72   1.301311 A    
C124  H47   1.083060 S    
O6    Cr2   1.942471 S    
C39   C44   1.406325 A    
C22   C130  1.443589 S    
C84   C100  1.402391 A    
O42   Cr10  2.056914 S    
O18   Cr10  2.057737 S    
O31   Cr3   1.936507 S    
C2    C103  1.463422 S    
C106  C126  1.407161 A    
C3    C102  1.462733 S    
O34   Cr6   2.053392 S    
N1    O62   1.301622 A    
C26   C30   1.387922 A    
C161  C165  1.379140 A    
O24   Cr12  1.937740 S    
O30   Cr2   1.932993 S    
C166  C170  1.390929 A    
C163  C167  1.380678 A    
O48   Cr12  1.938362 S    
C129  C149  1.403539 A    
C164  C168  1.380060 A    
C58   C62   1.404513 A    
O37   C17   1.301299 A    
C31   C36   1.400629 A    
C162  C174  1.405634 A    
C15   O35   1.267909 A    
Cr10  O50   1.971055 S    
C117  C121  1.401109 A    
O40   C20   1.274608 A    
O43   Cr11  2.059075 S    
C155  C159  1.402435 A    
O58   H86   0.991753 S    
C136  H60   1.083186 S    
C141  C145  1.414403 A    
C134  H58   1.083280 S    
C107  C111  1.406544 A    
O39   Cr7   1.939192 S    
C131  C135  1.399053 A    
C13   O33   1.267834 A    
O13   Cr5   1.936235 S    
N2    O63   1.301334 A    
O15   Cr7   1.936235 S    
C89   C101  1.401934 A    
C49   C50   1.403361 A    
C53   C54   1.399476 A    
C108  C128  1.403591 A    
C42   H9    1.084095 S    
O23   C11   1.270313 A    
C55   C56   1.399475 A    
C120  C124  1.400076 A    
C57   C61   1.404544 A    
C60   C64   1.404513 A    
C160  N4    1.440009 S    
O6    C2    1.270058 A    
C48   C56   1.403759 A    
C143  C171  1.463721 S    
C35   H7    1.083818 S    
O1    Cr1   2.056580 S    
O19   Cr11  2.057828 S    
C95   H35   1.082882 S    
O56   H84   0.991782 S    
C112  O60   1.381450 S    
C155  C171  1.404950 A    
C73   H41   1.082888 S    
C114  H54   1.083447 S    
O45   C21   1.272996 A    
O47   C23   1.272916 A    
C73   C77   1.400401 A    
O55   H83   0.991787 S    
C153  C157  1.402760 A    
C127  H52   1.081913 S    
C111  C115  1.411001 A    
C6    O18   1.264691 A    
C114  C118  1.400844 A    
C163  H75   1.083290 S    
C121  H46   1.083460 S    
O36   Cr8   2.053392 S    
C65   C69   1.401631 A    
C16   C173  1.461442 S    
O38   Cr6   1.942782 S    
C109  O57   1.381306 S    
N3    O65   1.301593 A    
O22   Cr10  1.937740 S    
C25   H2    1.084335 S    
C76   H44   1.082884 S    
O57   H85   0.991945 S    
O37   Cr5   1.939192 S    
C124  C128  1.380619 A    
C27   H4    1.084335 S    
C64   C68   1.389908 A    
O1    C9    1.272601 A    
O7    C3    1.271053 A    
C153  H61   1.083548 S    
C155  H63   1.083532 S    
C134  C138  1.390587 A    
O23   Cr11  1.940514 S    
C147  N7    1.441245 S    
C45   C49   1.411582 A    
C138  H66   1.083990 S    
C28   H3    1.084292 S    
C160  C176  1.414793 A    
O45   Cr9   1.938465 S    
C87   C103  1.404032 A    
C78   O54   1.382775 S    
C54   H13   1.083500 S    
C88   C104  1.404027 A    
C7    O19   1.264566 A    
Cr4   O52   1.971910 S    
O2    Cr2   2.052488 S    
O14   Cr6   1.936186 S    
C70   C98   1.472341 S    
Cr6   O50   1.968529 S    
O10   Cr6   2.062420 S    
N5    O70   1.301390 A    
C94   C98   1.406041 A    
O5    Cr1   1.939660 S    
C8    C39   1.468253 S    
C161  H73   1.083302 S    
C110  C114  1.408109 A    
C164  H76   1.084052 S    
C62   H18   1.083197 S    
C135  C139  1.385242 A    
C32   C52   1.409539 A    
O16   C8    1.275238 A    
C92   H40   1.083225 S    
C107  C127  1.402616 A    
C81   H21   1.082732 S    
C146  C150  1.390381 A    
C131  C151  1.403428 A    
C105  C109  1.407609 A    
C132  C152  1.400811 A    
C95   C99   1.406043 A    
C91   C95   1.393330 A    
C142  C170  1.447964 S    
C83   C87   1.386699 A    
C26   H1    1.084292 S    
C65   H29   1.083002 S    
C92   C104  1.401783 A    
C35   C36   1.390466 A    
C93   C97   1.406045 A    
C144  C148  1.408976 A    
C69   C97   1.473133 S    
C117  C118  1.477530 S    
Cr2   O50   1.971910 S    
C12   C60   1.473780 S    
C38   C41   1.406356 A    
C42   C46   1.401658 A    
O21   Cr9   1.940514 S    
C162  C166  1.380496 A    
O27   Cr3   2.058073 S    
C88   H28   1.083469 S    
C167  C171  1.392225 A    
C86   H26   1.083469 S    
C14   C175  1.462910 S    
C130  C150  1.401719 A    
C135  H59   1.082639 S    
C18   C106  1.485022 S    
C112  C116  1.409629 A    
O3    Cr3   2.056580 S    
C64   H20   1.083198 S    
O25   Cr1   2.058073 S    
C154  C158  1.400329 A    
C63   H19   1.083193 S    
C85   H25   1.083471 S    
C142  C146  1.409052 A    
C83   H23   1.082731 S    
C14   O34   1.270238 A    
C132  C136  1.392580 A    
C85   C101  1.404029 A    
C75   H43   1.082889 S    
N4    O67   1.301546 A    
C44   H11   1.084096 S    
C113  H53   1.082485 S    
C13   C176  1.455372 S    
C159  C175  1.413122 A    
N8    O75   1.301234 A    
O4    Cr4   2.052488 S    
C126  H49   1.082984 S    
C156  C172  1.399732 A    
C157  C173  1.412974 A    
C27   C31   1.387966 A    
C70   C74   1.400588 A    
C46   C54   1.403758 A    
C167  H71   1.083862 S    
C108  C112  1.414907 A    
C29   C34   1.400633 A    
C168  H72   1.084082 S    
C40   C43   1.406355 A    
C48   C52   1.411615 A    
