data_mof_unit_40318.cif
_audit_creation_date              2012-12-11T14:24:51-0500
_audit_creation_method            fapswitch 2.2
_symmetry_space_group_name_H-M    P1
_symmetry_Int_Tables_number       1
_space_group_crystal_system       triclinic
_cell_length_a                    19.107187
_cell_length_b                    11.194433
_cell_length_c                    18.623218
_cell_angle_alpha                 90.299167
_cell_angle_beta                  91.433205
_cell_angle_gamma                 90.74988
_cell_volume                      3981.74835909

loop_
_atom_site_label
_atom_site_type_symbol
_atom_type_description
_atom_site_fract_x
_atom_site_fract_y
_atom_site_fract_z
_atom_type_partial_charge
Br1   Br    Br    0.410245 0.950986 0.103390 -0.386494
Br2   Br    Br    0.957312 0.141387 0.061394 -0.472017
Br3   Br    Br    0.566683 0.571474 0.906483 -0.438480
Br4   Br    Br    0.457357 0.641254 0.061581 -0.476270
Br5   Br    Br    0.498257 0.887786 0.940014 -0.463336
Br6   Br    Br    0.910232 0.450979 0.103305 -0.364285
Br7   Br    Br    0.998079 0.387732 0.939968 -0.473127
Br8   Br    Br    0.914016 0.941254 0.941432 -0.496017
Br9   Br    Br    0.264531 0.109782 0.120874 -0.486252
Br10  Br    Br    0.413987 0.441289 0.941456 -0.496143
Br11  Br    Br    0.764538 0.609665 0.121009 -0.524233
Br12  Br    Br    0.066599 0.071875 0.906183 -0.428477
C1    C     C_R   0.716670 0.341223 0.138718 0.557265
C2    C     C_R   0.237826 0.874400 0.066910 0.042557
C3    C     C_R   0.681084 0.626701 0.386247 -0.085377
C4    C     C_R   0.879929 0.190067 0.590961 -0.129756
C5    C     C_R   0.043876 0.003385 0.490502 -0.179482
C6    C     C_R   0.457381 0.503332 0.509952 -0.186310
C7    C     C_R   0.624080 0.689078 0.409142 -0.134916
C8    C     C_R   0.894278 0.190473 0.518765 -0.026036
C9    C     C_R   0.047891 0.995929 0.564573 -0.060926
C10   C     C_R   0.452753 0.497434 0.435801 -0.068224
C11   C     C_R   0.608468 0.687882 0.481036 -0.029930
C12   C     C_R   0.848559 0.136939 0.468147 0.421290
C13   C     C_R   0.260642 0.392305 0.932334 -0.006958
C14   C     C_R   0.104540 0.940117 0.597243 0.446874
C15   C     C_R   0.394946 0.442606 0.402718 0.448203
C16   C     C_R   0.653029 0.634708 0.531836 0.422587
C17   C     C_R   0.732205 0.018653 0.444566 -0.062113
C18   C     C_R   0.228526 0.883324 0.588790 -0.007006
C19   C     C_R   0.270327 0.384138 0.411102 0.000514
C20   C     C_R   0.768408 0.518561 0.555765 -0.063081
C21   C     C_R   0.734128 0.388271 0.349333 0.573331
C22   C     C_R   0.290256 0.329277 0.638141 0.585232
C23   C     C_R   0.209542 0.829942 0.361442 0.589664
C24   C     C_R   0.737794 0.374359 0.066907 0.045664
C25   C     C_R   0.766038 0.888329 0.650712 0.550999
C26   C     C_R   0.532299 0.158180 0.352021 0.572094
C27   C     C_R   0.465534 0.154635 0.645800 0.537623
C28   C     C_R   0.034659 0.654335 0.354297 0.542182
C29   C     C_R   0.967580 0.658644 0.647954 0.573315
C30   C     C_R   0.728906 0.026130 0.364227 0.596564
C31   C     C_R   0.253512 0.961828 0.648788 0.615636
C32   C     C_R   0.246158 0.461672 0.351194 0.629463
C33   C     C_R   0.771348 0.525600 0.636158 0.593715
C34   C     C_3   0.523598 0.234457 0.969840 -0.110386
C35   C     C_R   0.699747 0.848535 0.966766 -0.064019
C36   C     C_3   0.477452 0.261244 0.035575 -0.099855
C37   C     C_3   0.023661 0.734400 0.969790 -0.107287
C38   C     C_3   0.977540 0.761241 0.035535 -0.103589
C39   C     C_3   0.554713 0.125398 0.008934 -0.156306
C40   C     C_3   0.417492 0.179552 0.003877 -0.126309
C41   C     C_3   0.054752 0.625311 0.008882 -0.156371
C42   C     C_3   0.917546 0.679598 0.003860 -0.127367
C43   C     C_3   0.507937 0.153997 0.072442 0.016378
C44   C     C_3   0.463933 0.154127 0.938943 0.024460
C45   C     C_3   0.007999 0.653971 0.072403 0.012217
C46   C     C_R   0.270451 0.793898 0.020270 -0.054384
C47   C     C_3   0.963960 0.654125 0.938920 0.027621
C48   C     C_R   0.199696 0.348757 0.966711 -0.063494
C49   C     C_R   0.770349 0.293827 0.020233 -0.054698
C50   C     C_R   0.697641 0.850935 0.042588 0.011766
C51   C     C_R   0.271925 0.819583 0.946210 -0.009250
C52   C     C_R   0.197589 0.351059 0.042532 0.006728
C53   C     C_R   0.272255 0.370640 0.855910 0.550823
C54   C     C_R   0.771797 0.319536 0.946174 -0.008123
C55   C     C_R   0.815374 0.929633 0.049051 -0.123087
C56   C     C_R   0.241723 0.022282 0.975716 -0.106916
C57   C     C_R   0.315344 0.429652 0.049043 -0.120357
C58   C     C_R   0.741832 0.522319 0.975765 -0.103776
C59   C     C_R   0.820274 0.922717 0.975751 0.107240
C60   C     C_R   0.238457 0.993820 0.047903 0.157498
C61   C     C_R   0.320246 0.422785 0.975744 0.103965
C62   C     C_R   0.738519 0.493800 0.047947 0.158949
C63   C     C_R   0.646057 0.784502 0.929596 -0.034919
C64   C     C_R   0.216692 0.841269 0.138719 0.562648
C65   C     C_R   0.320126 0.714561 0.047414 -0.075331
C66   C     C_R   0.145983 0.284859 0.929495 -0.036073
C67   C     C_R   0.820040 0.214498 0.047340 -0.074414
C68   C     C_R   0.111326 0.192761 0.963560 0.216340
C69   C     C_R   0.876355 0.185692 0.007113 0.245177
C70   C     C_R   0.611383 0.692504 0.963741 0.217927
C71   C     C_R   0.376471 0.685748 0.007240 0.243791
C72   C     C_R   0.614448 0.687069 0.038134 -0.019799
C73   C     C_R   0.372441 0.698198 0.932703 0.010732
C74   C     C_R   0.114398 0.187185 0.037955 -0.019426
C75   C     C_R   0.772266 0.870599 0.855925 0.536591
C76   C     C_R   0.872255 0.198080 0.932570 0.008227
C77   C     C_R   0.648384 0.777574 0.077278 -0.042048
C78   C     C_R   0.313499 0.749209 0.901620 -0.115569
C79   C     C_R   0.148324 0.277645 0.077166 -0.040258
C80   C     C_R   0.813292 0.249092 0.901538 -0.120522
C81   C     C_R   0.533712 0.153471 0.145066 0.580360
C82   C     C_R   0.439982 0.150708 0.862784 0.571956
C83   C     C_R   0.033757 0.653462 0.145036 0.579822
C84   C     C_R   0.939989 0.650709 0.862778 0.572759
C85   C     C_R   0.752336 0.908653 0.081606 0.004880
C86   C     C_3   0.449962 0.072414 0.042615 0.210911
C87   C     C_R   0.249461 0.932079 0.923738 0.023283
C88   C     C_R   0.252304 0.408688 0.081585 0.005828
C89   C     C_R   0.749466 0.432129 0.923754 0.021755
C90   C     C_R   0.489798 0.150687 0.571435 0.013420
C91   C     C_R   0.502160 0.170499 0.422643 0.040438
C92   C     C_R   0.997564 0.671606 0.577359 0.041269
C93   C     C_R   0.010648 0.650394 0.428704 0.018207
C94   C     C_R   0.470490 0.052233 0.524493 0.051982
C95   C     C_R   0.464817 0.073693 0.450354 0.039044
C96   C     C_R   0.035891 0.577166 0.549848 0.040536
C97   C     C_3   0.495057 0.045900 0.978043 0.195774
C98   C     C_R   0.030635 0.554063 0.475719 0.052014
C99   C     C_R   0.531481 0.257913 0.469298 -0.144465
C100  C     C_R   0.521857 0.251238 0.542784 -0.165802
C101  C     C_R   0.977648 0.749174 0.457214 -0.163930
C102  C     C_R   0.967580 0.756168 0.530628 -0.145611
C103  C     C_R   0.461031 0.931634 0.546549 0.004991
C104  C     C_R   0.431400 0.988711 0.404361 -0.074113
C105  C     C_R   0.069835 0.495403 0.596020 -0.080152
C106  C     C_R   0.040888 0.433646 0.453832 0.000250
C107  C     C_R   0.082093 0.380146 0.572766 -0.090143
C108  C     C_3   0.949991 0.572441 0.042590 0.210807
C109  C     C_R   0.064463 0.347988 0.502602 -0.072283
C110  C     C_R   0.437644 0.843562 0.498044 -0.063849
C111  C     C_R   0.419950 0.873135 0.427792 -0.081237
C112  C     C_R   0.738514 0.964381 0.591443 -0.028826
C113  C     C_R   0.209465 0.836994 0.441569 -0.057648
C114  C     C_R   0.289640 0.336812 0.557985 -0.053151
C115  C     C_R   0.762764 0.465461 0.408513 -0.022838
C116  C     C_R   0.781893 0.055873 0.565408 -0.098918
C117  C     C_R   0.155192 0.896377 0.480515 -0.065221
C118  C     C_R   0.344403 0.396734 0.519231 -0.065499
C119  C     C_3   0.995057 0.545870 0.978008 0.196127
C120  C     C_R   0.720535 0.556653 0.434822 -0.101659
C121  C     C_R   0.787645 0.070963 0.490084 -0.068090
C122  C     C_R   0.162337 0.904415 0.556215 -0.005076
C123  C     C_R   0.336852 0.406055 0.443640 -0.002358
C124  C     C_R   0.713903 0.570583 0.510170 -0.068298
C125  C     C_R   0.674029 0.966359 0.479130 0.338061
C126  C     C_R   0.273783 0.806435 0.554420 0.361368
C127  C     C_R   0.224486 0.306203 0.445027 0.362991
C128  C     C_R   0.826270 0.467058 0.521262 0.336474
C129  C     C_R   0.742077 0.966429 0.150461 0.543689
C130  C     C_R   0.760667 0.892176 0.932362 -0.005250
C131  C     C_R   0.258334 0.972638 0.851202 0.541064
C132  C     C_R   0.242070 0.466437 0.150451 0.552617
C133  C     C_R   0.758346 0.472685 0.851217 0.533699
C134  C     C_R   0.678593 0.934904 0.551568 0.386243
C135  C     C_R   0.262411 0.778824 0.481812 0.338516
C136  C     C_R   0.235734 0.278510 0.517512 0.338162
C137  C     C_R   0.821988 0.436232 0.448576 0.389379
C138  C     C_R   0.822814 0.126052 0.614108 -0.088555
C139  C     C_R   0.093914 0.948235 0.448969 -0.038173
C140  C     C_R   0.406714 0.447581 0.551058 -0.043440
Cr1   Cr    Cr6+3 0.772820 0.169820 0.252640 1.147127
Cr2   Cr    Cr6+3 0.383280 0.011130 0.749340 1.084189
Cr3   Cr    Cr6+3 0.116720 0.511130 0.250660 1.097743
Cr4   Cr    Cr6+3 0.883280 0.511130 0.749340 1.058987
Cr5   Cr    Cr6+3 0.227180 0.169820 0.747360 1.094257
Cr6   Cr    Cr6+3 0.272820 0.669820 0.252640 1.111002
Cr7   Cr    Cr6+3 0.727180 0.669820 0.747360 1.128465
Cr8   Cr    Cr6+3 0.615040 0.323610 0.249150 1.057424
Cr9   Cr    Cr6+3 0.384960 0.323610 0.750850 1.082180
Cr10  Cr    Cr6+3 0.115040 0.823610 0.249150 1.055390
Cr11  Cr    Cr6+3 0.884960 0.823610 0.750850 1.088705
Cr12  Cr    Cr6+3 0.616720 0.011130 0.250660 1.070773
F1    F     F_    0.613176 0.942845 0.442669 -0.626775
F2    F     F_    0.102463 0.918924 0.668975 -0.616051
F3    F     F_    0.396526 0.422140 0.330766 -0.617749
F4    F     F_    0.631278 0.647803 0.599596 -0.570314
F5    F     F_    0.328880 0.759247 0.591202 -0.616197
F6    F     F_    0.169178 0.257612 0.407761 -0.611827
F7    F     F_    0.886514 0.443567 0.557929 -0.624349
F8    F     F_    0.623932 0.880969 0.583718 -0.593232
F9    F     F_    0.304796 0.698743 0.450600 -0.634456
F10   F     F_    0.192459 0.198078 0.548440 -0.633302
F11   F     F_    0.876366 0.383374 0.416424 -0.582826
F12   F     F_    0.868933 0.152444 0.400113 -0.568353
H1    H     H_    0.610976 0.101940 0.013080 0.124529
H2    H     H_    0.420010 0.008565 0.348428 0.157074
H3    H     H_    0.080853 0.517083 0.651971 0.138437
H4    H     H_    0.024895 0.399152 0.401808 0.216145
H5    H     H_    0.101194 0.314268 0.610435 0.191374
H6    H     H_    0.068386 0.255760 0.486003 0.206164
H7    H     H_    0.433563 0.751669 0.515051 0.201380
H8    H     H_    0.401163 0.805303 0.390245 0.193952
H9    H     H_    0.812780 0.125626 0.671142 0.148194
H10   H     H_    0.079293 0.945353 0.393217 0.192589
H11   H     H_    0.421572 0.443082 0.606687 0.192651
H12   H     H_    0.360702 0.197321 0.000861 0.153500
H13   H     H_    0.691852 0.626600 0.329363 0.173240
H14   H     H_    0.913950 0.237386 0.629131 0.167621
H15   H     H_    0.998460 0.042563 0.464628 0.136430
H16   H     H_    0.503626 0.541598 0.536104 0.141164
H17   H     H_    0.590917 0.735843 0.370920 0.171534
H18   H     H_    0.940171 0.237686 0.501084 0.190818
H19   H     H_    0.005572 0.028651 0.596507 0.125886
H20   H     H_    0.495454 0.530477 0.404033 0.124753
H21   H     H_    0.562341 0.733268 0.498331 0.192209
H22   H     H_    0.554132 0.300926 0.939132 0.203267
H23   H     H_    0.111007 0.601798 0.013012 0.124491
H24   H     H_    0.473011 0.347219 0.064974 0.202209
H25   H     H_    0.054194 0.800857 0.939067 0.206977
H26   H     H_    0.973130 0.847238 0.064919 0.198844
H27   H     H_    0.860948 0.955608 0.081147 0.193561
H28   H     H_    0.245292 0.115021 0.960540 0.125255
H29   H     H_    0.360921 0.455563 0.081153 0.199283
H30   H     H_    0.745475 0.615058 0.960614 0.126868
H31   H     H_    0.632382 0.797778 0.873833 0.199405
H32   H     H_    0.328702 0.697299 0.102540 0.217922
H33   H     H_    0.132321 0.298294 0.873740 0.192183
H34   H     H_    0.860760 0.697386 0.000877 0.154397
H35   H     H_    0.828656 0.197283 0.102469 0.218787
H36   H     H_    0.093764 0.110536 0.065690 0.194810
H37   H     H_    0.914811 0.172426 0.898848 0.223634
H38   H     H_    0.593814 0.610475 0.065924 0.194106
H39   H     H_    0.415024 0.672534 0.899022 0.228868
H40   H     H_    0.647881 0.769540 0.135050 0.176507
H41   H     H_    0.310075 0.753326 0.843689 0.157078
H42   H     H_    0.147809 0.269552 0.134933 0.188400
H43   H     H_    0.809831 0.253232 0.843605 0.138279
H44   H     H_    0.563426 0.330434 0.449168 0.143514
H45   H     H_    0.540899 0.323129 0.577509 0.142445
H46   H     H_    0.958232 0.819298 0.422465 0.141749
H47   H     H_    0.934993 0.826821 0.550669 0.143068
H48   H     H_    0.477295 0.899283 0.598619 0.213421
O1    O     O_R   0.788190 0.043000 0.172520 -0.536734
O2    O     O_R   0.454170 0.051610 0.669840 -0.512442
O3    O     O_R   0.045830 0.551610 0.330160 -0.508052
O4    O     O_R   0.954170 0.551610 0.669840 -0.468136
O5    O     O_R   0.681920 0.959720 0.327070 -0.456011
O6    O     O_R   0.318080 0.959720 0.672930 -0.471957
O7    O     O_R   0.181920 0.459720 0.327070 -0.471865
O8    O     O_R   0.818080 0.459720 0.672930 -0.459572
O9    O     O_3   0.668190 0.168190 0.250820 -0.343160
O10   O     O_3   0.331810 0.168190 0.749180 -0.341329
O11   O     O_3   0.168190 0.668190 0.250820 -0.343705
O12   O     O_R   0.211810 0.043000 0.827480 -0.466883
O13   O     O_3   0.831810 0.668190 0.749180 -0.342537
O14   O     O_R   0.766240 0.292300 0.176860 -0.483786
O15   O     O_R   0.233760 0.292300 0.823140 -0.538237
O16   O     O_R   0.266240 0.792300 0.176860 -0.486814
O17   O     O_R   0.733760 0.792300 0.823140 -0.534379
O18   O     O_R   0.670310 0.409160 0.168720 -0.477533
O19   O     O_R   0.329690 0.409160 0.831280 -0.450425
O20   O     O_R   0.170310 0.909160 0.168720 -0.460527
O21   O     O_R   0.829690 0.909160 0.831280 -0.465996
O22   O     O_R   0.556160 0.251900 0.173380 -0.511644
O23   O     O_R   0.288190 0.543000 0.172520 -0.527150
O24   O     O_R   0.443840 0.251900 0.826620 -0.447305
O25   O     O_R   0.056160 0.751900 0.173380 -0.521583
O26   O     O_R   0.943840 0.751900 0.826620 -0.437555
O27   O     O_R   0.545410 0.050140 0.168240 -0.471421
O28   O     O_R   0.454590 0.050140 0.831760 -0.460309
O29   O     O_R   0.045410 0.550140 0.168240 -0.457406
O30   O     O_R   0.954590 0.550140 0.831760 -0.474444
O31   O     O_R   0.681530 0.958350 0.176970 -0.518471
O32   O     O_R   0.318470 0.958350 0.823030 -0.522350
O33   O     O_R   0.181530 0.458350 0.176970 -0.515363
O34   O     O_R   0.711810 0.543000 0.827480 -0.478399
O35   O     O_R   0.818470 0.458350 0.823030 -0.524003
O36   O     O_R   0.788610 0.044480 0.334450 -0.421050
O37   O     O_R   0.211390 0.044480 0.665550 -0.420711
O38   O     O_R   0.288610 0.544480 0.334450 -0.422913
O39   O     O_R   0.711390 0.544480 0.665550 -0.420772
O40   O     O_R   0.766630 0.293670 0.326970 -0.411657
O41   O     O_R   0.233370 0.293670 0.673030 -0.456658
O42   O     O_R   0.266630 0.793670 0.326970 -0.440781
O43   O     O_R   0.733370 0.793670 0.673030 -0.418459
O44   O     O_R   0.670730 0.410640 0.330640 -0.539696
O45   O     O_R   0.556550 0.253260 0.323480 -0.494023
O46   O     O_R   0.329270 0.410640 0.669360 -0.512878
O47   O     O_R   0.170730 0.910640 0.330640 -0.494552
O48   O     O_R   0.829270 0.910640 0.669360 -0.545634
O49   O     O_R   0.443450 0.253260 0.676520 -0.533299
O50   O     O_R   0.056550 0.753260 0.323480 -0.538709
O51   O     O_R   0.943450 0.753260 0.676520 -0.490619
O52   O     O_R   0.545830 0.051610 0.330160 -0.468654

loop_
_geom_bond_atom_site_label_1
_geom_bond_atom_site_label_2
_ccdc_geom_bond_type
C12   C121  A    
C139  H10   S    
C17   C121  A    
C93   C98   A    
C81   O27   A    
C100  H45   S    
C18   C126  A    
C104  C111  A    
C134  F8    S    
C17   C30   S    
C56   H28   S    
C108  C119  S    
Cr10  O50   S    
C20   C33   S    
C22   O41   A    
C90   C100  A    
C99   C100  A    
Br9   C60   S    
C84   O26   A    
C9    C14   A    
C26   O52   A    
C98   C106  A    
C35   C50   A    
C125  F1    S    
Cr5   O37   S    
Cr12  O9    S    
C58   C89   A    
Cr2   O32   S    
C5    H15   S    
C3    C7    A    
C53   O19   A    
C35   C130  A    
C6    H16   S    
Cr8   O45   S    
C38   C42   S    
C55   C85   A    
Cr2   O28   S    
Cr1   O14   S    
Cr2   O2    S    
C40   C86   S    
Cr6   O42   S    
C87   C131  S    
C4    C8    A    
C64   O20   A    
C32   O7    A    
C74   H36   S    
C20   C128  A    
Cr10  O25   S    
C42   C108  S    
C74   C79   A    
C73   H39   S    
C32   O38   A    
Cr3   O33   S    
Br10  C61   S    
C66   C68   A    
Cr5   O10   S    
C33   O39   A    
C133  O35   A    
C94   C95   A    
C65   C71   A    
Cr7   O43   S    
C45   C108  S    
C50   C85   A    
C50   C77   A    
C21   C115  S    
C103  H48   S    
C51   C78   A    
C127  F6    S    
C91   C99   A    
C25   O43   A    
C8    H18   S    
C23   C113  S    
Cr1   O40   S    
C115  C120  A    
C27   C90   S    
C27   O2    A    
C30   O36   A    
C46   C65   A    
C132  O23   A    
C36   C40   S    
C52   C88   A    
C63   H31   S    
C49   C54   A    
Cr5   O15   S    
C106  H4    S    
C3    C120  A    
C8    C12   A    
Cr4   O30   S    
Cr6   O38   S    
C58   C62   A    
C51   C87   A    
C57   C61   A    
C41   C119  S    
C13   C48   A    
Cr3   O11   S    
C102  H47   S    
C83   O29   A    
C54   C80   A    
Br7   C119  S    
Cr11  O13   S    
C43   C81   S    
C89   C133  S    
Cr4   O35   S    
C22   C114  S    
Cr4   O4    S    
C38   H26   S    
C72   C77   A    
C3    H13   S    
C29   O4    A    
C39   C97   S    
C86   C97   S    
C6    C10   A    
Cr2   O6    S    
C126  F5    S    
C54   C89   A    
C10   H20   S    
C5    C139  A    
C13   C61   A    
C138  H9    S    
C140  H11   S    
C6    C140  A    
Br6   C108  S    
C72   H38   S    
C48   C52   A    
C75   O21   A    
C37   H25   S    
C42   C47   S    
C107  C109  A    
C129  O1    A    
C2    C46   A    
C34   C36   S    
C127  C136  A    
C31   O6    A    
C34   H22   S    
Cr9   O19   S    
C19   C32   S    
Cr9   O10   S    
C21   O44   A    
C41   H23   S    
C47   C119  S    
C76   C80   A    
C125  C134  A    
Cr12  O27   S    
C13   C53   S    
C1    C24   S    
C19   C123  A    
C76   H37   S    
C65   H32   S    
C23   O47   A    
Cr9   O49   S    
C31   O37   A    
C114  C136  A    
Cr11  O51   S    
Cr6   O16   S    
C39   C43   S    
C18   C122  A    
C112  C134  A    
C34   C39   S    
C78   H41   S    
C136  F10   S    
C55   H27   S    
C15   F3    S    
Cr12  O5    S    
C137  F11   S    
C106  C109  A    
C129  O31   A    
C131  O12   A    
C80   H43   S    
C7    C11   A    
Cr10  O47   S    
C57   C88   A    
C26   C91   S    
C14   C122  A    
C113  C135  A    
Cr6   O11   S    
C25   C112  S    
C95   C104  A    
Cr4   O8    S    
C1    O18   A    
C21   O40   A    
C49   C67   A    
C28   O50   A    
C126  C135  A    
C56   C60   A    
Cr3   O3    S    
Cr2   O10   S    
Br3   C70   S    
C99   H44   S    
Cr7   O13   S    
Cr1   O9    S    
Cr5   O12   S    
C11   C16   A    
C9    H19   S    
C132  O33   A    
C66   H33   S    
C85   C129  S    
C4    H14   S    
Cr9   O24   S    
C25   O48   A    
C92   C102  A    
Cr10  O11   S    
C116  C138  A    
C110  H7    S    
C33   O8    A    
C118  C123  A    
C36   H24   S    
C7    H17   S    
C128  F7    S    
C70   C72   A    
C131  O32   A    
C77   H40   S    
C113  C117  A    
C88   C132  S    
C10   C15   A    
Cr9   O46   S    
Cr10  O20   S    
C18   C31   S    
Cr11  O21   S    
Cr12  O31   S    
C58   H30   S    
Cr6   O23   S    
C59   C130  A    
C24   C49   A    
C12   F12   S    
C44   C97   S    
C92   C96   A    
Cr5   O41   S    
C111  H8    S    
C20   C124  A    
C101  C102  A    
C93   C101  A    
C46   C51   A    
C104  H2    S    
C120  C124  A    
Cr8   O9    S    
C14   F2    S    
Br8   C59   S    
C41   C45   S    
C44   C82   S    
C36   C43   S    
C71   C73   A    
C133  O34   A    
C16   C124  A    
C38   C45   S    
C2    C60   A    
C96   C105  A    
Cr12  O52   S    
Cr11  O26   S    
C53   O15   A    
C23   O42   A    
Cr8   O22   S    
Br11  C62   S    
C82   O28   A    
Br1   C86   S    
Cr8   O44   S    
C73   C78   A    
C135  F9    S    
C63   C70   A    
C117  C139  A    
C1    O14   A    
Cr4   O13   S    
Cr7   O34   S    
C17   C125  A    
C11   H21   S    
C68   C74   A    
C81   O22   A    
C37   C47   S    
C29   C92   S    
C112  C116  A    
Cr11  O48   S    
C64   O16   A    
C91   C95   A    
C15   C123  A    
C83   O25   A    
C28   O3    A    
C105  C107  A    
C56   C87   A    
C84   O30   A    
C107  H5    S    
C39   H1    S    
C116  C121  A    
C115  C137  A    
C118  C140  A    
Cr3   O29   S    
C27   O49   A    
Br4   C71   S    
Br5   C97   S    
C79   H42   S    
C37   C41   S    
Br12  C68   S    
C43   C86   S    
Cr3   O7    S    
C96   C98   A    
C47   C84   S    
C90   C94   A    
C55   C59   A    
C75   C130  S    
C67   C69   A    
C26   O45   A    
C5    C9    A    
C101  H46   S    
C48   C66   A    
C69   C76   A    
C75   O17   A    
C29   O51   A    
C16   F4    S    
C35   C63   A    
C117  C122  A    
C30   O5    A    
C105  H3    S    
C42   H34   S    
C57   H29   S    
Cr7   O39   S    
C37   C38   S    
C45   C83   S    
Cr1   O1    S    
C34   C44   S    
C103  C110  A    
C114  C118  A    
C22   O46   A    
Br2   C69   S    
C4    C138  A    
C40   H12   S    
C52   C79   A    
Cr8   O18   S    
C110  C111  A    
C67   H35   S    
Cr1   O36   S    
C82   O24   A    
C128  C137  A    
Cr7   O17   S    
C24   C62   A    
C40   C44   S    
C19   C127  A    
C2    C64   S    
C109  H6    S    
C94   C103  A    
C28   C93   S    
