data_mof_unit_12368.cif
_audit_creation_date              2012-12-10T20:44:43-0500
_audit_creation_method            fapswitch 2.2
_symmetry_space_group_name_H-M    P1
_symmetry_Int_Tables_number       1
_space_group_crystal_system       triclinic
_cell_length_a                    9.859573
_cell_length_b                    10.688608
_cell_length_c                    16.792263
_cell_angle_alpha                 89.712058
_cell_angle_beta                  94.873503
_cell_angle_gamma                 89.82372
_cell_volume                      1763.22348326

loop_
_atom_site_label
_atom_site_type_symbol
_atom_type_description
_atom_site_fract_x
_atom_site_fract_y
_atom_site_fract_z
_atom_type_partial_charge
C1    C     C_R   0.499757 0.259966 0.497376 0.882543
C2    C     C_R   0.630191 0.552889 0.787701 0.057817
C3    C     C_R   0.576424 0.405944 0.144855 -0.166416
C4    C     C_R   0.585679 0.432608 0.225445 -0.233215
C5    C     C_R   0.452191 0.423369 0.098377 0.325042
C6    C     C_R   0.470614 0.474302 0.261184 -0.025295
C7    C     C_R   0.344604 0.484136 0.215989 -0.220231
C8    C     C_R   0.335654 0.458228 0.134652 -0.190206
C9    C     C_R   0.619726 0.063712 0.480618 0.101336
C10   C     C_R   0.497967 0.128811 0.484215 -0.093996
C11   C     C_R   0.373547 0.065299 0.472479 -0.226775
C12   C     C_R   0.518465 0.498620 0.653286 0.866104
C13   C     C_R   0.373416 0.935918 0.472815 -0.231985
C14   C     C_R   0.497663 0.871526 0.485072 -0.106353
C15   C     C_R   0.619638 0.936001 0.481552 0.108785
C16   C     C_3   0.751814 0.929692 0.532860 -0.086193
C17   C     C_3   0.751279 0.072127 0.531645 -0.543581
C18   C     C_R   0.081271 0.486358 0.569813 0.236093
C19   C     C_R   0.062093 0.524827 0.432093 -0.146805
C20   C     C_R   0.918235 0.524932 0.432094 -0.141042
C21   C     C_R   0.938716 0.486294 0.569792 0.214892
C22   C     C_3   0.941375 0.377003 0.625306 -0.519203
C23   C     C_R   0.499479 0.740075 0.497647 0.897389
C24   C     C_3   0.095349 0.377355 0.625615 -0.514623
C25   C     C_R   0.481857 0.497458 0.346597 0.862904
C26   C     C_R   0.531725 0.485600 0.739365 -0.065920
C27   C     C_R   0.445727 0.400832 0.773780 -0.266174
C28   C     C_R   0.453810 0.385256 0.855814 -0.164405
C29   C     C_R   0.548557 0.455067 0.904312 0.275172
C30   C     C_R   0.638089 0.535832 0.870001 -0.168230
H1    H     H_    0.683037 0.420172 0.259646 0.157989
H2    H     H_    0.276734 0.887503 0.469190 0.172823
H3    H     H_    0.835612 0.886326 0.502081 0.166978
H4    H     H_    0.739150 0.116138 0.590520 0.199988
H5    H     H_    0.833788 0.112154 0.498299 0.194483
H6    H     H_    0.108057 0.543020 0.377018 0.147223
H7    H     H_    0.856577 0.543364 0.376952 0.150994
H8    H     H_    0.905034 0.401564 0.684113 0.203046
H9    H     H_    0.893447 0.292848 0.596793 0.213836
H10   H     H_    0.146867 0.403332 0.684561 0.203890
H11   H     H_    0.667126 0.375476 0.118216 0.146422
H12   H     H_    0.137119 0.292915 0.597795 0.212049
H13   H     H_    0.710914 0.589286 0.907867 0.150564
H14   H     H_    0.254018 0.513628 0.243102 0.150607
H15   H     H_    0.385682 0.319743 0.881258 0.154597
H16   H     H_    0.239526 0.470738 0.099198 0.139012
H17   H     H_    0.373031 0.345752 0.737007 0.155053
H18   H     H_    0.276896 0.114384 0.468831 0.171010
N1    N     N_2   0.553597 0.451099 0.988097 -0.202384
N2    N     N_2   0.444902 0.418065 0.014447 -0.203489
N3    N     N_R   0.142860 0.499130 0.500540 -0.108049
N4    N     N_R   0.857210 0.499170 0.500530 -0.104692
O1    O     O_R   0.614690 0.316790 0.499990 -0.611552
O2    O     O_R   0.385350 0.316760 0.500000 -0.624736
O3    O     O_R   0.627460 0.498860 0.616130 -0.620922
O4    O     O_R   0.398120 0.498820 0.616130 -0.611753
O5    O     O_R   0.614650 0.683240 0.500000 -0.600536
O6    O     O_R   0.385310 0.683210 0.500010 -0.624528
O7    O     O_R   0.601880 0.501180 0.383870 -0.631559
O8    O     O_R   0.372540 0.501140 0.383870 -0.627455
Zn1   Zn    Zn3+2 0.653130 0.500020 0.499990 0.944653
Zn2   Zn    Zn3+2 0.346870 0.499980 0.500010 0.940738
N5    N     N_3   0.737699 0.876340 0.612247 -0.442912
H19   H     H_    0.659340 0.921647 0.639234 0.191448
H20   H     H_    0.828124 0.893391 0.647612 0.193807
N6    N     N_3   0.717654 0.643533 0.755575 -0.465757
H21   H     H_    0.783675 0.598003 0.719751 0.208908
H22   H     H_    0.657426 0.706718 0.720394 0.192773

loop_
_geom_bond_atom_site_label_1
_geom_bond_atom_site_label_2
_ccdc_geom_bond_type
C14   C23   S    
O6    Zn2   S    
C23   O6    A    
N6    H22   S    
C1    O2    A    
N5    H20   S    
O5    Zn1   S    
C29   C30   A    
C16   N5    S    
C16   H3    S    
C5    C8    A    
C18   C21   A    
C24   H12   S    
C9    C10   A    
C13   H2    S    
C19   C20   A    
C4    H1    S    
C2    C30   A    
C25   O7    A    
N6    H21   S    
C11   H18   S    
C7    C8    A    
C20   N4    A    
C29   N1    S    
C13   C14   A    
O8    Zn2   S    
C2    N6    S    
C20   H7    S    
C11   C13   A    
C26   C27   A    
C12   O4    A    
N3    Zn2   S    
O1    Zn1   S    
C18   C24   S    
C22   H9    S    
O3    Zn1   S    
C9    C17   S    
C28   C29   A    
C24   H10   S    
C18   N3    A    
N1    N2    D    
C6    C7    A    
C22   C24   S    
C19   H6    S    
C21   N4    A    
C9    C15   A    
C30   H13   S    
O4    Zn2   S    
C28   H15   S    
O7    Zn1   S    
C12   O3    A    
C10   C11   A    
C15   C16   S    
C6    C25   S    
C19   N3    A    
C5    N2    S    
C3    C4    A    
C2    C26   A    
C4    C6    A    
C17   H4    S    
C27   H17   S    
C27   C28   A    
C23   O5    A    
C1    O1    A    
C14   C15   A    
C3    H11   S    
N4    Zn1   S    
C17   H5    S    
C8    H16   S    
C7    H14   S    
C21   C22   S    
O2    Zn2   S    
C25   O8    A    
C1    C10   S    
N5    H19   S    
C12   C26   S    
C16   C17   S    
C3    C5    A    
C22   H8    S    
