data_mof_unit_32731.cif
_audit_creation_date              2012-12-11T14:21:22-0500
_audit_creation_method            fapswitch 2.2
_symmetry_space_group_name_H-M    P1
_symmetry_Int_Tables_number       1
_space_group_crystal_system       triclinic
_cell_length_a                    22.077373
_cell_length_b                    7.187686
_cell_length_c                    14.889281
_cell_angle_alpha                 90.000039
_cell_angle_beta                  107.627047
_cell_angle_gamma                 90.000238
_cell_volume                      2251.77458136

loop_
_atom_site_label
_atom_site_type_symbol
_atom_type_description
_atom_site_fract_x
_atom_site_fract_y
_atom_site_fract_z
_atom_type_partial_charge
O1    O     O_R   0.584770 0.505770 0.002090 -0.538114
O2    O     O_R   0.415230 0.005770 0.997910 -0.538118
O3    O     O_R   0.467060 0.173340 0.861950 -0.537362
O4    O     O_R   0.532940 0.673340 0.138050 -0.537362
C1    C     C_R   0.454650 0.344204 0.825411 0.693424
C2    C     C_R   0.545350 0.844205 0.174589 0.693429
O5    O     O_R   0.587510 0.175890 0.993210 -0.548073
O6    O     O_R   0.412490 0.675890 0.006790 -0.548075
O7    O     O_R   0.536540 0.008150 0.130100 -0.534147
O8    O     O_R   0.463460 0.508150 0.869900 -0.534148
C3    C     C_R   0.612896 0.346340 0.997305 0.671476
C4    C     C_R   0.387104 0.846339 0.002696 0.671470
O9    O     O_3   0.483140 0.340040 0.044760 -0.376959
O10   O     O_3   0.516860 0.840040 0.955240 -0.376958
V1    V     V_3+5 0.503130 0.064190 0.991700 1.444782
V2    V     V_3+5 0.496870 0.564190 0.008300 1.444781
C5    C     C_2   0.207771 0.745387 0.964919 0.025998
C6    C     C_2   0.792235 0.245432 0.035120 0.026043
C7    C     C_2   0.180692 0.878839 0.005340 -0.298518
C8    C     C_2   0.819307 0.378831 0.994658 -0.298569
H1    H     H_    0.209628 0.975205 0.055683 0.173646
H2    H     H_    0.790365 0.475132 0.944281 0.173612
C9    C     C_2   0.278677 0.727270 0.986740 -0.124535
C10   C     C_2   0.721330 0.227286 0.013294 -0.124512
C11   C     C_2   0.319688 0.871740 0.000827 0.099548
C12   C     C_2   0.680313 0.371743 0.999176 0.099585
H3    H     H_    0.296940 0.589000 0.980700 0.142668
H4    H     H_    0.703073 0.089018 0.019358 0.142650
C13   C     C_R   0.929444 0.875953 0.721730 -0.092216
C14   C     C_R   0.070555 0.375955 0.278269 -0.092216
C15   C     C_R   0.574208 0.849594 0.277186 -0.045193
C16   C     C_R   0.425792 0.349594 0.722814 -0.045190
C17   C     C_R   0.935630 0.702904 0.584481 0.007932
C18   C     C_R   0.064370 0.202907 0.415519 0.007932
C19   C     C_R   0.962831 0.763632 0.676916 -0.222490
C20   C     C_R   0.037168 0.263634 0.323084 -0.222498
C21   C     C_R   0.867037 0.931037 0.672895 0.209941
C22   C     C_R   0.132963 0.431039 0.327104 0.209942
C23   C     C_R   0.835161 0.847835 0.583915 0.041736
C24   C     C_R   0.164839 0.347840 0.416084 0.041731
C25   C     C_R   0.871903 0.755461 0.533824 -0.038955
C26   C     C_R   0.128096 0.255469 0.466176 -0.038945
C27   C     C_R   0.767623 0.846947 0.545841 0.039303
C28   C     C_R   0.232376 0.346952 0.454159 0.039305
C29   C     C_R   0.738192 0.806381 0.449271 -0.035985
C30   C     C_R   0.261807 0.306392 0.550729 -0.035980
C31   C     C_R   0.776491 0.732354 0.395568 -0.062759
C32   C     C_R   0.223507 0.232374 0.604433 -0.062781
C33   C     C_R   0.843290 0.713737 0.436766 -0.057093
C34   C     C_R   0.156709 0.213752 0.563234 -0.057099
C35   C     C_R   0.728824 0.868633 0.604900 -0.153754
C36   C     C_R   0.271175 0.368632 0.395100 -0.153753
C37   C     C_R   0.662480 0.866545 0.570723 -0.023564
C38   C     C_R   0.337520 0.366542 0.429276 -0.023568
C39   C     C_R   0.632355 0.833126 0.473530 0.039279
C40   C     C_R   0.367644 0.333127 0.526470 0.039278
C41   C     C_R   0.670648 0.831316 0.411794 0.051564
C42   C     C_R   0.329351 0.331323 0.588206 0.051568
C43   C     C_R   0.565501 0.802598 0.434261 0.024151
C44   C     C_R   0.434498 0.302594 0.565738 0.024154
C45   C     C_R   0.537431 0.813602 0.336476 -0.182524
C46   C     C_R   0.462568 0.313596 0.663524 -0.182524
C47   C     C_R   0.640102 0.861548 0.314827 -0.233393
C48   C     C_R   0.359898 0.361558 0.685173 -0.233399
H5    H     H_    0.667019 0.894782 0.267212 0.138528
H6    H     H_    0.332982 0.394803 0.732788 0.138515
H7    H     H_    0.486881 0.788515 0.305934 0.115090
H8    H     H_    0.513118 0.288504 0.694066 0.115088
H9    H     H_    0.009768 0.714221 0.716765 0.126952
H10   H     H_    0.990232 0.214222 0.283235 0.126955
H11   H     H_    0.749827 0.878152 0.680240 0.188479
H12   H     H_    0.250173 0.378149 0.319759 0.188479
O11   O     O_R   0.036450 0.233070 0.130130 -0.544729
O12   O     O_R   0.963550 0.733070 0.869870 -0.544729
O13   O     O_R   0.912470 0.560570 0.006790 -0.522359
O14   O     O_R   0.087530 0.060570 0.993210 -0.522346
C49   C     C_R   0.887577 0.390788 0.003602 0.691929
C50   C     C_R   0.112423 0.890788 0.996397 0.691942
O15   O     O_R   0.032920 0.562940 0.138050 -0.535133
O16   O     O_R   0.967080 0.062940 0.861950 -0.535131
O17   O     O_R   0.084790 0.730500 0.002090 -0.552971
O18   O     O_R   0.915210 0.230500 0.997910 -0.552966
C51   C     C_R   0.044897 0.393809 0.175173 0.687975
C52   C     C_R   0.955103 0.893809 0.824827 0.687978
O19   O     O_3   0.016820 0.396170 0.955260 -0.377371
O20   O     O_3   0.983180 0.896170 0.044740 -0.377378
V3    V     V_3+5 0.996880 0.672090 0.008300 1.445787
V4    V     V_3+5 0.003120 0.172090 0.991700 1.445814
C53   C     C_2   0.167741 0.611930 0.895385 0.451109
H13   H     H_    0.117192 0.635326 0.864130 0.041580
O21   O     O_2   0.191223 0.474963 0.870607 -0.504507
C54   C     C_2   0.832273 0.112071 0.104704 0.451153
H14   H     H_    0.882827 0.135444 0.135909 0.041542
O22   O     O_2   0.808791 0.975216 0.129585 -0.504516
N1    N     N_2   0.837754 0.077504 0.709625 -0.549608
H15   H     H_    0.849354 0.084914 0.781949 0.255681
C55   C     C_3   0.838759 0.256602 0.665753 -0.451180
H16   H     H_    0.888524 0.306098 0.680483 0.210177
H17   H     H_    0.815960 0.247299 0.588339 0.216145
H18   H     H_    0.811944 0.359409 0.694510 0.179926
N2    N     N_2   0.162247 0.577503 0.290372 -0.549605
H19   H     H_    0.150648 0.584906 0.218049 0.255683
C56   C     C_3   0.161241 0.756604 0.334240 -0.451183
H20   H     H_    0.111475 0.806099 0.319507 0.210173
H21   H     H_    0.184037 0.747308 0.411654 0.216144
H22   H     H_    0.188055 0.859409 0.305482 0.179929
C57   C     C_2   0.746187 0.643992 0.302510 0.448377
H23   H     H_    0.707624 0.545598 0.294672 0.032368
O23   O     O_2   0.761710 0.687311 0.233339 -0.493205
C58   C     C_2   0.253809 0.144032 0.697496 0.448337
H24   H     H_    0.292369 0.045627 0.705340 0.032377
O24   O     O_2   0.238287 0.187381 0.766664 -0.493210
C59   C     C_2   0.524402 0.731812 0.489132 0.290662
H25   H     H_    0.473854 0.761479 0.465907 0.098849
O25   O     O_2   0.545720 0.631081 0.557431 -0.550372
C60   C     C_2   0.475597 0.231809 0.510867 0.290660
H26   H     H_    0.526145 0.261479 0.534091 0.098847
O26   O     O_2   0.454279 0.131075 0.442569 -0.550371
N3    N     N_2   0.296814 0.057838 0.000390 -0.496317
H27   H     H_    0.301779 0.136838 0.945280 0.310444
C61   C     C_3   0.319374 0.154721 0.089745 -0.457487
H28   H     H_    0.291434 0.284400 0.086275 0.217366
H29   H     H_    0.370252 0.192829 0.105596 0.212364
H30   H     H_    0.313305 0.067090 0.147933 0.200039
N4    N     N_2   0.703184 0.557841 0.999592 -0.496356
H31   H     H_    0.698223 0.636860 0.054698 0.310424
C62   C     C_3   0.680618 0.654693 0.910230 -0.457550
H32   H     H_    0.708555 0.784376 0.913686 0.217355
H33   H     H_    0.629739 0.692792 0.894380 0.212378
H34   H     H_    0.686686 0.567044 0.852048 0.200046
C63   C     C_2   0.884147 0.667000 0.376537 0.578584
H35   H     H_    0.926139 0.749941 0.381875 0.015762
O27   O     O_2   0.873574 0.530713 0.325130 -0.501008
C64   C     C_2   0.115851 0.167017 0.623462 0.578531
H36   H     H_    0.073857 0.249951 0.618119 0.015766
O28   O     O_2   0.126426 0.030740 0.674876 -0.501006
C65   C     C_2   0.626978 0.927334 0.636196 0.447827
H37   H     H_    0.579484 0.983695 0.609166 0.043718
O29   O     O_2   0.650954 0.919222 0.721558 -0.553583
C66   C     C_2   0.373022 0.427324 0.363803 0.447836
H38   H     H_    0.420516 0.483689 0.390832 0.043714
O30   O     O_2   0.349047 0.419201 0.278440 -0.553580
C67   C     C_2   0.972345 0.557914 0.552870 0.326228
H39   H     H_    0.023206 0.574578 0.566493 0.097741
O31   O     O_2   0.947105 0.412876 0.518078 -0.539593
C68   C     C_2   0.027655 0.057916 0.447130 0.326241
H40   H     H_    0.976794 0.074574 0.433505 0.097752
O32   O     O_2   0.052896 0.912881 0.481924 -0.539597

loop_
_geom_bond_atom_site_label_1
_geom_bond_atom_site_label_2
_ccdc_geom_bond_type
C32   C58   S    
C47   H5    S    
N2    H19   S    
C39   C43   A    
C15   C45   A    
C37   C39   A    
N1    H15   S    
O1    C3    A    
O16   C52   A    
O2    C4    A    
C2    O7    A    
O15   V3    S    
C55   H16   S    
C23   C25   A    
C17   C67   S    
O5    C3    A    
C65   O29   D    
C21   N1    S    
C5    C9    S    
C8    C49   S    
C37   C65   S    
C7    H1    S    
O14   C50   A    
C68   H40   S    
C22   N2    S    
C67   H39   S    
C60   H26   S    
C14   C22   A    
C44   C46   A    
O6    V2    S    
C29   C31   A    
C14   C51   S    
C58   H24   S    
C61   H30   S    
C17   C19   A    
C38   C66   S    
C28   C30   A    
C18   C26   A    
C57   H23   S    
C9    H3    S    
O12   V3    S    
C53   O21   D    
O14   V4    S    
C18   C20   A    
C43   C59   S    
C1    C16   S    
C28   C36   A    
C32   C34   A    
C2    C15   S    
N2    C56   S    
C22   C24   A    
C30   C42   A    
C57   O23   D    
C35   H11   S    
C11   N3    S    
C25   C33   A    
C55   H17   S    
C36   C38   A    
C41   C47   A    
C68   O32   D    
N3    C61   S    
C42   C48   A    
C38   C40   A    
C43   C45   A    
C15   C47   A    
C5    C53   S    
C66   H38   S    
C16   C48   A    
C13   C52   S    
O4    C2    A    
C60   O26   D    
C34   C64   S    
O12   C52   A    
O20   V3    S    
C64   O28   D    
O5    V1    S    
C3    C12   S    
O3    C1    A    
C40   C44   A    
C35   C37   A    
C12   N4    S    
C48   H6    S    
O4    V2    S    
C7    C50   S    
C62   H33   S    
O11   V4    S    
C36   H12   S    
C33   C63   S    
C45   H7    S    
O6    C4    A    
C29   C41   A    
C54   O22   D    
C56   H21   S    
O1    V2    S    
O2    V1    S    
O13   C49   A    
C61   H28   S    
O17   V3    S    
C26   C34   A    
O13   V3    S    
C20   H10   S    
C8    H2    S    
C31   C57   S    
C39   C41   A    
N4    H31   S    
C6    C10   S    
C44   C60   S    
C62   H32   S    
C55   H18   S    
O3    V1    S    
C59   H25   S    
O19   V4    S    
C67   O31   D    
C10   H4    S    
C10   C12   D    
C63   O27   D    
C23   C27   A    
N3    H27   S    
N1    C55   S    
C64   H36   S    
C66   O30   D    
C46   H8    S    
C31   C33   A    
C65   H37   S    
C13   C19   A    
C14   C20   A    
C4    C11   S    
C17   C25   A    
O7    V1    S    
C62   H34   S    
C6    C54   S    
C1    O8    A    
C21   C23   A    
O8    V2    S    
O15   C51   A    
C18   C68   S    
C50   O17   A    
C27   C35   A    
C49   O18   A    
O18   V4    S    
C24   C26   A    
C54   H14   S    
C5    C7    D    
C40   C42   A    
C56   H22   S    
C6    C8    D    
C9    C11   D    
C58   O24   D    
C61   H29   S    
C16   C46   A    
C30   C32   A    
C24   C28   A    
C19   H9    S    
O16   V4    S    
O9    V2    S    
C13   C21   A    
C56   H20   S    
N4    C62   S    
O10   V1    S    
C53   H13   S    
C27   C29   A    
O11   C51   A    
C63   H35   S    
C59   O25   D    
