data_mof_unit_65752.cif
_audit_creation_date              2012-12-10T18:43:30-0500
_audit_creation_method            fapswitch 2.2
_symmetry_space_group_name_H-M    P1
_symmetry_Int_Tables_number       1
_space_group_crystal_system       triclinic
_cell_length_a                    19.447159
_cell_length_b                    18.15367
_cell_length_c                    10.942784
_cell_angle_alpha                 89.999486
_cell_angle_beta                  90.171475
_cell_angle_gamma                 89.998615
_cell_volume                      3863.19369119

loop_
_atom_site_label
_atom_site_type_symbol
_atom_type_description
_atom_site_fract_x
_atom_site_fract_y
_atom_site_fract_z
_atom_type_partial_charge
C1    C     C_R   0.367510 0.500033 0.499868 0.827132
C2    C     C_R   0.632490 0.500031 0.500173 0.827174
C3    C     C_R   0.708040 0.500121 0.500627 -0.127960
C4    C     C_R   0.291960 0.500130 0.499860 -0.127958
C5    C     C_R   0.964428 0.543104 0.587029 -0.094582
C6    C     C_R   0.036027 0.543123 0.586776 -0.094140
C7    C     C_R   0.072050 0.500006 0.502011 0.128770
C8    C     C_R   0.927957 0.499966 0.502523 0.129028
C9    C     C_R   0.035594 0.456011 0.418698 -0.171669
C10   C     C_R   0.963971 0.455992 0.418953 -0.171276
C11   C     C_R   0.459075 0.721004 0.419892 0.093150
C12   C     C_R   0.540925 0.721000 0.580109 0.093010
C13   C     C_R   0.458460 0.798370 0.418110 -0.265607
C14   C     C_R   0.541540 0.798367 0.581891 -0.265669
C15   C     C_R   0.500000 0.838492 0.500000 0.114102
C16   C     C_R   0.503993 0.961308 0.610135 -0.188480
C17   C     C_R   0.496008 0.961309 0.389865 -0.188253
C18   C     C_R   0.503792 0.038723 0.610130 -0.084988
C19   C     C_R   0.496210 0.038725 0.389871 -0.085000
C20   C     C_R   0.500001 0.078657 0.500000 0.192626
C21   C     C_R   0.500811 0.500017 0.265125 0.858488
C22   C     C_R   0.499189 0.500017 0.734875 0.857723
C23   C     C_R   0.500000 0.921311 0.500000 0.112292
C24   C     C_R   0.452797 0.201665 0.428142 0.457944
C25   C     C_R   0.547204 0.201662 0.571858 0.457974
C26   C     C_R   0.453870 0.279037 0.429423 -0.039469
C27   C     C_R   0.546130 0.279034 0.570577 -0.039466
C28   C     C_R   0.500000 0.161472 0.500000 -0.156350
C29   C     C_2   0.501530 0.439487 0.933070 -0.143649
C30   C     C_2   0.498473 0.439488 0.066932 -0.143722
C31   C     C_2   0.495722 0.501219 0.866709 -0.315586
C32   C     C_2   0.504278 0.501219 0.133291 -0.315064
C33   C     C_R   0.744571 0.433420 0.500868 -0.169464
C34   C     C_R   0.255425 0.433435 0.499816 -0.169496
C35   C     C_R   0.816175 0.433641 0.501268 -0.248071
C36   C     C_R   0.183821 0.433665 0.500168 -0.248025
C37   C     C_R   0.852354 0.500469 0.501840 -0.027437
C38   C     C_R   0.147649 0.500498 0.500904 -0.027423
C39   C     C_R   0.815929 0.567319 0.501168 0.635456
C40   C     C_R   0.184077 0.567342 0.500195 0.635362
C41   C     C_R   0.744299 0.567006 0.500666 -0.251771
C42   C     C_R   0.255705 0.567020 0.499747 -0.251661
Cu1   Cu    Cu3+1 0.500000 0.573360 0.500000 0.951245
Cu2   Cu    Cu3+1 0.500000 0.426640 0.500000 0.949428
H1    H     H_    0.507720 0.386465 0.888378 0.174173
H2    H     H_    0.492284 0.386465 0.111625 0.174135
H3    H     H_    0.424889 0.826488 0.354286 0.143466
H4    H     H_    0.575111 0.826482 0.645715 0.143173
H5    H     H_    0.506062 0.932720 0.696889 0.140678
H6    H     H_    0.493939 0.932722 0.303111 0.140747
H7    H     H_    0.505616 0.067437 0.696797 0.174848
H8    H     H_    0.494385 0.067440 0.303203 0.174846
H9    H     H_    0.417400 0.309363 0.374081 0.165822
H10   H     H_    0.582600 0.309359 0.625918 0.165818
H11   H     H_    0.486805 0.554604 0.907580 0.149731
H12   H     H_    0.513194 0.554605 0.092418 0.149767
H13   H     H_    0.717908 0.381040 0.500950 0.175381
H14   H     H_    0.282084 0.381052 0.499793 0.175399
H15   H     H_    0.843409 0.381586 0.502413 0.167044
H16   H     H_    0.156589 0.381613 0.501255 0.166995
H17   H     H_    0.717319 0.619203 0.499777 0.182131
H18   H     H_    0.282686 0.619213 0.498868 0.181960
H19   H     H_    0.937487 0.576172 0.653934 0.168273
H20   H     H_    0.063322 0.576199 0.653502 0.168622
H21   H     H_    0.062576 0.422548 0.352374 0.146351
H22   H     H_    0.936635 0.422520 0.352812 0.146023
H23   H     H_    0.426573 0.690785 0.357094 0.125298
H24   H     H_    0.573426 0.690780 0.642906 0.124662
N1    N     N_R   0.500000 0.683620 0.500000 -0.176957
N2    N     N_R   0.500000 0.316380 0.500000 -0.240439
O1    O     O_R   0.400190 0.561980 0.499980 -0.589136
O2    O     O_R   0.599810 0.561980 0.500020 -0.589024
O3    O     O_R   0.400190 0.438070 0.500040 -0.585549
O4    O     O_R   0.599810 0.438070 0.499960 -0.585564
O5    O     O_R   0.500000 0.561940 0.321950 -0.589926
O6    O     O_R   0.500000 0.561940 0.678050 -0.590294
O7    O     O_R   0.500010 0.438030 0.322010 -0.577382
O8    O     O_R   0.499990 0.438030 0.677990 -0.577340
F1    F     F_    0.404672 0.166600 0.359466 -0.660695
F2    F     F_    0.595329 0.166595 0.640534 -0.660610
F3    F     F_    0.849541 0.632836 0.497851 -0.655487
F4    F     F_    0.150457 0.632863 0.496914 -0.655610

loop_
_geom_bond_atom_site_label_1
_geom_bond_atom_site_label_2
_ccdc_geom_bond_type
C30   C32   D    
C12   N1    A    
Cu1   O2    S    
C25   F2    S    
C19   C20   A    
C22   O6    A    
C27   H10   S    
C39   C41   A    
C25   C28   A    
C12   H24   S    
C17   C23   A    
Cu2   O7    S    
C35   C37   A    
C24   C26   A    
C5    C6    A    
C3    C33   A    
C5    H19   S    
C35   H15   S    
C6    H20   S    
C17   C19   A    
C19   H8    S    
Cu1   O1    S    
Cu2   N2    S    
C41   H17   S    
C9    C10   A    
C42   H18   S    
C18   C20   A    
C2    O4    A    
C15   C23   S    
Cu1   N1    S    
C2    O2    A    
C11   H23   S    
C18   H7    S    
C10   H22   S    
Cu1   O5    S    
C37   C39   A    
C21   C32   S    
C4    C34   A    
C22   C31   S    
C40   F4    S    
C16   H5    S    
C22   O8    A    
C13   H3    S    
C14   H4    S    
C20   C28   S    
C29   H1    S    
Cu1   Cu2   S    
C29   C30   S    
C24   F1    S    
C1    O1    A    
Cu2   O4    S    
C39   F3    S    
C27   N2    A    
C16   C18   A    
C12   C14   A    
C16   C23   A    
C13   C15   A    
C26   N2    A    
C8    C37   S    
C26   H9    S    
Cu1   O6    S    
C7    C9    A    
C3    C41   A    
C33   H13   S    
C30   H2    S    
C24   C28   A    
C40   C42   A    
C36   H16   S    
C17   H6    S    
C5    C8    A    
C11   N1    A    
C6    C7    A    
C25   C27   A    
C21   O5    A    
C1    C4    S    
C1    O3    A    
C36   C38   A    
C2    C3    S    
C29   C31   D    
C38   C40   A    
C11   C13   A    
C4    C42   A    
Cu2   O8    S    
C33   C35   A    
C7    C38   S    
C34   C36   A    
Cu2   O3    S    
C9    H21   S    
C8    C10   A    
C21   O7    A    
C34   H14   S    
C14   C15   A    
C31   H11   S    
C32   H12   S    
