data_mof_unit_33620.cif
_audit_creation_date              2012-12-10T18:55:23-0500
_audit_creation_method            fapswitch 2.2
_symmetry_space_group_name_H-M    P1
_symmetry_Int_Tables_number       1
_space_group_crystal_system       triclinic
_cell_length_a                    19.368754
_cell_length_b                    18.097875
_cell_length_c                    17.793324
_cell_angle_alpha                 90.007601
_cell_angle_beta                  90.164551
_cell_angle_gamma                 90.531709
_cell_volume                      6236.85801082

loop_
_atom_site_label
_atom_site_type_symbol
_atom_type_description
_atom_site_fract_x
_atom_site_fract_y
_atom_site_fract_z
_atom_type_partial_charge
C1    C     C_R   0.367687 0.499636 0.499511 0.771918
C2    C     C_R   0.632262 0.500325 0.499926 0.770220
C3    C     C_R   0.851336 0.499252 0.486951 0.186468
C4    C     C_R   0.148428 0.495031 0.486897 0.249121
C5    C     C_R   0.707245 0.501110 0.496761 -0.001530
C6    C     C_R   0.292612 0.498365 0.495592 -0.006412
C7    C     C_R   0.965515 0.563006 0.474721 0.306331
C8    C     C_R   0.035159 0.427269 0.486961 0.333132
C9    C     C_R   0.037522 0.561383 0.470745 0.277774
C10   C     C_R   0.962297 0.427996 0.483036 0.291116
C11   C     C_R   0.072450 0.494343 0.481207 -0.255303
C12   C     C_R   0.927392 0.496506 0.480276 -0.258804
C13   C     C_R   0.454284 0.720352 0.455891 -0.059727
C14   C     C_R   0.552740 0.279920 0.533834 -0.041164
C15   C     C_R   0.546003 0.721008 0.543961 -0.059248
C16   C     C_R   0.447805 0.278218 0.465936 -0.036647
C17   C     C_R   0.454526 0.798616 0.452810 0.293509
C18   C     C_R   0.555904 0.201750 0.532905 0.279205
C19   C     C_R   0.546369 0.799198 0.546734 0.291671
C20   C     C_R   0.446139 0.200055 0.466144 0.275458
C21   C     C_R   0.500687 0.838241 0.499676 -0.075783
C22   C     C_R   0.501192 0.161190 0.499556 -0.064155
C23   C     C_R   0.559180 0.961001 0.475173 -0.146064
C24   C     C_R   0.443393 0.037706 0.525030 -0.148379
C25   C     C_R   0.443043 0.960110 0.524495 -0.146265
C26   C     C_R   0.559196 0.038642 0.474736 -0.142519
C27   C     C_R   0.501314 0.078129 0.499773 0.214055
C28   C     C_R   0.500979 0.920911 0.499735 0.220712
C29   C     C_R   0.500850 0.500175 0.355158 0.884297
C30   C     C_R   0.499048 0.500159 0.644829 0.884537
C31   C     C_R   0.497313 0.571692 0.845617 0.304615
C32   C     C_R   0.503078 0.437540 0.150983 0.300390
C33   C     C_R   0.500489 0.571723 0.154353 0.302290
C34   C     C_R   0.496399 0.437438 0.848944 0.300199
C35   C     C_R   0.491304 0.569640 0.766993 0.263208
C36   C     C_R   0.498357 0.435109 0.229771 0.278584
C37   C     C_R   0.507104 0.569878 0.232936 0.263815
C38   C     C_R   0.501554 0.435169 0.770192 0.280588
C39   C     C_R   0.497345 0.501427 0.728171 -0.369436
C40   C     C_R   0.502089 0.501486 0.271789 -0.368776
C41   C     C_R   0.497594 0.505548 0.886109 -0.220319
C42   C     C_R   0.500809 0.505586 0.113844 -0.219877
C43   C     C_1   0.498615 0.507208 0.966364 0.126621
C44   C     C_1   0.499573 0.507218 0.033592 0.127140
C45   C     C_R   0.745489 0.459216 0.547841 -0.245075
C46   C     C_R   0.253810 0.543888 0.542625 -0.234483
C47   C     C_R   0.259393 0.451677 0.443883 -0.228343
C48   C     C_R   0.740842 0.542615 0.441272 -0.226374
C49   C     C_R   0.817308 0.459605 0.544020 -0.116396
C50   C     C_R   0.181923 0.541307 0.539171 -0.088745
C51   C     C_R   0.187708 0.451309 0.438419 -0.145374
C52   C     C_R   0.812435 0.540523 0.435421 -0.132329
Cu1   Cu    Cu3+1 0.500000 0.573360 0.500000 0.948086
Cu2   Cu    Cu3+1 0.500000 0.426640 0.500000 0.958051
H1    H     H_    0.719793 0.427212 0.591165 0.118988
H2    H     H_    0.279093 0.580175 0.582808 0.134891
H3    H     H_    0.289038 0.417060 0.406446 0.116841
H4    H     H_    0.711506 0.574694 0.401131 0.131601
H5    H     H_    0.846267 0.428498 0.585210 0.167456
H6    H     H_    0.152379 0.575554 0.576995 0.146485
H7    H     H_    0.162975 0.417714 0.395710 0.122042
H8    H     H_    0.837370 0.570378 0.390118 0.159784
H9    H     H_    0.417958 0.688322 0.422857 0.150077
H10   H     H_    0.592116 0.311866 0.562366 0.131609
H11   H     H_    0.582185 0.689616 0.577113 0.150595
H12   H     H_    0.407812 0.308683 0.437556 0.130059
H13   H     H_    0.604371 0.932083 0.455485 0.144198
H14   H     H_    0.398501 0.066250 0.545933 0.141979
H15   H     H_    0.397745 0.930525 0.544244 0.143865
H16   H     H_    0.604284 0.067934 0.454080 0.145849
N1    N     N_R   0.500000 0.683620 0.500000 -0.209800
N2    N     N_R   0.500000 0.316380 0.500000 -0.191869
O1    O     O_R   0.400190 0.561980 0.499990 -0.588387
O2    O     O_R   0.599810 0.438020 0.500010 -0.593041
O3    O     O_R   0.599810 0.561980 0.500010 -0.587774
O4    O     O_R   0.400190 0.438020 0.499990 -0.591222
O5    O     O_R   0.500000 0.561980 0.391260 -0.539617
O6    O     O_R   0.500000 0.438020 0.608740 -0.539312
O7    O     O_R   0.500000 0.561980 0.608740 -0.540334
O8    O     O_R   0.500000 0.438020 0.391260 -0.540281
O9    O     O_3   0.497692 0.638573 0.883396 -0.557654
C53   C     C_3   0.564550 0.670041 0.878186 0.117238
H17   H     H_    0.576747 0.685451 0.819086 0.162678
H18   H     H_    0.604472 0.631185 0.899469 0.122742
C54   C     C_3   0.568145 0.739808 0.925681 -0.809750
H19   H     H_    0.560680 0.725739 0.985857 0.276101
H20   H     H_    0.619501 0.766757 0.918986 0.191778
H21   H     H_    0.527569 0.779019 0.907588 0.249849
O10   O     O_3   0.505758 0.372686 0.109915 -0.560993
C55   C     C_3   0.574961 0.348800 0.108379 0.119044
H22   H     H_    0.593112 0.334068 0.165838 0.170852
H23   H     H_    0.609682 0.392265 0.084513 0.123587
C56   C     C_3   0.580165 0.280414 0.059170 -0.805861
H24   H     H_    0.566855 0.294368 0.000197 0.282870
H25   H     H_    0.633750 0.259188 0.060733 0.193555
H26   H     H_    0.544404 0.236654 0.079805 0.245509
O11   O     O_3   0.498956 0.638568 0.116590 -0.558919
C57   C     C_3   0.431792 0.667787 0.122552 0.116459
H27   H     H_    0.419924 0.682699 0.181805 0.162371
H28   H     H_    0.392163 0.627632 0.101601 0.122945
C58   C     C_3   0.426956 0.737489 0.075234 -0.809669
H29   H     H_    0.434175 0.723788 0.014964 0.275813
H30   H     H_    0.375315 0.762638 0.082419 0.191647
H31   H     H_    0.467143 0.778065 0.093074 0.249911
O12   O     O_3   0.494401 0.372495 0.889970 -0.561834
C59   C     C_3   0.425468 0.346374 0.891431 0.121177
H32   H     H_    0.407415 0.331347 0.833899 0.172366
H33   H     H_    0.390313 0.388609 0.915577 0.124865
C60   C     C_3   0.421063 0.277581 0.940276 -0.805063
H34   H     H_    0.434264 0.291681 0.999329 0.281974
H35   H     H_    0.367712 0.254625 0.938625 0.194949
H36   H     H_    0.457300 0.235082 0.919376 0.245463
O13   O     O_3   0.481130 0.635205 0.728688 -0.559221
C61   C     C_3   0.409442 0.648935 0.726275 0.136938
H37   H     H_    0.388156 0.655426 0.783989 0.156159
H38   H     H_    0.381276 0.603256 0.696941 0.118934
C62   C     C_3   0.396458 0.720136 0.683355 -0.805918
H39   H     H_    0.415670 0.715124 0.624954 0.257120
H40   H     H_    0.340197 0.731253 0.681491 0.194918
H41   H     H_    0.423081 0.767145 0.711601 0.238788
O14   O     O_3   0.495847 0.367105 0.265124 -0.545802
C63   C     C_3   0.428017 0.337716 0.260419 0.112133
H42   H     H_    0.399443 0.354215 0.208567 0.137273
H43   H     H_    0.397927 0.356430 0.309847 0.120404
C64   C     C_3   0.431553 0.253815 0.260940 -0.737272
H44   H     H_    0.463030 0.234731 0.309208 0.266788
H45   H     H_    0.378740 0.229836 0.265385 0.201071
H46   H     H_    0.455715 0.234138 0.208149 0.243269
O15   O     O_3   0.516992 0.635711 0.271231 -0.559296
C65   C     C_3   0.588442 0.652318 0.271709 0.134507
H47   H     H_    0.607788 0.661603 0.213540 0.158785
H48   H     H_    0.618335 0.606903 0.298379 0.114334
C66   C     C_3   0.601472 0.722530 0.316705 -0.804567
H49   H     H_    0.584689 0.714507 0.375683 0.258001
H50   H     H_    0.657475 0.736202 0.316506 0.195143
H51   H     H_    0.572765 0.769251 0.291515 0.239354
O16   O     O_3   0.504985 0.367251 0.734839 -0.544734
C67   C     C_3   0.573130 0.340112 0.739825 0.112874
H52   H     H_    0.601256 0.357450 0.791879 0.138599
H53   H     H_    0.603219 0.359912 0.690587 0.119869
C68   C     C_3   0.570585 0.256102 0.739104 -0.741819
H54   H     H_    0.540066 0.236046 0.690252 0.265055
H55   H     H_    0.623735 0.233896 0.735549 0.199796
H56   H     H_    0.545898 0.235525 0.791444 0.245053
O17   O     O_3   0.932410 0.630330 0.471569 -0.564255
C69   C     C_3   0.926309 0.658261 0.545312 0.119423
H57   H     H_    0.978111 0.672163 0.568989 0.165554
H58   H     H_    0.899783 0.617886 0.583028 0.127131
C70   C     C_3   0.883553 0.728267 0.543295 -0.790560
H59   H     H_    0.831221 0.715730 0.520668 0.251609
H60   H     H_    0.878483 0.750986 0.600972 0.193766
H61   H     H_    0.909007 0.770309 0.507017 0.252211
O18   O     O_3   0.070259 0.363847 0.507888 -0.540392
C71   C     C_3   0.066430 0.309573 0.450843 0.127774
H62   H     H_    0.065131 0.333707 0.393152 0.085680
H63   H     H_    0.020161 0.274071 0.459473 0.192492
C72   C     C_3   0.129093 0.259759 0.456472 -0.843349
H64   H     H_    0.130482 0.232496 0.512369 0.257674
H65   H     H_    0.126084 0.216601 0.412193 0.196112
H66   H     H_    0.177424 0.292233 0.448765 0.246333
O19   O     O_3   0.073961 0.627028 0.463323 -0.561213
C73   C     C_3   0.086697 0.639293 0.386273 0.108707
H67   H     H_    0.037376 0.648637 0.355494 0.157387
H68   H     H_    0.114218 0.591823 0.360424 0.119587
C74   C     C_3   0.132135 0.707726 0.377734 -0.787703
H69   H     H_    0.182088 0.699480 0.407271 0.249613
H70   H     H_    0.142396 0.718193 0.317278 0.189110
H71   H     H_    0.105899 0.756506 0.402012 0.253234
O20   O     O_3   0.925813 0.362310 0.491232 -0.562969
C75   C     C_3   0.896061 0.341889 0.421408 0.057672
H72   H     H_    0.936555 0.332961 0.378204 0.104472
H73   H     H_    0.859867 0.384276 0.399968 0.155302
C76   C     C_3   0.855343 0.270314 0.431406 -0.802487
H74   H     H_    0.813409 0.278450 0.472987 0.247619
H75   H     H_    0.832060 0.253261 0.376930 0.197713
H76   H     H_    0.889931 0.225859 0.451554 0.241261
O21   O     O_3   0.408653 0.838323 0.408321 -0.573854
C77   C     C_3   0.398722 0.805582 0.336876 0.068333
H77   H     H_    0.358630 0.761367 0.340358 0.139683
H78   H     H_    0.447402 0.782391 0.313833 0.165545
C78   C     C_3   0.373446 0.863975 0.282154 -0.778193
H79   H     H_    0.412471 0.909061 0.277235 0.253567
H80   H     H_    0.365045 0.838805 0.225894 0.192782
H81   H     H_    0.324031 0.887453 0.302232 0.251520
O22   O     O_3   0.607575 0.163534 0.570426 -0.575310
C79   C     C_3   0.673751 0.192922 0.554056 0.046112
H82   H     H_    0.684867 0.241504 0.590521 0.139038
H83   H     H_    0.678822 0.209014 0.493763 0.136320
C80   C     C_3   0.727741 0.134643 0.570698 -0.771986
H84   H     H_    0.718599 0.085233 0.534875 0.244061
H85   H     H_    0.780087 0.157248 0.558843 0.200519
H86   H     H_    0.725078 0.118089 0.630737 0.252078
O23   O     O_3   0.592533 0.839184 0.591337 -0.573992
C81   C     C_3   0.597988 0.808924 0.664386 0.071948
H87   H     H_    0.636162 0.763436 0.664646 0.139919
H88   H     H_    0.547411 0.788004 0.685782 0.163518
C82   C     C_3   0.623492 0.868592 0.718129 -0.778966
H89   H     H_    0.586312 0.914937 0.719334 0.253955
H90   H     H_    0.628391 0.845359 0.775655 0.193304
H91   H     H_    0.674713 0.889837 0.699766 0.251357
O24   O     O_3   0.395895 0.160722 0.426797 -0.575976
C83   C     C_3   0.329038 0.181335 0.449888 0.053982
H92   H     H_    0.313259 0.233048 0.421110 0.136787
H93   H     H_    0.325861 0.188946 0.512022 0.137626
C84   C     C_3   0.278267 0.120454 0.427774 -0.779660
H94   H     H_    0.293658 0.067316 0.453842 0.250904
H95   H     H_    0.225713 0.134518 0.447435 0.200123
H96   H     H_    0.277323 0.113947 0.365706 0.247645

loop_
_geom_bond_atom_site_label_1
_geom_bond_atom_site_label_2
_ccdc_geom_bond_type
C81   H88   S    
Cu1   N1    S    
C74   H69   S    
C7    O17   S    
C80   H86   S    
O24   C83   S    
C14   C18   A    
C25   H15   S    
C65   H48   S    
C16   N2    A    
C24   C27   A    
O11   C57   S    
C3    C49   A    
C70   H59   S    
Cu1   Cu2   S    
C10   O20   S    
C15   C19   A    
C26   C27   A    
C58   H29   S    
C83   H93   S    
C33   C42   A    
C32   C36   A    
Cu1   O7    S    
C20   O24   S    
C69   H57   S    
C37   C40   A    
C68   H55   S    
O17   C69   S    
C38   C39   A    
C57   H27   S    
C77   H78   S    
C78   H81   S    
C81   C82   S    
C59   H32   S    
C82   H89   S    
C65   C66   S    
C15   H11   S    
C82   H90   S    
O20   C75   S    
C23   C26   A    
C23   H13   S    
C80   H85   S    
C3    C12   S    
C60   H35   S    
Cu2   O2    S    
C72   H64   S    
C83   C84   S    
C51   H7    S    
C66   H51   S    
C35   O13   S    
C6    C46   A    
C60   H34   S    
C71   H63   S    
C2    O2    A    
C73   C74   S    
C54   H20   S    
C81   H87   S    
C56   H25   S    
C76   H74   S    
C41   C43   S    
C70   H60   S    
C74   H70   S    
Cu1   O3    S    
C34   C41   A    
C42   C44   S    
C61   H37   S    
C69   H58   S    
C76   H75   S    
C7    C12   A    
C78   H80   S    
C5    C48   A    
O14   C63   S    
C83   H92   S    
C8    C11   A    
C4    C51   A    
C1    C6    S    
C77   C78   S    
C77   H77   S    
C36   C40   A    
C24   C25   A    
C71   C72   S    
O13   C61   S    
C6    C47   A    
C62   H41   S    
O10   C55   S    
O15   C65   S    
C47   C51   A    
C13   N1    A    
C78   H79   S    
C5    C45   A    
C48   H4    S    
O9    C53   S    
C60   H36   S    
C4    C50   A    
C25   C28   A    
C34   C38   A    
C72   H65   S    
C82   H91   S    
Cu1   O5    S    
C43   C44   T    
C47   H3    S    
C69   C70   S    
C55   H23   S    
C32   O10   S    
C13   H9    S    
C45   C49   A    
C16   C20   A    
C14   H10   S    
C71   H62   S    
C29   O5    A    
C56   H24   S    
C23   C28   A    
C4    C11   S    
C9    O19   S    
C8    O18   S    
C9    C11   A    
C54   H19   S    
C10   C12   A    
O21   C77   S    
Cu2   O4    S    
C30   O7    A    
C70   H61   S    
C8    C10   A    
C21   C28   S    
C20   C22   A    
C53   H17   S    
C74   H71   S    
C53   H18   S    
C22   C27   S    
Cu2   O8    S    
C66   H49   S    
C26   H16   S    
C31   C35   A    
C68   H56   S    
C2    C5    S    
C16   H12   S    
C63   H43   S    
C57   C58   S    
C54   H21   S    
C55   C56   S    
C66   H50   S    
C73   H67   S    
O16   C67   S    
C84   H96   S    
C17   O21   S    
C7    C9    A    
C84   H94   S    
C31   C41   A    
C19   C21   A    
C18   C22   A    
C1    O4    A    
C14   N2    A    
Cu1   O1    S    
C67   C68   S    
C31   O9    S    
C61   H38   S    
C3    C52   A    
C19   O23   S    
C67   H53   S    
C72   H66   S    
C56   H26   S    
C53   C54   S    
C15   N1    A    
O12   C59   S    
C46   C50   A    
C18   O22   S    
C57   H28   S    
C49   H5    S    
C13   C17   A    
C50   H6    S    
C63   C64   S    
C62   H40   S    
C65   H47   S    
C79   H82   S    
C1    O1    A    
C73   H68   S    
O19   C73   S    
C62   H39   S    
O22   C79   S    
C64   H44   S    
C29   O8    A    
C59   H33   S    
C79   C80   S    
C64   H46   S    
C35   C39   A    
C34   O12   S    
C29   C40   S    
C76   H76   S    
C38   O16   S    
C37   O15   S    
C30   C39   S    
C36   O14   S    
C33   O11   S    
C80   H84   S    
C33   C37   A    
C61   C62   S    
C67   H52   S    
C24   H14   S    
C30   O6    A    
C48   C52   A    
Cu2   N2    S    
C45   H1    S    
C58   H30   S    
O23   C81   S    
C75   H72   S    
C46   H2    S    
C64   H45   S    
C32   C42   A    
C52   H8    S    
C58   H31   S    
C75   H73   S    
Cu2   O6    S    
C63   H42   S    
C68   H54   S    
C84   H95   S    
C79   H83   S    
C59   C60   S    
C2    O3    A    
C55   H22   S    
O18   C71   S    
C75   C76   S    
C17   C21   A    
