data_mof_unit_8468.cif
_audit_creation_date              2012-12-10T18:46:45-0500
_audit_creation_method            fapswitch 2.2
_symmetry_space_group_name_H-M    P1
_symmetry_Int_Tables_number       1
_space_group_crystal_system       triclinic
_cell_length_a                    18.102544
_cell_length_b                    18.097903
_cell_length_c                    51.363978
_cell_angle_alpha                 89.998616
_cell_angle_beta                  90.002076
_cell_angle_gamma                 90.008819
_cell_volume                      16827.7679138

loop_
_atom_site_label
_atom_site_type_symbol
_atom_type_description
_atom_site_fract_x
_atom_site_fract_y
_atom_site_fract_z
_atom_type_partial_charge
C1    C     C_R   0.000021 0.500012 0.820817 0.518319
C2    C     C_R   0.574217 0.887174 0.013488 0.227847
C3    C     C_3   0.266852 0.302289 0.732132 -0.111054
C4    C     C_3   0.304631 0.730684 0.266609 -0.110984
C5    C     C_3   0.695531 0.269143 0.733304 -0.110938
C6    C     C_3   0.266341 0.301781 0.268102 -0.110737
C7    C     C_3   0.733066 0.697637 0.732171 -0.111085
C8    C     C_3   0.220076 0.814439 0.742737 0.018884
C9    C     C_3   0.779845 0.185636 0.257385 0.018954
C10   C     C_3   0.184861 0.219006 0.744143 0.018931
C11   C     C_3   0.815251 0.781186 0.255562 0.019373
C12   C     C_3   0.779908 0.185569 0.742721 0.018844
C13   C     C_R   0.873789 0.551702 0.986449 0.225300
C14   C     C_3   0.220161 0.814354 0.257403 0.018938
C15   C     C_3   0.815117 0.780963 0.744095 0.018792
C16   C     C_3   0.184735 0.218792 0.255522 0.019309
C17   C     C_3   0.720131 0.314375 0.242561 0.018703
C18   C     C_3   0.279944 0.685553 0.757320 0.018677
C19   C     C_3   0.684744 0.718819 0.244471 0.019245
C20   C     C_3   0.315136 0.280989 0.755813 0.019422
C21   C     C_3   0.279859 0.685635 0.242552 0.018443
C22   C     C_3   0.720068 0.314439 0.757332 0.018923
C23   C     C_3   0.315270 0.281205 0.244507 0.019306
C24   C     C_R   0.130218 0.466892 0.013547 0.230090
C25   C     C_3   0.684889 0.719040 0.755867 0.019490
C26   C     C_3   0.301157 0.801314 0.750290 0.040041
C27   C     C_3   0.698843 0.198686 0.249712 0.039756
C28   C     C_3   0.198566 0.301030 0.750211 0.039357
C29   C     C_3   0.801459 0.698996 0.249794 0.038968
C30   C     C_3   0.698840 0.198687 0.750290 0.040160
C31   C     C_3   0.301154 0.801315 0.249717 0.039828
C32   C     C_3   0.801431 0.698966 0.750213 0.039358
C33   C     C_3   0.198539 0.301003 0.249794 0.038984
C34   C     C_3   0.801130 0.301332 0.250242 0.039634
C35   C     C_R   0.559583 0.878546 0.986713 0.236816
C36   C     C_3   0.198867 0.698670 0.749757 0.039483
C37   C     C_3   0.698542 0.801011 0.250232 0.039725
C38   C     C_3   0.301426 0.198960 0.749752 0.039524
C39   C     C_3   0.198868 0.698669 0.250245 0.039822
C40   C     C_3   0.801133 0.301328 0.749755 0.039209
C41   C     C_3   0.301461 0.198992 0.250230 0.039743
C42   C     C_3   0.698579 0.801042 0.749754 0.039676
C43   C     C_3   0.277364 0.756055 0.774170 0.011635
C44   C     C_3   0.722880 0.243700 0.225804 0.011538
C45   C     C_3   0.246765 0.280414 0.773728 0.011753
C46   C     C_R   0.426095 0.113960 0.013449 0.227829
C47   C     C_3   0.752693 0.718982 0.226356 0.012388
C48   C     C_3   0.722671 0.243915 0.774172 0.011727
C49   C     C_3   0.277088 0.756332 0.225806 0.011228
C50   C     C_3   0.753341 0.719684 0.773745 0.013610
C51   C     C_3   0.247374 0.281101 0.226366 0.012025
C52   C     C_3   0.777096 0.256301 0.274143 0.011866
C53   C     C_3   0.222656 0.743948 0.725885 0.011560
C54   C     C_3   0.747295 0.781022 0.273676 0.011956
C55   C     C_3   0.253241 0.219584 0.726229 0.010977
C56   C     C_3   0.222932 0.743666 0.274151 0.014117
C57   C     C_R   0.125543 0.451214 0.986736 0.227832
C58   C     C_3   0.777304 0.256082 0.725879 0.012167
C59   C     C_3   0.252638 0.218898 0.273662 0.011185
C60   C     C_3   0.746658 0.780317 0.726217 0.011224
C61   C     C_R   0.531952 0.942793 0.945067 0.507555
C62   C     C_R   0.468274 0.058167 0.054984 0.514745
C63   C     C_R   0.062468 0.480875 0.945108 0.515272
C64   C     C_R   0.935955 0.520252 0.054908 0.499370
C65   C     C_R   0.468295 0.058101 0.945048 0.507687
C66   C     C_R   0.531802 0.942861 0.054990 0.514697
C67   C     C_R   0.937100 0.521134 0.944995 0.516650
C68   C     C_R   0.867935 0.535520 0.013215 0.235847
C69   C     C_R   0.060857 0.478663 0.054958 0.531759
C70   C     C_R   0.987361 0.435379 0.445096 0.516253
C71   C     C_R   0.011816 0.564644 0.555001 0.517694
C72   C     C_R   0.562796 0.024614 0.445078 0.499171
C73   C     C_R   0.439026 0.977359 0.554891 0.515735
C74   C     C_R   0.012826 0.564614 0.445104 0.515959
C75   C     C_R   0.987670 0.435142 0.554991 0.517362
C76   C     C_R   0.440864 0.974924 0.445034 0.531813
C77   C     C_R   0.561670 0.025260 0.555000 0.517272
C78   C     C_R   0.470351 0.061732 0.972516 0.022576
C79   C     C_R   0.034223 0.631101 0.486695 0.228718
C80   C     C_R   0.536837 0.943376 0.027552 0.016285
C81   C     C_R   0.936325 0.525967 0.972428 0.017115
C82   C     C_R   0.064447 0.482687 0.027554 0.014105
C83   C     C_R   0.529935 0.939244 0.972535 0.022600
C84   C     C_R   0.463349 0.057698 0.027537 0.016193
C85   C     C_R   0.062887 0.476090 0.972553 0.013492
C86   C     C_R   0.933003 0.517787 0.027428 0.016270
C87   C     C_R   0.017086 0.565840 0.472558 0.017402
C88   C     C_R   0.990882 0.432421 0.527530 0.013283
C89   C     C_R   0.437009 0.978727 0.472440 0.013494
C90   C     C_R   0.981782 0.365545 0.513371 0.230412
C91   C     C_R   0.562041 0.030285 0.527567 0.016270
C92   C     C_R   0.982677 0.434215 0.472531 0.013541
C93   C     C_R   0.008459 0.567416 0.527551 0.013680
C94   C     C_R   0.565888 0.022438 0.472562 0.015450
C95   C     C_R   0.438975 0.972424 0.527447 0.012889
C96   C     C_R   0.500128 0.000501 0.986257 -0.097318
C97   C     C_R   0.500102 0.000526 0.013792 -0.102191
C98   C     C_R   0.999359 0.500783 0.986231 -0.103170
C99   C     C_R   0.998905 0.500363 0.013753 -0.106316
C100  C     C_R   0.999851 0.499997 0.486282 -0.102717
C101  C     C_R   0.372421 0.958595 0.486458 0.231334
C102  C     C_R   0.999744 0.499941 0.513809 -0.104460
C103  C     C_R   0.501258 0.000708 0.486238 -0.107617
C104  C     C_R   0.500774 0.001116 0.513763 -0.104334
C105  C     C_3   0.188799 0.890707 0.736074 -0.265013
C106  C     C_3   0.106105 0.887692 0.730530 -0.446457
C107  C     C_3   0.811051 0.109439 0.264190 -0.265232
C108  C     C_3   0.893689 0.112512 0.269838 -0.446997
C109  C     C_3   0.108058 0.186529 0.739178 -0.264046
C110  C     C_3   0.110889 0.103190 0.734909 -0.446558
C111  C     C_3   0.892131 0.813898 0.260185 -0.263705
C112  C     C_R   0.999956 0.499983 0.179179 0.517252
C113  C     C_R   0.622675 0.060211 0.513555 0.226422
C114  C     C_3   0.889290 0.897343 0.264202 -0.447253
C115  C     C_3   0.811170 0.109308 0.736042 -0.265022
C116  C     C_3   0.893854 0.112325 0.730482 -0.446467
C117  C     C_3   0.188970 0.890542 0.264227 -0.265134
C118  C     C_3   0.106335 0.887470 0.269879 -0.447072
C119  C     C_3   0.891902 0.813410 0.739072 -0.264127
C120  C     C_3   0.889064 0.896732 0.734763 -0.446723
C121  C     C_3   0.107846 0.186047 0.260099 -0.263735
C122  C     C_3   0.110694 0.102590 0.264086 -0.447115
C123  C     C_3   0.688943 0.390561 0.235731 -0.265223
C124  C     C_R   0.964943 0.369065 0.486619 0.227903
C125  C     C_3   0.606307 0.387491 0.230082 -0.446558
C126  C     C_3   0.311204 0.609298 0.764008 -0.264975
C127  C     C_3   0.393896 0.612311 0.769554 -0.447029
C128  C     C_3   0.607858 0.686096 0.239866 -0.263540
C129  C     C_3   0.610699 0.602649 0.235852 -0.446705
C130  C     C_3   0.391946 0.313483 0.760756 -0.263905
C131  C     C_3   0.389112 0.396827 0.765015 -0.447307
C132  C     C_3   0.311034 0.609456 0.235709 -0.265320
C133  C     C_3   0.393666 0.612526 0.230054 -0.446478
C134  C     C_3   0.688822 0.390686 0.764036 -0.265024
C135  C     C_R   0.017153 0.634381 0.513433 0.230481
C136  C     C_3   0.606137 0.387670 0.769594 -0.447097
C137  C     C_3   0.392164 0.313959 0.239947 -0.263588
C138  C     C_3   0.389317 0.397420 0.235965 -0.446680
C139  C     C_3   0.608099 0.686578 0.760871 -0.263819
C140  C     C_3   0.610941 0.603250 0.765170 -0.447318
C141  C     C_3   0.308142 0.769666 0.801523 -0.270593
C142  C     C_3   0.273132 0.718861 0.821746 -0.403551
C143  C     C_3   0.692375 0.229795 0.198430 -0.268112
C144  C     C_3   0.727566 0.280393 0.178182 -0.407975
C145  C     C_3   0.236489 0.314829 0.800712 -0.268178
C146  C     C_R   0.629621 0.044544 0.486784 0.236881
C147  C     C_3   0.289778 0.282509 0.820688 -0.413410
C148  C     C_3   0.762348 0.683865 0.199456 -0.268674
C149  C     C_3   0.708613 0.715686 0.179530 -0.415551
C150  C     C_3   0.691929 0.230269 0.801528 -0.270270
C151  C     C_3   0.726967 0.281047 0.821753 -0.404236
C152  C     C_3   0.307564 0.770270 0.198431 -0.269811
C153  C     C_3   0.272364 0.719686 0.178181 -0.403981
C154  C     C_3   0.763748 0.685384 0.800743 -0.270233
C155  C     C_3   0.710563 0.717794 0.820733 -0.417986
C156  C     C_3   0.237795 0.316311 0.199478 -0.268315
C157  C     C_R   0.378134 0.943393 0.513278 0.228849
C158  C     C_3   0.291588 0.284558 0.179559 -0.415109
C159  C     C_3   0.807610 0.270117 0.301517 -0.267762
C160  C     C_3   0.772562 0.219309 0.321729 -0.411524
C161  C     C_3   0.191858 0.730432 0.698533 -0.268853
C162  C     C_3   0.226706 0.781461 0.678347 -0.409759
C163  C     C_3   0.737572 0.816119 0.300578 -0.270072
C164  C     C_3   0.791165 0.784190 0.320531 -0.408948
C165  C     C_3   0.263580 0.185218 0.699237 -0.269276
C166  C     C_3   0.210479 0.217718 0.679233 -0.407058
C167  C     C_3   0.192445 0.729796 0.301524 -0.270860
C168  C     C_R   0.065621 0.483979 0.609605 0.254914
C169  C     C_3   0.227519 0.780553 0.321746 -0.415786
C170  C     C_3   0.808049 0.269628 0.698523 -0.266457
C171  C     C_3   0.773128 0.218651 0.678335 -0.415858
C172  C     C_3   0.262276 0.183710 0.300554 -0.269916
C173  C     C_3   0.208616 0.215569 0.320497 -0.406154
C174  C     C_3   0.736208 0.814567 0.699211 -0.269413
C175  C     C_3   0.789230 0.781984 0.679199 -0.407342
C176  C     C_R   0.067390 0.493463 0.390441 0.202553
C177  C     C_R   0.482548 0.065964 0.609693 0.208415
C178  C     C_R   0.485253 0.065331 0.390494 0.256713
C179  C     C_R   0.934148 0.515856 0.609629 0.255657
C180  C     C_R   0.500003 0.000012 0.820803 0.514844
C181  C     C_R   0.932764 0.506404 0.390467 0.258315
C182  C     C_R   0.517700 0.935305 0.609532 0.260978
C183  C     C_R   0.517444 0.933935 0.390317 0.200812
C184  C     C_R   0.562689 0.025758 0.109705 0.210309
C185  C     C_R   0.564044 0.022207 0.890346 0.208443
C186  C     C_R   0.010786 0.566037 0.109472 0.256481
C187  C     C_R   0.013738 0.566715 0.890341 0.203978
C188  C     C_R   0.437262 0.975021 0.109673 0.210468
C189  C     C_R   0.436057 0.978378 0.890381 0.208106
C190  C     C_R   0.986960 0.432865 0.109672 0.201104
C191  C     C_R   0.499998 0.000017 0.179208 0.518199
C192  C     C_R   0.986299 0.434224 0.890474 0.257543
C193  C     C_R   0.064807 0.484001 0.636809 -0.126064
C194  C     C_R   0.066585 0.494316 0.363245 -0.151517
C195  C     C_R   0.483606 0.065064 0.636884 -0.150889
C196  C     C_R   0.485763 0.064946 0.363281 -0.129348
C197  C     C_R   0.935077 0.515909 0.636830 -0.125767
C198  C     C_R   0.933497 0.505554 0.363268 -0.122422
C199  C     C_R   0.516345 0.935556 0.636735 -0.121512
C200  C     C_R   0.515792 0.934651 0.363116 -0.134585
C201  C     C_R   0.562334 0.024143 0.136903 -0.147770
C202  C     C_R   0.500052 0.999987 0.320815 0.516794
C203  C     C_R   0.563609 0.020769 0.863138 -0.131257
C204  C     C_R   0.010322 0.565660 0.136684 -0.129469
C205  C     C_R   0.012722 0.565822 0.863152 -0.151653
C206  C     C_R   0.437635 0.976324 0.136874 -0.147623
C207  C     C_R   0.436447 0.979578 0.863170 -0.131110
C208  C     C_R   0.988388 0.433753 0.136869 -0.134585
C209  C     C_R   0.987462 0.434632 0.863273 -0.122429
C210  C     C_R   0.999966 0.499971 0.650543 -0.065493
C211  C     C_R   0.000024 0.499960 0.349506 -0.057332
C212  C     C_R   0.499953 0.000172 0.650538 -0.055934
C213  C     C_R   0.499982 0.000017 0.679188 0.518327
C214  C     C_R   0.500487 0.999877 0.349471 -0.061195
C215  C     C_R   0.499994 0.000144 0.150591 -0.043872
C216  C     C_R   0.500019 0.000110 0.849442 -0.056506
C217  C     C_R   0.999593 0.499828 0.150512 -0.061774
C218  C     C_R   0.000078 0.500127 0.849476 -0.056390
C219  C     C_R   0.999853 0.499876 0.595817 0.190118
C220  C     C_R   0.000113 0.499978 0.404269 0.193646
C221  C     C_R   0.500233 0.000815 0.595787 0.193619
C222  C     C_R   0.501784 0.999580 0.404190 0.189519
C223  C     C_R   0.499973 0.000462 0.095850 0.199098
C224  C     C_R   0.000003 0.499992 0.320826 0.518505
C225  C     C_R   0.500062 0.000354 0.904173 0.180818
C226  C     C_R   0.998465 0.499347 0.095792 0.189722
C227  C     C_R   0.999945 0.500605 0.904224 0.193435
C228  C     C_R   0.141661 0.358400 0.750333 0.494874
C229  C     C_R   0.858358 0.641620 0.249675 0.494712
C230  C     C_R   0.641496 0.141760 0.750383 0.494737
C231  C     C_R   0.358500 0.858242 0.249619 0.495223
C232  C     C_R   0.858336 0.641597 0.750334 0.494959
C233  C     C_R   0.141641 0.358379 0.249676 0.495341
C234  C     C_R   0.358503 0.858241 0.750382 0.494871
C235  C     C_R   0.999996 0.499996 0.679192 0.517816
C236  C     C_R   0.641497 0.141759 0.249618 0.494927
C237  C     C_R   0.641648 0.858388 0.250332 0.494986
C238  C     C_R   0.358328 0.141589 0.749656 0.495307
C239  C     C_R   0.141514 0.641746 0.250369 0.494885
C240  C     C_R   0.858487 0.358252 0.749630 0.494593
C241  C     C_R   0.358354 0.141614 0.250331 0.495133
C242  C     C_R   0.641675 0.858412 0.749656 0.494811
C243  C     C_R   0.858486 0.358255 0.250369 0.494693
C244  C     C_R   0.141514 0.641745 0.749632 0.495154
C245  C     C_3   0.195576 0.769102 0.766759 -0.110851
C246  C     C_R   0.440785 0.122502 0.986672 0.237036
C247  C     C_3   0.804591 0.230725 0.233335 -0.111233
C248  C     C_3   0.233137 0.197709 0.767828 -0.110765
C249  C     C_3   0.766399 0.801844 0.231953 -0.110904
C250  C     C_3   0.804447 0.230874 0.766746 -0.111006
C251  C     C_3   0.195386 0.769298 0.233349 -0.111454
C252  C     C_3   0.766947 0.802363 0.767794 -0.111053
C253  C     C_3   0.233657 0.198219 0.231924 -0.110819
C254  C     C_3   0.695387 0.269295 0.266614 -0.110964
C255  C     C_3   0.304442 0.730880 0.733293 -0.110859
C256  C     C_3   0.733603 0.698159 0.268076 -0.110758
H1    H     H_    0.150220 0.783640 0.780377 0.130313
H2    H     H_    0.349791 0.716335 0.719673 0.129722
H3    H     H_    0.585212 0.444393 0.773077 0.133819
H4    H     H_    0.718457 0.413765 0.781103 0.138790
H5    H     H_    0.698423 0.428287 0.747279 0.159928
H6    H     H_    0.360042 0.411275 0.217665 0.154450
H7    H     H_    0.361146 0.424720 0.252586 0.156708
H8    H     H_    0.446348 0.419443 0.234612 0.132772
H9    H     H_    0.427066 0.301980 0.257227 0.163774
H10   H     H_    0.418249 0.287208 0.222827 0.138130
H11   H     H_    0.638227 0.575357 0.748488 0.155958
H12   H     H_    0.641072 0.589893 0.783342 0.154553
H13   H     H_    0.721296 0.654955 0.282799 0.132980
H14   H     H_    0.553929 0.581437 0.766962 0.132515
H15   H     H_    0.582644 0.713918 0.777993 0.137906
H16   H     H_    0.572636 0.698079 0.743693 0.162582
H17   H     H_    0.212011 0.724025 0.821383 0.174178
H18   H     H_    0.288812 0.660592 0.818116 0.152329
H19   H     H_    0.293087 0.734478 0.841432 0.186565
H20   H     H_    0.368956 0.762110 0.801461 0.138242
H21   H     H_    0.296542 0.827863 0.807048 0.177065
H22   H     H_    0.711831 0.338695 0.181714 0.151118
H23   H     H_    0.788685 0.275253 0.178627 0.171535
H24   H     H_    0.279538 0.345868 0.717587 0.131494
H25   H     H_    0.707809 0.264555 0.158492 0.189196
H26   H     H_    0.704046 0.171544 0.192994 0.174389
H27   H     H_    0.631559 0.237332 0.198408 0.140472
H28   H     H_    0.284485 0.221414 0.821462 0.169321
H29   H     H_    0.347529 0.297470 0.815867 0.152109
H30   H     H_    0.276743 0.305235 0.840232 0.177421
H31   H     H_    0.244018 0.375573 0.799514 0.139957
H32   H     H_    0.179040 0.304048 0.807300 0.174785
H33   H     H_    0.650963 0.700936 0.184578 0.153979
H34   H     H_    0.713958 0.776750 0.178526 0.164239
H35   H     H_    0.350139 0.715982 0.280144 0.129597
H36   H     H_    0.721145 0.692394 0.160028 0.176182
H37   H     H_    0.819650 0.694451 0.192673 0.173260
H38   H     H_    0.754825 0.623158 0.200873 0.138912
H39   H     H_    0.788088 0.275882 0.821381 0.174509
H40   H     H_    0.711283 0.339321 0.818134 0.151703
H41   H     H_    0.707039 0.265404 0.841440 0.186265
H42   H     H_    0.631116 0.237828 0.801475 0.138356
H43   H     H_    0.703535 0.172065 0.807043 0.177043
H44   H     H_    0.288125 0.661385 0.181703 0.152595
H45   H     H_    0.211244 0.724805 0.178635 0.172680
H46   H     H_    0.650160 0.283707 0.719693 0.127455
H47   H     H_    0.292090 0.735556 0.158491 0.191909
H48   H     H_    0.295877 0.828524 0.193002 0.174402
H49   H     H_    0.368382 0.762744 0.198402 0.140609
H50   H     H_    0.715862 0.778892 0.821470 0.168570
H51   H     H_    0.652787 0.702814 0.815956 0.154078
H52   H     H_    0.723699 0.695154 0.840282 0.170204
H53   H     H_    0.756209 0.624636 0.799583 0.139527
H54   H     H_    0.821230 0.696190 0.807291 0.168345
H55   H     H_    0.349224 0.299286 0.184636 0.153862
H56   H     H_    0.286243 0.223498 0.178527 0.164021
H57   H     H_    0.278602 0.344933 0.282848 0.132627
H58   H     H_    0.279116 0.307921 0.160062 0.177105
H59   H     H_    0.180512 0.305748 0.192669 0.173711
H60   H     H_    0.245314 0.377013 0.200922 0.139682
H61   H     H_    0.711426 0.224224 0.321267 0.169262
H62   H     H_    0.788524 0.161081 0.318176 0.153808
H63   H     H_    0.792219 0.235130 0.341431 0.179964
H64   H     H_    0.868443 0.262710 0.301521 0.141353
H65   H     H_    0.795809 0.328310 0.306994 0.175588
H66   H     H_    0.210790 0.839651 0.682001 0.155847
H67   H     H_    0.287846 0.776532 0.678723 0.169520
H68   H     H_    0.720311 0.653999 0.717657 0.131502
H69   H     H_    0.206842 0.765866 0.658649 0.180029
H70   H     H_    0.203596 0.672297 0.692964 0.176121
H71   H     H_    0.131026 0.737848 0.698618 0.141224
H72   H     H_    0.785665 0.723140 0.321544 0.174206
H73   H     H_    0.848868 0.798788 0.315501 0.150825
H74   H     H_    0.778619 0.807534 0.340025 0.177328
H75   H     H_    0.745188 0.876816 0.299177 0.137264
H76   H     H_    0.680225 0.805613 0.307331 0.175383
H77   H     H_    0.152656 0.202968 0.684032 0.152193
H78   H     H_    0.215988 0.278795 0.678454 0.170816
H79   H     H_    0.114915 0.470686 0.647332 0.183030
H80   H     H_    0.223512 0.194942 0.659695 0.184607
H81   H     H_    0.321088 0.195882 0.692687 0.174498
H82   H     H_    0.255913 0.124488 0.700408 0.139789
H83   H     H_    0.288654 0.775631 0.321277 0.169947
H84   H     H_    0.211559 0.838791 0.318210 0.156733
H85   H     H_    0.207880 0.764686 0.341447 0.169229
H86   H     H_    0.131612 0.737210 0.301537 0.139987
H87   H     H_    0.204244 0.671590 0.306986 0.169661
H88   H     H_    0.789001 0.160443 0.681979 0.155849
H89   H     H_    0.711993 0.223630 0.678721 0.161983
H90   H     H_    0.118344 0.490326 0.352760 0.172989
H91   H     H_    0.792975 0.234253 0.658636 0.177067
H92   H     H_    0.796329 0.327778 0.692967 0.175409
H93   H     H_    0.868877 0.262181 0.698591 0.141275
H94   H     H_    0.214110 0.276616 0.321537 0.173893
H95   H     H_    0.150931 0.200987 0.315436 0.151189
H96   H     H_    0.221097 0.192159 0.339986 0.183014
H97   H     H_    0.254668 0.123017 0.299125 0.138366
H98   H     H_    0.319602 0.194197 0.307335 0.176261
H99   H     H_    0.847070 0.796770 0.683959 0.152341
H100  H     H_    0.783732 0.720903 0.678460 0.170788
H101  H     H_    0.470866 0.115289 0.647446 0.167751
H102  H     H_    0.776107 0.804667 0.659655 0.183836
H103  H     H_    0.678674 0.803869 0.692695 0.175243
H104  H     H_    0.743875 0.875302 0.700345 0.138916
H105  H     H_    0.494668 0.274672 0.943607 0.384014
H106  H     H_    0.733081 0.861526 0.056651 0.393684
H107  H     H_    0.817652 0.703491 0.943647 0.397096
H108  H     H_    0.264783 0.553450 0.057225 0.387033
H109  H     H_    0.506130 0.726108 0.943700 0.384080
H110  H     H_    0.267286 0.140271 0.056582 0.394137
H111  H     H_    0.187422 0.301450 0.944027 0.396315
H112  H     H_    0.850087 0.216047 0.219794 0.130214
H113  H     H_    0.473928 0.115495 0.352802 0.182407
H114  H     H_    0.728478 0.453906 0.056193 0.383268
H115  H     H_    0.177345 0.708444 0.444308 0.395292
H116  H     H_    0.082397 0.238996 0.556204 0.390096
H117  H     H_    0.232112 0.035575 0.442797 0.386948
H118  H     H_    0.667928 0.214535 0.556786 0.392665
H119  H     H_    0.820919 0.293846 0.444137 0.395366
H120  H     H_    0.914767 0.759427 0.556279 0.389937
H121  H     H_    0.774582 0.972857 0.443871 0.383566
H122  H     H_    0.326740 0.790964 0.556500 0.391687
H123  H     H_    0.198382 0.358894 0.580239 0.397739
H124  H     H_    0.885000 0.529274 0.647365 0.182740
H125  H     H_    0.193662 0.590522 0.391014 0.334501
H126  H     H_    0.551194 0.210270 0.611622 0.334984
H127  H     H_    0.411996 0.180446 0.442900 0.393327
H128  H     H_    0.800118 0.641465 0.581283 0.396049
H129  H     H_    0.759432 0.435709 0.415773 0.394717
H130  H     H_    0.478502 0.752434 0.584023 0.392816
H131  H     H_    0.645024 0.877965 0.422548 0.378454
H132  H     H_    0.714870 0.976642 0.111605 0.336110
H133  H     H_    0.606339 0.150442 0.924966 0.379691
H134  H     H_    0.076457 0.685774 0.057074 0.394947
H135  H     H_    0.881702 0.509535 0.352801 0.182486
H136  H     H_    0.935081 0.705608 0.889052 0.334694
H137  H     H_    0.285396 0.024888 0.111365 0.336273
H138  H     H_    0.394010 0.850406 0.925105 0.379690
H139  H     H_    0.863478 0.367803 0.077318 0.380549
H140  H     H_    0.037147 0.254919 0.916555 0.396397
H141  H     H_    0.528937 0.885113 0.647189 0.179971
H142  H     H_    0.527249 0.884248 0.352506 0.184782
H143  H     H_    0.610703 0.042765 0.147459 0.162122
H144  H     H_    0.612804 0.036803 0.852555 0.181128
H145  H     H_    0.018884 0.616901 0.147138 0.183383
H146  H     H_    0.022412 0.616766 0.852616 0.169932
H147  H     H_    0.389267 0.957608 0.147408 0.162498
H148  H     H_    0.220443 0.154139 0.782375 0.131353
H149  H     H_    0.387238 0.963456 0.852611 0.181198
H150  H     H_    0.980155 0.382710 0.147471 0.185950
H151  H     H_    0.977869 0.383532 0.852824 0.181548
H152  H     H_    0.094683 0.854331 0.712906 0.157260
H153  H     H_    0.075959 0.863735 0.747363 0.153097
H154  H     H_    0.085172 0.944417 0.727059 0.134444
H155  H     H_    0.198413 0.928240 0.752850 0.160496
H156  H     H_    0.218406 0.913875 0.719017 0.139575
H157  H     H_    0.923996 0.136279 0.253007 0.152967
H158  H     H_    0.904929 0.146087 0.287426 0.157050
H159  H     H_    0.778711 0.845043 0.217229 0.128552
H160  H     H_    0.914593 0.055830 0.273422 0.133942
H161  H     H_    0.781267 0.086461 0.281241 0.138700
H162  H     H_    0.801607 0.071721 0.247455 0.159285
H163  H     H_    0.140902 0.089790 0.716717 0.155332
H164  H     H_    0.138291 0.075351 0.751580 0.156038
H165  H     H_    0.053870 0.081362 0.733170 0.133022
H166  H     H_    0.072644 0.198082 0.756364 0.162754
H167  H     H_    0.082559 0.213813 0.722052 0.138633
H168  H     H_    0.861222 0.924714 0.247573 0.155759
H169  H     H_    0.859920 0.911139 0.282488 0.154180
H170  H     H_    0.849824 0.216316 0.780354 0.131020
H171  H     H_    0.946323 0.919338 0.265607 0.132444
H172  H     H_    0.918113 0.787080 0.277313 0.138075
H173  H     H_    0.927118 0.801968 0.242923 0.162836
H174  H     H_    0.905241 0.145680 0.712853 0.157175
H175  H     H_    0.924028 0.136292 0.747307 0.153339
H176  H     H_    0.914785 0.055600 0.727010 0.134360
H177  H     H_    0.801585 0.071756 0.752815 0.160456
H178  H     H_    0.781531 0.086161 0.718988 0.138785
H179  H     H_    0.076011 0.863761 0.253042 0.152872
H180  H     H_    0.095102 0.853844 0.287456 0.156633
H181  H     H_    0.149874 0.783994 0.219815 0.130147
H182  H     H_    0.085447 0.944147 0.273485 0.134058
H183  H     H_    0.218769 0.913480 0.281282 0.139200
H184  H     H_    0.198408 0.928292 0.247500 0.159217
H185  H     H_    0.858939 0.910068 0.716588 0.155263
H186  H     H_    0.861775 0.924643 0.751441 0.155735
H187  H     H_    0.946077 0.918539 0.732969 0.133039
H188  H     H_    0.927393 0.801918 0.756244 0.161841
H189  H     H_    0.917319 0.786054 0.721946 0.138905
H190  H     H_    0.138850 0.075280 0.247464 0.155786
H191  H     H_    0.139980 0.088744 0.282384 0.154517
H192  H     H_    0.779709 0.845994 0.782310 0.130298
H193  H     H_    0.053661 0.080571 0.265446 0.132541
H194  H     H_    0.081800 0.212805 0.277226 0.138731
H195  H     H_    0.072915 0.198024 0.242826 0.162964
H196  H     H_    0.595074 0.353912 0.212494 0.156903
H197  H     H_    0.575996 0.363731 0.246913 0.153265
H198  H     H_    0.585407 0.444174 0.226494 0.134208
H199  H     H_    0.698397 0.428322 0.252454 0.160057
H200  H     H_    0.718731 0.413476 0.218670 0.138502
H201  H     H_    0.424047 0.636255 0.752720 0.153261
H202  H     H_    0.405311 0.645683 0.787177 0.156102
H203  H     H_    0.221391 0.155071 0.217177 0.128648
H204  H     H_    0.414824 0.555588 0.773032 0.133887
H205  H     H_    0.281593 0.586197 0.781076 0.139292
H206  H     H_    0.301580 0.571717 0.747247 0.160167
H207  H     H_    0.640052 0.588847 0.217564 0.154169
H208  H     H_    0.638788 0.575286 0.252479 0.156876
H209  H     H_    0.553666 0.580649 0.234457 0.132774
H210  H     H_    0.572904 0.698026 0.257137 0.163751
H211  H     H_    0.581832 0.712911 0.222746 0.138202
H212  H     H_    0.361702 0.424649 0.748342 0.156061
H213  H     H_    0.359103 0.410245 0.783206 0.154778
H214  H     H_    0.649897 0.283981 0.280157 0.130064
H215  H     H_    0.446130 0.418662 0.766748 0.132461
H216  H     H_    0.417495 0.286212 0.777875 0.138103
H217  H     H_    0.427323 0.301924 0.743561 0.162049
H218  H     H_    0.404889 0.646147 0.212474 0.157117
H219  H     H_    0.423997 0.636239 0.246888 0.153117
H220  H     H_    0.414553 0.555848 0.226447 0.134356
H221  H     H_    0.301592 0.571673 0.252427 0.159608
H222  H     H_    0.281230 0.586565 0.218647 0.139361
H223  H     H_    0.575964 0.363732 0.752764 0.152879
H224  H     H_    0.594747 0.354289 0.787217 0.156177
N1    N     N_R   0.500103 0.000421 0.932179 -0.372182
N2    N     N_R   0.500009 0.000500 0.067881 -0.372690
N3    N     N_R   0.999826 0.500856 0.932180 -0.373119
N4    N     N_R   0.998264 0.499076 0.067810 -0.369388
N5    N     N_R   0.000187 0.499980 0.432227 -0.372856
N6    N     N_R   0.999820 0.499875 0.567855 -0.373690
N7    N     N_R   0.502004 0.999367 0.432177 -0.369216
N8    N     N_R   0.500329 0.001127 0.567827 -0.371988
O1    O     O_3   0.000000 0.500000 0.750000 -0.435044
O2    O     O_R   0.000220 0.561630 0.191620 -0.541284
O3    O     O_2   0.225484 0.981649 0.492888 -0.167682
O4    O     O_3   0.281418 0.037772 0.451124 -0.447166
O5    O     O_2   0.743684 0.093424 0.541938 -0.158150
O6    O     O_2   0.711278 0.179650 0.506974 -0.166092
O7    O     O_3   0.631461 0.181064 0.548557 -0.429098
O8    O     O_2   0.956119 0.243817 0.458273 -0.162174
O9    O     O_2   0.865854 0.258298 0.493442 -0.149655
O10   O     O_3   0.847660 0.336235 0.451888 -0.448961
O11   O     O_2   0.057665 0.753113 0.541806 -0.158603
O12   O     O_2   0.969254 0.775050 0.506526 -0.172458
O13   O     O_R   0.561630 0.999780 0.808380 -0.540739
O14   O     O_3   0.921574 0.710465 0.548002 -0.451840
O15   O     O_2   0.736572 0.110407 0.458499 -0.170219
O16   O     O_2   0.777479 0.028909 0.493736 -0.159035
O17   O     O_3   0.725472 0.968227 0.452217 -0.486433
O18   O     O_2   0.255500 0.914580 0.541355 -0.155859
O19   O     O_2   0.285611 0.827039 0.506556 -0.161303
O20   O     O_3   0.364501 0.823103 0.548338 -0.450041
O21   O     O_2   0.156227 0.499076 0.567900 -0.226831
O22   O     O_2   0.213800 0.481985 0.610603 -0.258632
O23   O     O_3   0.150762 0.368851 0.589065 -0.463380
O24   O     O_R   0.438370 0.000220 0.191620 -0.542965
O25   O     O_2   0.147393 0.452649 0.432773 -0.186583
O26   O     O_2   0.205579 0.439555 0.390113 -0.247495
O27   O     O_3   0.190739 0.571352 0.409049 -0.423072
O28   O     O_2   0.432737 0.139108 0.566912 -0.191785
O29   O     O_2   0.401911 0.190298 0.609548 -0.260418
O30   O     O_3   0.536551 0.203665 0.593186 -0.429058
O31   O     O_2   0.535919 0.184590 0.415280 -0.211811
O32   O     O_2   0.424729 0.201023 0.388796 -0.253426
O33   O     O_3   0.411771 0.133365 0.433071 -0.471398
O34   O     O_2   0.844002 0.502635 0.567668 -0.227324
O35   O     O_R   0.500220 0.061630 0.308380 -0.540818
O36   O     O_2   0.786020 0.516095 0.610462 -0.260133
O37   O     O_3   0.847923 0.631386 0.589968 -0.465561
O38   O     O_2   0.852707 0.543516 0.433307 -0.225266
O39   O     O_2   0.796164 0.563017 0.390560 -0.254019
O40   O     O_3   0.808153 0.428570 0.407364 -0.468694
O41   O     O_2   0.568337 0.863290 0.566640 -0.228384
O42   O     O_2   0.597322 0.810706 0.609350 -0.268796
O43   O     O_3   0.462935 0.799070 0.592495 -0.466211
O44   O     O_2   0.469010 0.816962 0.417172 -0.157112
O45   O     O_2   0.572825 0.795747 0.387772 -0.267286
O46   O     O_R   0.499780 0.938370 0.691620 -0.540494
O47   O     O_3   0.597743 0.865029 0.431101 -0.448281
O48   O     O_2   0.628568 0.084452 0.066858 -0.183962
O49   O     O_2   0.675459 0.121851 0.109459 -0.260598
O50   O     O_3   0.706124 0.989991 0.093158 -0.424813
O51   O     O_2   0.687567 0.984194 0.915494 -0.152603
O52   O     O_2   0.694126 0.094405 0.888193 -0.270335
O53   O     O_3   0.625564 0.103795 0.932415 -0.451577
O54   O     O_2   0.952433 0.681787 0.084734 -0.211731
O55   O     O_2   0.062539 0.705322 0.111119 -0.253207
O56   O     O_3   0.079465 0.638662 0.066826 -0.469339
O57   O     O_R   0.938370 0.500220 0.308380 -0.541727
O58   O     O_2   0.060126 0.642458 0.933014 -0.186034
O59   O     O_2   0.085693 0.696335 0.890354 -0.247262
O60   O     O_3   0.951113 0.700142 0.907390 -0.424948
O61   O     O_2   0.371524 0.916306 0.066813 -0.185208
O62   O     O_2   0.324089 0.879375 0.109390 -0.259041
O63   O     O_3   0.294112 0.011253 0.092943 -0.425546
O64   O     O_2   0.312625 0.016557 0.915547 -0.153466
O65   O     O_2   0.305948 0.906200 0.888325 -0.268219
O66   O     O_3   0.374650 0.897031 0.932528 -0.451819
O67   O     O_2   0.043173 0.319221 0.082937 -0.159658
O68   O     O_R   0.061630 0.499780 0.691620 -0.540550
O69   O     O_2   0.940678 0.291360 0.112224 -0.266791
O70   O     O_3   0.911723 0.358686 0.068825 -0.445511
O71   O     O_2   0.939088 0.359351 0.933219 -0.222753
O72   O     O_2   0.915543 0.304301 0.890479 -0.255379
O73   O     O_3   0.049733 0.302348 0.908011 -0.465102
O74   O     O_R   0.499780 0.938370 0.308380 -0.540733
O75   O     O_R   0.500220 0.061630 0.691620 -0.543412
O76   O     O_R   0.061630 0.499780 0.308380 -0.542893
O77   O     O_3   1.000000 0.500000 0.250000 -0.434908
O78   O     O_R   0.938370 0.500220 0.691620 -0.540758
O79   O     O_R   0.086770 0.352080 0.765560 -0.553204
O80   O     O_R   0.913230 0.647920 0.234440 -0.553610
O81   O     O_R   0.647920 0.086770 0.765560 -0.553986
O82   O     O_R   0.352080 0.913230 0.234440 -0.555116
O83   O     O_R   0.913230 0.647920 0.765560 -0.554672
O84   O     O_R   0.086770 0.352080 0.234440 -0.553170
O85   O     O_R   0.352080 0.913230 0.765560 -0.554192
O86   O     O_R   0.647920 0.086770 0.234440 -0.555200
O87   O     O_R   0.586770 0.852080 0.265560 -0.553706
O88   O     O_3   0.500000 0.000000 0.750000 -0.434889
O89   O     O_R   0.413230 0.147920 0.734440 -0.554576
O90   O     O_R   0.147920 0.586770 0.265560 -0.554762
O91   O     O_R   0.852080 0.413230 0.734440 -0.553359
O92   O     O_R   0.413230 0.147920 0.265560 -0.553393
O93   O     O_R   0.586770 0.852080 0.734440 -0.554340
O94   O     O_R   0.852080 0.413230 0.265560 -0.553518
O95   O     O_R   0.147920 0.586770 0.734440 -0.553007
O96   O     O_R   0.852120 0.586630 0.735130 -0.548828
O97   O     O_R   0.147880 0.413370 0.264870 -0.548401
O98   O     O_R   0.413370 0.852120 0.735130 -0.548175
O99   O     O_3   0.500000 0.000000 0.250000 -0.434440
O100  O     O_R   0.586630 0.147880 0.264870 -0.548108
O101  O     O_R   0.147880 0.413370 0.735130 -0.548926
O102  O     O_R   0.852120 0.586630 0.264870 -0.548593
O103  O     O_R   0.586630 0.147880 0.735130 -0.549990
O104  O     O_R   0.413370 0.852120 0.264870 -0.547814
O105  O     O_R   0.352120 0.086630 0.235130 -0.549439
O106  O     O_R   0.647880 0.913370 0.764870 -0.547969
O107  O     O_R   0.913370 0.352120 0.235130 -0.549108
O108  O     O_R   0.086630 0.647880 0.764870 -0.549226
O109  O     O_R   0.647880 0.913370 0.235130 -0.549438
O110  O     O_R   0.000220 0.561630 0.808380 -0.543329
O111  O     O_R   0.352120 0.086630 0.764870 -0.547666
O112  O     O_R   0.086630 0.647880 0.235130 -0.548648
O113  O     O_R   0.913370 0.352120 0.764870 -0.549036
O114  O     O_2   0.567091 0.890612 0.931075 -0.381074
O115  O     O_2   0.444756 0.116795 0.068858 -0.379847
O116  O     O_2   0.124509 0.469079 0.931238 -0.368297
O117  O     O_2   0.878358 0.545659 0.068876 -0.381432
O118  O     O_2   0.433148 0.110252 0.931043 -0.380792
O119  O     O_2   0.555278 0.884204 0.068862 -0.379755
O120  O     O_2   0.875251 0.533159 0.931035 -0.380798
O121  O     O_R   0.999780 0.438370 0.191620 -0.541490
O122  O     O_2   0.118382 0.452906 0.068900 -0.362852
O123  O     O_2   0.982597 0.372456 0.431183 -0.367650
O124  O     O_2   0.030399 0.624853 0.568963 -0.367346
O125  O     O_2   0.618624 0.053681 0.431101 -0.382392
O126  O     O_2   0.377754 0.961891 0.568742 -0.368787
O127  O     O_2   0.017727 0.627495 0.431176 -0.381340
O128  O     O_2   0.969062 0.374956 0.568958 -0.367463
O129  O     O_2   0.385142 0.945450 0.431094 -0.363716
O130  O     O_2   0.622736 0.040997 0.568933 -0.380426
O131  O     O_2   0.362682 0.220677 0.958290 -0.168235
O132  O     O_R   0.438370 0.000220 0.808380 -0.540563
O133  O     O_2   0.438635 0.271256 0.993502 -0.158457
O134  O     O_3   0.505164 0.226570 0.952029 -0.492718
O135  O     O_2   0.622671 0.771007 0.041674 -0.156365
O136  O     O_2   0.703926 0.814780 0.006768 -0.160515
O137  O     O_3   0.695178 0.893507 0.048498 -0.424311
O138  O     O_2   0.750889 0.576100 0.957955 -0.167044
O139  O     O_2   0.776454 0.664138 0.993046 -0.146033
O140  O     O_3   0.856318 0.671957 0.951569 -0.425501
O141  O     O_2   0.243575 0.412758 0.041816 -0.154309
O142  O     O_2   0.275196 0.500070 0.007107 -0.174628
O143  O     O_R   0.561630 0.999780 0.191620 -0.542930
O144  O     O_3   0.215509 0.552307 0.048850 -0.446360
O145  O     O_2   0.637964 0.780535 0.958361 -0.166042
O146  O     O_2   0.562185 0.729813 0.993591 -0.158229
O147  O     O_3   0.495491 0.774196 0.952109 -0.493044
O148  O     O_2   0.378117 0.230278 0.041652 -0.156341
O149  O     O_2   0.296723 0.187022 0.006708 -0.162045
O150  O     O_3   0.304994 0.108110 0.048407 -0.424584
O151  O     O_2   0.249732 0.431038 0.958562 -0.163931
O152  O     O_2   0.226338 0.341957 0.993508 -0.144288
O153  O     O_3   0.147613 0.331789 0.951823 -0.446756
O154  O     O_R   0.999780 0.438370 0.808380 -0.541074
O155  O     O_2   0.756653 0.593673 0.041499 -0.153387
O156  O     O_2   0.721565 0.509447 0.006271 -0.167008
O157  O     O_3   0.777724 0.452648 0.047800 -0.486265
O158  O     O_2   0.041597 0.756439 0.458356 -0.167794
O159  O     O_2   0.131651 0.743296 0.493658 -0.150174
O160  O     O_3   0.151502 0.665640 0.452155 -0.425434
O161  O     O_2   0.939638 0.247340 0.541714 -0.158198
O162  O     O_2   0.027745 0.224225 0.506439 -0.172245
O163  O     O_3   0.076327 0.288048 0.547921 -0.451861
O164  O     O_2   0.263044 0.896629 0.458217 -0.169703
S1    S     S_3+6 0.434507 0.212910 0.972740 0.153837
S2    S     S_3+6 0.005024 0.277985 0.527245 0.154200
S3    S     S_3+6 0.282541 0.966823 0.472292 0.153061
S4    S     S_3+6 0.680776 0.129396 0.527635 0.158719
S5    S     S_3+6 0.908545 0.298268 0.472675 0.163068
S6    S     S_3+6 0.992719 0.721585 0.527325 0.154054
S7    S     S_3+6 0.720192 0.039993 0.472929 0.154623
S8    S     S_3+6 0.317426 0.876335 0.527257 0.161409
S9    S     S_3+6 0.149351 0.460717 0.593727 0.074299
S10   S     S_3+6 0.154278 0.486375 0.406162 0.094973
S11   S     S_3+6 0.460414 0.150628 0.594181 0.090055
S12   S     S_3+6 0.650240 0.838245 0.027488 0.165460
S13   S     S_3+6 0.464792 0.149188 0.406789 0.070961
S14   S     S_3+6 0.850325 0.539236 0.593827 0.073619
S15   S     S_3+6 0.845868 0.513339 0.406163 0.079056
S16   S     S_3+6 0.539755 0.851062 0.593764 0.073495
S17   S     S_3+6 0.538752 0.849983 0.406417 0.076680
S18   S     S_3+6 0.643677 0.058610 0.094133 0.095560
S19   S     S_3+6 0.645706 0.051085 0.906442 0.079673
S20   S     S_3+6 0.025740 0.651028 0.093158 0.072048
S21   S     S_3+6 0.030652 0.652495 0.905907 0.097590
S22   S     S_3+6 0.356267 0.942387 0.094049 0.094630
S23   S     S_3+6 0.810824 0.616521 0.972372 0.164652
S24   S     S_3+6 0.354437 0.949606 0.906526 0.080422
S25   S     S_3+6 0.971320 0.347643 0.093588 0.077661
S26   S     S_3+6 0.969532 0.348795 0.906261 0.080602
S27   S     S_3+6 0.219298 0.481388 0.027710 0.153784
S28   S     S_3+6 0.566123 0.788122 0.972811 0.154338
S29   S     S_3+6 0.350254 0.163218 0.027432 0.165125
S30   S     S_3+6 0.190845 0.388562 0.972780 0.166226
S31   S     S_3+6 0.777929 0.524578 0.027076 0.155209
S32   S     S_3+6 0.089787 0.702691 0.472835 0.164400
Zn1   Zn    Zn3+2 0.088070 0.500110 0.728590 0.926956
Zn2   Zn    Zn3+2 0.411930 0.999890 0.771410 0.926251
Zn3   Zn    Zn3+2 0.999890 0.588070 0.228590 0.925812
Zn4   Zn    Zn3+2 0.000110 0.411930 0.771410 0.926379
Zn5   Zn    Zn3+2 0.411930 0.999890 0.228590 0.922007
Zn6   Zn    Zn3+2 0.588070 0.000110 0.771410 0.925560
Zn7   Zn    Zn3+2 0.000110 0.411930 0.228590 0.926134
Zn8   Zn    Zn3+2 0.999890 0.588070 0.771410 0.922767
Zn9   Zn    Zn3+2 0.911930 0.499890 0.271410 0.926185
Zn10  Zn    Zn3+2 0.499890 0.088070 0.728590 0.921956
Zn11  Zn    Zn3+2 0.500110 0.911930 0.271410 0.926535
Zn12  Zn    Zn3+2 0.911930 0.499890 0.728590 0.926236
Zn13  Zn    Zn3+2 0.088070 0.500110 0.271410 0.923913
Zn14  Zn    Zn3+2 0.500110 0.911930 0.728590 0.926162
Zn15  Zn    Zn3+2 0.499890 0.088070 0.271410 0.926595
Zn16  Zn    Zn3+2 0.588070 0.000110 0.228590 0.921677

loop_
_geom_bond_atom_site_label_1
_geom_bond_atom_site_label_2
_ccdc_geom_bond_type
C206  C215  A    
C75   N6    A    
O2    Zn3   S    
C126  C127  S    
O18   S8    D    
C8    C26   S    
C174  H103  S    
O140  S23   S    
C136  H224  S    
O135  S12   D    
O34   S14   D    
C79   C87   A    
C15   C32   S    
O19   S8    D    
C23   C51   S    
C231  O82   A    
C180  O132  A    
C150  H42   S    
O112  Zn3   S    
C151  H39   S    
C3    C28   S    
C105  H155  S    
C231  O104  A    
C68   S31   S    
C164  H73   S    
C143  C144  S    
C120  H187  S    
C60   C174  S    
H128  O37   S    
O111  Zn2   S    
O143  Zn16  S    
C36   C53   S    
C19   C37   S    
C116  H175  S    
C147  H30   S    
C158  H55   S    
C77   C91   A    
C38   C55   S    
O160  S32   S    
C78   C96   A    
C31   C231  S    
C63   O116  S    
C160  H61   S    
C110  H163  S    
O136  S12   D    
C191  O143  A    
C20   C45   S    
C167  H87   S    
C12   C115  S    
C72   C94   A    
O109  Zn16  S    
C238  O111  A    
C137  C138  S    
C4    C56   S    
C26   C234  S    
C28   C228  S    
C171  H89   S    
C9    C52   S    
C206  H147  S    
C126  H206  S    
C112  O2    A    
C221  N8    S    
H114  O157  S    
C204  H145  S    
C235  O68   A    
O67   S25   D    
C182  S16   S    
C198  H135  S    
C205  C218  A    
C243  O94   A    
O99   Zn15  S    
C230  O81   A    
C40   C58   S    
C235  O78   A    
C70   O123  S    
H137  O63   S    
C239  O112  A    
O96   Zn12  S    
O162  S2    D    
C253  H203  S    
C14   C251  S    
C172  H98   S    
C42   C242  S    
C113  C146  A    
C93   C102  A    
C114  H169  S    
C188  S22   S    
H105  O134  S    
C21   C132  S    
O88   Zn6   S    
C16   C253  S    
H121  O17   S    
C39   C56   S    
C202  O74   A    
C240  O113  A    
C188  C206  A    
C62   O115  S    
C181  C220  A    
C140  H11   S    
O25   S10   D    
C11   C249  S    
C210  C235  S    
C202  C214  S    
O12   S6    D    
C86   C99   A    
C154  C155  S    
C46   C84   A    
O30   S11   S    
C65   O118  S    
C155  H51   S    
C8    C245  S    
C156  H60   S    
C67   O120  S    
C163  H76   S    
C203  H144  S    
C73   C95   A    
C50   C252  S    
C61   O114  S    
C57   S30   S    
C249  H159  S    
C208  C217  A    
C228  O79   A    
C77   O130  S    
C182  C221  A    
O101  Zn1   S    
O24   Zn5   S    
C109  H167  S    
C179  C219  A    
C34   C243  S    
C54   C256  S    
C21   C39   S    
H111  O153  S    
C227  N3    S    
C182  C199  A    
C107  H161  S    
C106  H154  S    
O29   S11   D    
C168  S9    S    
C88   C102  A    
C139  C140  S    
O103  Zn10  S    
C71   C93   A    
C256  H13   S    
H125  O27   S    
C143  H27   S    
C23   C41   S    
C6    C33   S    
H109  O147  S    
C118  H179  S    
C156  C158  S    
C130  C131  S    
O157  S31   S    
C4    H35   S    
C125  H197  S    
O73   S26   S    
C244  O108  A    
H129  O40   S    
C200  H142  S    
C147  H28   S    
C232  O96   A    
C6    H57   S    
C17   C34   S    
C183  C222  A    
C207  C216  A    
O163  S2    S    
C57   C85   A    
C122  H190  S    
O139  S23   D    
H119  O10   S    
O37   S14   S    
O15   S7    D    
C173  H95   S    
C89   C101  A    
C224  O57   A    
O72   S26   D    
C212  C213  S    
C98   C99   A    
C81   C98   A    
O90   Zn13  S    
C144  H25   S    
C159  H65   S    
C125  H196  S    
C62   N2    A    
O69   S25   D    
C142  H19   S    
C61   N1    A    
O144  S27   S    
C74   O127  S    
C250  H170  S    
C130  H217  S    
H132  O50   S    
O161  S2    D    
C32   C232  S    
C76   O129  S    
C80   C97   A    
C101  S3    S    
C15   C60   S    
C105  C106  S    
O74   Zn11  S    
C162  H69   S    
C14   C31   S    
C207  H149  S    
O99   Zn11  S    
C128  C129  S    
C66   N2    A    
C76   N7    A    
C39   C239  S    
C160  H62   S    
C28   C45   S    
C167  C169  S    
C186  S20   S    
O84   Zn7   S    
O54   S20   D    
C148  H37   S    
C127  H201  S    
O59   S21   D    
C5    C58   S    
C29   C47   S    
O35   Zn15  S    
C30   C48   S    
C189  C207  A    
C222  N7    S    
O64   S24   D    
C170  H92   S    
C26   C255  S    
C120  H185  S    
C241  O92   A    
C19   C47   S    
C72   O125  S    
C161  H71   S    
C122  H193  S    
C115  C116  S    
C41   C253  S    
C183  S17   S    
C40   C250  S    
C10   C109  S    
C145  H32   S    
C25   C50   S    
C77   N8    A    
C69   C82   A    
C44   C247  S    
C111  H173  S    
C3    C55   S    
C27   C44   S    
C119  H189  S    
C24   C57   A    
C120  H186  S    
C200  C214  A    
C107  C108  S    
C117  H183  S    
C114  H168  S    
C1    C218  S    
C193  H79   S    
C74   C87   A    
C170  H93   S    
C230  O103  A    
O39   S15   D    
C116  H174  S    
C76   C89   A    
C69   O122  S    
C242  O106  A    
C157  S8    S    
C241  O105  A    
C89   C103  A    
C36   C245  S    
C236  O86   A    
C9    C247  S    
O77   Zn7   S    
C45   C248  S    
C13   S23   S    
O89   Zn10  S    
C17   C254  S    
C115  H178  S    
O1    Zn8   S    
C252  H192  S    
C175  H99   S    
C46   C246  A    
C201  H143  S    
C131  H212  S    
C112  O121  A    
C178  C196  A    
C121  H195  S    
O95   Zn1   S    
C41   C241  S    
C79   S32   S    
O46   Zn14  S    
O134  S1    S    
C134  C136  S    
O32   S13   D    
C38   C238  S    
C196  C214  A    
C137  H10   S    
O31   S13   D    
C135  S6    S    
C185  C225  A    
C187  C205  A    
O110  Zn8   S    
C185  S19   S    
C223  N2    S    
C175  H102  S    
O8    S5    D    
C10   C55   S    
C142  H17   S    
C133  H219  S    
C11   C54   S    
C27   C236  S    
C108  H160  S    
C154  H54   S    
C73   O126  S    
C138  H8    S    
C177  C195  A    
C67   C81   A    
C134  H5    S    
C168  C193  A    
C176  C220  A    
C75   O128  S    
C129  H207  S    
C233  O84   A    
O65   S24   D    
C108  H158  S    
O76   Zn13  S    
O147  S28   S    
C152  H48   S    
C33   C233  S    
O77   Zn3   S    
C111  H172  S    
C123  H199  S    
C62   C84   A    
C119  H188  S    
C7    C32   S    
H127  O33   S    
C197  H124  S    
C190  C226  A    
C169  H84   S    
O45   S17   D    
C6    C59   S    
O55   S20   D    
C93   C135  A    
C242  O93   A    
C8    C53   S    
C144  H22   S    
C130  H216  S    
C9    C107  S    
C66   C80   A    
C139  H16   S    
C150  H43   S    
C113  S4    S    
O107  Zn7   S    
C187  C227  A    
C29   C229  S    
C195  C212  A    
C40   C240  S    
C117  C118  S    
C18   C126  S    
O11   S6    D    
C193  C210  A    
C164  H74   S    
C43   C245  S    
C44   C143  S    
C83   C96   A    
C56   C167  S    
C78   C246  A    
C213  O75   A    
C15   C119  S    
H140  O73   S    
C144  H23   S    
C118  H182  S    
C27   C254  S    
C165  H82   S    
C47   C249  S    
C163  C164  S    
C116  H176  S    
C131  H215  S    
C132  H221  S    
C147  H29   S    
C188  C223  A    
C153  H45   S    
C123  H200  S    
C152  C153  S    
C195  H101  S    
O9    S5    D    
C34   C247  S    
C110  H164  S    
C150  C151  S    
C177  C221  A    
C63   C85   A    
O56   S20   S    
O1    Zn4   S    
H118  O7    S    
C94   C146  A    
C184  C223  A    
C22   C48   S    
O17   S7    S    
C240  O91   A    
C166  H77   S    
C48   C150  S    
C82   C99   A    
C199  H141  S    
O58   S21   D    
C161  C162  S    
C224  O76   A    
O151  S30   D    
O155  S31   D    
C229  O80   A    
H110  O150  S    
C84   C97   A    
O7    S4    S    
C25   C139  S    
C64   O117  S    
C146  S7    S    
C226  N4    S    
C92   C124  A    
O81   Zn6   S    
O38   S15   D    
C123  C125  S    
C15   C252  S    
C13   C81   A    
C19   C128  S    
C64   N4    A    
C190  S25   S    
C12   C250  S    
H126  O30   S    
C199  C212  A    
C87   C100  A    
O104  Zn11  S    
O108  Zn8   S    
C52   C254  S    
C213  O46   A    
C197  C210  A    
C191  C215  S    
C209  H151  S    
C192  C227  A    
O148  S29   D    
C138  H6    S    
O92   Zn15  S    
C151  H41   S    
H134  O56   S    
C140  H12   S    
C179  S14   S    
C184  C201  A    
C67   N3    A    
H138  O66   S    
C245  H1    S    
C191  O24   A    
C246  S1    S    
C106  H153  S    
C255  H2    S    
C101  C157  A    
C194  H90   S    
C149  H36   S    
C95   C157  A    
C8    C105  S    
O6    S4    D    
O43   S16   S    
O137  S12   S    
C163  H75   S    
C136  H223  S    
O21   S9    D    
C31   C49   S    
C171  H88   S    
C64   C86   A    
C145  C147  S    
C71   N6    A    
C248  H148  S    
C107  H162  S    
C189  C225  A    
H107  O140  S    
O146  S28   D    
C109  H166  S    
O85   Zn2   S    
C178  S13   S    
C11   C111  S    
C151  H40   S    
C36   C244  S    
C203  C216  A    
C180  C216  S    
C24   S27   S    
O87   Zn11  S    
O13   Zn6   S    
C61   C83   A    
O71   S26   D    
C35   C83   A    
C184  S18   S    
H117  O4    S    
C73   N8    A    
O50   S18   S    
C118  H180  S    
C16   C121  S    
C95   C104  A    
C72   N7    A    
C131  H213  S    
H108  O144  S    
O94   Zn9   S    
C159  C160  S    
C196  H113  S    
O106  Zn6   S    
O40   S15   S    
C35   S28   S    
C122  H191  S    
O23   S9    S    
C121  C122  S    
O100  Zn15  S    
C173  H94   S    
C88   C90   A    
C94   C103  A    
O5    S4    D    
C237  O109  A    
O44   S17   D    
C128  H211  S    
O57   Zn9   S    
O60   S21   S    
C45   C145  S    
C247  H112  S    
C43   C141  S    
H115  O160  S    
C55   C165  S    
C126  H205  S    
O88   Zn2   S    
C59   C172  S    
C51   C253  S    
C7    C60   S    
O42   S16   D    
C9    C27   S    
O86   Zn16  S    
C71   O124  S    
C10   C28   S    
C1    O110  A    
O145  S28   D    
O27   S10   S    
H136  O60   S    
C65   C78   A    
C49   C152  S    
C12   C30   S    
C7    H68   S    
C90   C124  A    
C70   C92   A    
C105  H156  S    
C183  C200  A    
O36   S14   D    
C25   C42   S    
C225  N1    S    
C119  C120  S    
C42   C252  S    
C187  S21   S    
O132  Zn2   S    
C18   C255  S    
C33   C51   S    
C79   C135  A    
C127  H204  S    
C34   C52   S    
C7    C25   S    
C46   S29   S    
H116  O163  S    
C185  C203  A    
C17   C44   S    
C109  C110  S    
C153  H47   S    
O20   S8    S    
C3    H24   S    
C161  H70   S    
O141  S27   D    
C211  C224  S    
C140  H14   S    
C32   C50   S    
C111  C114  S    
O66   S24   S    
C168  C219  A    
C145  H31   S    
C192  C209  A    
C4    C31   S    
C106  H152  S    
C239  O90   A    
O105  Zn5   S    
C49   C251  S    
C19   C256  S    
C39   C251  S    
C155  H52   S    
C170  C171  S    
C156  H59   S    
C103  C104  A    
C14   C117  S    
C63   N3    A    
C53   C255  S    
O113  Zn4   S    
C176  C194  A    
H130  O43   S    
O41   S16   D    
C18   C36   S    
O93   Zn14  S    
C174  H104  S    
O88   Zn14  S    
C158  H56   S    
O61   S22   D    
O98   Zn14  S    
C162  H67   S    
O26   S10   D    
O99   Zn5   S    
C14   C56   S    
O152  S30   D    
C165  C166  S    
O70   S25   S    
C234  O98   A    
C68   C86   A    
C121  H194  S    
C233  O97   A    
O99   Zn16  S    
O164  S3    D    
O14   S6    S    
C91   C104  A    
O75   Zn10  S    
C141  H21   S    
C238  O89   A    
O138  S23   D    
C65   N1    A    
O53   S19   S    
O1    Zn1   S    
C115  H177  S    
C166  H80   S    
C22   C134  S    
C209  C218  A    
C158  H58   S    
O83   Zn8   S    
C58   C170  S    
C125  H198  S    
C38   C248  S    
O48   S18   D    
O121  Zn7   S    
C21   C49   S    
C219  N6    S    
O51   S19   D    
C69   N4    A    
O142  S27   D    
C29   C256  S    
O1    Zn12  S    
C232  O83   A    
O77   Zn13  S    
C201  C215  A    
H139  O70   S    
C24   C82   A    
C85   C98   A    
C167  H86   S    
C194  C211  A    
C174  C175  S    
C173  H96   S    
C137  H9    S    
C148  H38   S    
C17   C123  S    
C5    C22   S    
C243  O107  A    
C112  C217  S    
O156  S31   D    
C176  S10   S    
O131  S1    D    
C189  S24   S    
C5    H46   S    
C142  H18   S    
H123  O23   S    
C133  H218  S    
C12   C58   S    
C52   C159  S    
C70   N5    A    
O33   S13   S    
O158  S32   D    
O149  S29   D    
C124  S5    S    
H120  O14   S    
C237  O87   A    
C181  C198  A    
C26   C43   S    
O68   Zn1   S    
C2    S12   S    
C127  H202  S    
C51   C156  S    
C149  H33   S    
C229  O102  A    
O80   Zn3   S    
O3    S3    D    
C169  H83   S    
C164  H72   S    
O153  S30   S    
C3    C20   S    
C148  C149  S    
C41   C59   S    
C1    O154  A    
C42   C60   S    
C244  O95   A    
C132  C133  S    
C192  S26   S    
C179  C197  A    
C234  O85   A    
O154  Zn4   S    
O159  S32   D    
C181  S15   S    
C139  H15   S    
O52   S19   D    
C91   C113  A    
O10   S5    S    
C16   C59   S    
C162  H66   S    
O77   Zn9   S    
C16   C33   S    
C20   C38   S    
C37   C237  S    
C186  C226  A    
C155  H50   S    
C228  O101  A    
C172  H97   S    
C22   C40   S    
C96   C97   A    
C100  C102  A    
C117  H184  S    
C186  C204  A    
C251  H181  S    
O63   S22   S    
C198  C211  A    
C165  H81   S    
C90   S2    S    
C220  N5    S    
C132  H222  S    
C37   C54   S    
C153  H44   S    
C190  C208  A    
H133  O53   S    
C54   C163  S    
C110  H165  S    
C10   C248  S    
C177  S11   S    
C152  H49   S    
C172  C173  S    
C92   C100  A    
O16   S7    D    
O28   S11   D    
C47   C148  S    
C143  H26   S    
C166  H78   S    
C128  H210  S    
H131  O47   S    
C205  H146  S    
C23   C137  S    
O4    S3    S    
C171  H91   S    
C175  H100  S    
C20   C130  S    
O97   Zn13  S    
C169  H85   S    
C149  H34   S    
C202  O35   A    
C204  C217  A    
O102  Zn9   S    
C180  O13   A    
C30   C230  S    
C2    C35   A    
O88   Zn10  S    
C236  O100  A    
O150  S29   S    
C141  C142  S    
C208  H150  S    
C4    C21   S    
C53   C161  S    
C136  H3    S    
C50   C154  S    
C74   N5    A    
C37   C249  S    
C6    C23   S    
O47   S17   S    
O82   Zn5   S    
O78   Zn12  S    
C48   C250  S    
C114  H171  S    
O22   S9    D    
O79   Zn4   S    
C133  H220  S    
C2    C80   A    
O91   Zn12  S    
H106  O137  S    
C154  H53   S    
C75   C88   A    
O62   S22   D    
C138  H7    S    
C11   C29   S    
C134  H4    S    
C5    C30   S    
H122  O20   S    
C18   C43   S    
O49   S18   D    
C129  H208  S    
C178  C222  A    
O133  S1    D    
C108  H157  S    
C254  H214  S    
C141  H20   S    
C129  H209  S    
C159  H64   S    
C13   C68   A    
C160  H63   S    
C66   O119  S    
