data_mof_unit_13991.cif
_audit_creation_date              2013-03-05T15:46:18-0500
_audit_creation_method            fapswitch 2.2
_symmetry_space_group_name_H-M    P1
_symmetry_Int_Tables_number       1
_space_group_crystal_system       triclinic
_cell_length_a                    17.632297
_cell_length_b                    24.15513
_cell_length_c                    15.13298
_cell_angle_alpha                 89.95165
_cell_angle_beta                  125.928759
_cell_angle_gamma                 90.088813
_cell_volume                      5219.05254915

loop_
_atom_site_label
_atom_site_type_symbol
_atom_site_description
_atom_site_fract_x
_atom_site_fract_y
_atom_site_fract_z
_atom_type_partial_charge
C1    C     C_R   0.809839 0.624875 0.907189 -0.101234
C2    C     C_R   0.189278 0.374172 0.091176 -0.086677
C3    C     C_R   0.149104 0.653067 0.090383 -0.080827
C4    C     C_R   0.810027 0.375321 0.908126 -0.082393
C5    C     C_R   0.348586 0.152133 0.908634 -0.110663
C6    C     C_R   0.649190 0.846928 0.089996 -0.079633
C7    C     C_R   0.649377 0.153029 0.090876 -0.106860
C8    C     C_R   0.309998 0.874859 0.907659 -0.099149
H1    H     H_    0.752855 0.630910 0.822919 0.138433
H2    H     H_    0.247481 0.368202 0.174357 0.145034
H3    H     H_    0.185185 0.668521 0.171886 0.172633
H4    H     H_    0.751178 0.371662 0.824484 0.143109
H5    H     H_    0.308518 0.166194 0.825605 0.163904
H6    H     H_    0.685288 0.831210 0.171333 0.172054
H7    H     H_    0.689294 0.167579 0.173548 0.166668
H8    H     H_    0.252674 0.868896 0.823403 0.134692
N1    N     N_R   0.892620 0.603790 0.941800 -0.039089
N2    N     N_R   0.107380 0.396210 0.058200 -0.035791
N3    N     N_R   0.107380 0.603790 0.058200 -0.050960
N4    N     N_R   0.892620 0.396210 0.941800 -0.034496
N5    N     N_R   0.392620 0.103790 0.941800 -0.045647
N6    N     N_R   0.607380 0.896210 0.058200 -0.050127
N7    N     N_R   0.607380 0.103790 0.058200 -0.049594
N8    N     N_R   0.392620 0.896210 0.941800 -0.038158
C9    C     C_R   0.903129 0.375062 0.090929 -0.088503
C10   C     C_R   0.053440 0.652946 0.909642 -0.035672
C11   C     C_R   0.095847 0.374416 0.908753 -0.080509
C12   C     C_R   0.900869 0.622479 0.089936 -0.076343
C13   C     C_R   0.402146 0.876641 0.090793 -0.084964
C14   C     C_R   0.551360 0.153386 0.910194 -0.040696
C15   C     C_R   0.553957 0.847407 0.909097 -0.057997
C16   C     C_R   0.444510 0.152378 0.090147 -0.059967
H9    H     H_    0.927928 0.368954 0.173600 0.155040
H10   H     H_    0.000125 0.670135 0.831472 0.170377
H11   H     H_    0.069728 0.366842 0.826418 0.149725
H12   H     H_    0.922984 0.625567 0.172110 0.147041
H13   H     H_    0.426341 0.872390 0.173702 0.146493
H14   H     H_    0.496305 0.170566 0.832546 0.163238
H15   H     H_    0.501450 0.830658 0.830009 0.172562
H16   H     H_    0.495161 0.169191 0.169553 0.163039
N9    N     N_R   0.952210 0.397600 0.057910 -0.036399
N10   N     N_R   0.047790 0.602400 0.942090 -0.052265
N11   N     N_R   0.047790 0.397600 0.942090 -0.037324
N12   N     N_R   0.952210 0.602400 0.057910 -0.038299
N13   N     N_R   0.452210 0.897600 0.057910 -0.036996
N14   N     N_R   0.547790 0.102400 0.942090 -0.052412
N15   N     N_R   0.547790 0.897600 0.942090 -0.054847
N16   N     N_R   0.452210 0.102400 0.057910 -0.046349
C17   C     C_R   0.047437 0.546907 0.301856 0.281873
C18   C     C_R   0.968288 0.454025 0.705669 0.274290
C19   C     C_R   0.976525 0.546486 0.711608 0.338521
C20   C     C_R   0.047612 0.454940 0.303613 0.296345
C21   C     C_R   0.543834 0.045610 0.301215 0.325448
C22   C     C_R   0.497171 0.953566 0.728764 0.317144
C23   C     C_R   0.499995 0.046651 0.731484 0.329478
C24   C     C_R   0.548362 0.953563 0.302720 0.285202
N17   N     N_R   0.026300 0.529110 0.206760 -0.103618
N18   N     N_R   0.973700 0.470890 0.793240 -0.098035
N19   N     N_R   0.973700 0.529110 0.793240 -0.097052
N20   N     N_R   0.026300 0.470890 0.206760 -0.102501
N21   N     N_R   0.526300 0.029110 0.206760 -0.098589
N22   N     N_R   0.473700 0.970890 0.793240 -0.088879
N23   N     N_R   0.473700 0.029110 0.793240 -0.089775
N24   N     N_R   0.526300 0.970890 0.206760 -0.101131
C25   C     C_R   0.745730 0.454791 0.696549 0.255958
C26   C     C_R   0.262078 0.545701 0.294579 0.292607
C27   C     C_R   0.260996 0.454197 0.295967 0.253837
C28   C     C_R   0.747602 0.545651 0.696078 0.237035
C29   C     C_R   0.248450 0.954290 0.695384 0.249733
C30   C     C_R   0.761231 0.046089 0.295510 0.276354
C31   C     C_R   0.762192 0.954543 0.294957 0.280389
C32   C     C_R   0.247611 0.045006 0.695082 0.251093
N25   N     N_R   0.818530 0.472270 0.792960 -0.101746
N26   N     N_R   0.181470 0.527730 0.207040 -0.097499
N27   N     N_R   0.181470 0.472270 0.207040 -0.099688
N28   N     N_R   0.818530 0.527730 0.792960 -0.101333
N29   N     N_R   0.318530 0.972270 0.792960 -0.099937
N30   N     N_R   0.681470 0.027730 0.207040 -0.097259
N31   N     N_R   0.681470 0.972270 0.207040 -0.094789
N32   N     N_R   0.318530 0.027730 0.792960 -0.093642
C33   C     C_R   0.812147 0.636663 0.998253 -0.012723
C34   C     C_R   0.184879 0.360898 0.999351 -0.021651
C35   C     C_R   0.117169 0.684806 0.999491 -0.029283
C36   C     C_R   0.814053 0.361448 0.999465 -0.024229
C37   C     C_R   0.380509 0.183909 0.999524 -0.013122
C38   C     C_R   0.617720 0.815459 0.998793 -0.023109
C39   C     C_R   0.615294 0.185122 0.999939 -0.017263
C40   C     C_R   0.313108 0.862644 0.999296 -0.009697
C41   C     C_R   0.059640 0.501547 0.361711 -0.021368
C42   C     C_R   0.974836 0.500268 0.659319 -0.054538
C43   C     C_R   0.558765 0.999260 0.360874 -0.046855
C44   C     C_R   0.517680 0.000168 0.695053 -0.148458
C45   C     C_R   0.698871 0.500329 0.635027 -0.030374
C46   C     C_R   0.314194 0.499968 0.348786 -0.072323
C47   C     C_R   0.200600 0.999431 0.633116 -0.016478
C48   C     C_R   0.814530 0.000427 0.349158 -0.070513
Ni1   Ni    Ni4+2 0.934150 0.565840 0.869060 0.265156
Ni2   Ni    Ni4+2 0.065850 0.434160 0.130940 0.288095
Ni3   Ni    Ni4+2 0.065850 0.565840 0.130940 0.269146
Ni4   Ni    Ni4+2 0.934150 0.434160 0.869060 0.290120
Ni5   Ni    Ni4+2 0.434150 0.065840 0.869060 0.254622
Ni6   Ni    Ni4+2 0.565850 0.934160 0.130940 0.271811
Ni7   Ni    Ni4+2 0.565850 0.065840 0.130940 0.255159
Ni8   Ni    Ni4+2 0.434150 0.934160 0.869060 0.270169
C49   C     C_3   0.532165 0.458102 0.559902 0.122694
C50   C     C_3   0.480444 0.542797 0.420547 0.135790
C51   C     C_3   0.479823 0.452197 0.436004 0.142946
C52   C     C_3   0.533258 0.548677 0.544445 0.144786
C53   C     C_3   0.034027 0.951496 0.545138 0.133300
C54   C     C_3   0.980894 0.047919 0.436037 0.128351
C55   C     C_3   0.979973 0.957250 0.420962 0.134288
C56   C     C_3   0.034828 0.042196 0.560271 0.129391
C57   C     C_3   0.468918 0.506200 0.544970 0.125839
C58   C     C_3   0.544315 0.494865 0.435512 0.121691
C59   C     C_3   0.971096 0.994536 0.547032 0.125924
C60   C     C_3   0.043860 0.004755 0.434249 0.126989
C61   C     C_3   0.414594 0.500166 0.420840 -0.134191
C62   C     C_3   0.598453 0.500676 0.559980 -0.153007
C63   C     C_3   0.915366 0.000411 0.422367 -0.126529
C64   C     C_3   0.099563 0.999090 0.558870 -0.153203
C65   C     C_R   0.665873 0.308536 0.899154 -0.167410
C66   C     C_R   0.210740 0.768779 0.098032 -0.134415
C67   C     C_R   0.337532 0.312537 0.096964 -0.160168
C68   C     C_R   0.660638 0.686851 0.899123 -0.154641
C69   C     C_R   0.160080 0.813865 0.900901 -0.157814
C70   C     C_R   0.705153 0.270696 0.095813 -0.147039
C71   C     C_R   0.709648 0.730670 0.096386 -0.141580
C72   C     C_R   0.286624 0.267306 0.900077 -0.144913
H17   H     H_    0.651790 0.319785 0.822053 0.133603
H18   H     H_    0.233380 0.752013 0.176122 0.142362
H19   H     H_    0.357870 0.328543 0.174283 0.118769
H20   H     H_    0.640868 0.671308 0.821552 0.117120
H21   H     H_    0.139535 0.830092 0.823403 0.114320
H22   H     H_    0.723268 0.256029 0.173478 0.139435
H23   H     H_    0.731382 0.746924 0.174473 0.142073
H24   H     H_    0.264098 0.250471 0.822100 0.138179
C73   C     C_R   0.111517 0.768579 0.900517 -0.133611
C74   C     C_R   0.755794 0.314729 0.095769 -0.151032
C75   C     C_R   0.757749 0.685329 0.096357 -0.160406
C76   C     C_R   0.237001 0.311660 0.899728 -0.150926
C77   C     C_R   0.614986 0.265093 0.898973 -0.140309
C78   C     C_R   0.259993 0.813485 0.098187 -0.160630
C79   C     C_R   0.386551 0.267734 0.097592 -0.142239
C80   C     C_R   0.612964 0.732445 0.898947 -0.135748
H25   H     H_    0.056184 0.751233 0.822539 0.145522
H26   H     H_    0.811121 0.332366 0.173282 0.135050
H27   H     H_    0.814404 0.668677 0.174234 0.133079
H28   H     H_    0.178242 0.326618 0.821648 0.138019
H29   H     H_    0.563713 0.245578 0.821560 0.153484
H30   H     H_    0.318479 0.828782 0.176174 0.137296
H31   H     H_    0.442423 0.250888 0.175725 0.139628
H32   H     H_    0.558999 0.750482 0.821085 0.145214
C81   C     C_R   0.142459 0.742618 0.999234 0.128360
C82   C     C_R   0.741828 0.330578 0.998055 0.143281
C83   C     C_R   0.739841 0.666940 0.997911 0.133721
C84   C     C_R   0.256336 0.330749 0.998434 0.137829
C85   C     C_R   0.640533 0.242512 0.998061 0.126698
C86   C     C_R   0.240924 0.832580 0.999574 0.132991
C87   C     C_R   0.355127 0.241515 0.999108 0.127604
C88   C     C_R   0.643076 0.757726 0.997905 0.129767
C89   C     C_R   0.922490 0.500884 0.472679 0.148046
C90   C     C_R   0.112783 0.504211 0.549438 0.134292
C91   C     C_R   0.944187 0.502112 0.398595 0.067366
C92   C     C_R   0.091025 0.501656 0.623717 0.089973
C93   C     C_R   0.620595 0.998342 0.638649 0.101491
C94   C     C_R   0.459399 0.997515 0.420012 0.086019
C95   C     C_R   0.630880 0.998721 0.554789 0.148104
C96   C     C_R   0.448862 0.001350 0.503306 0.164005
C97   C     C_R   0.039221 0.502682 0.438612 0.020960
C98   C     C_R   0.996111 0.499926 0.583383 0.034501
C99   C     C_R   0.550375 0.997854 0.447516 0.018764
C100  C     C_R   0.529559 0.000515 0.611078 0.046980
Br1   Br    Br    0.084966 0.620445 0.360188 -0.530054
Br2   Br    Br    0.924333 0.384185 0.630869 -0.508677
Br3   Br    Br    0.968809 0.620083 0.660168 -0.557773
Br4   Br    Br    0.082783 0.382508 0.367804 -0.506375
Br5   Br    Br    0.561008 0.119338 0.355629 -0.544699
Br6   Br    Br    0.473051 0.882682 0.660140 -0.538091
Br7   Br    Br    0.489831 0.119417 0.674953 -0.560068
Br8   Br    Br    0.590070 0.881068 0.364992 -0.513200
Br9   Br    Br    0.737219 0.382999 0.638633 -0.541103
Br10  Br    Br    0.280206 0.616028 0.360603 -0.582135
Br11  Br    Br    0.272611 0.384900 0.364259 -0.538183
Br12  Br    Br    0.751831 0.614664 0.636737 -0.561854
Br13  Br    Br    0.254372 0.885653 0.636625 -0.535462
Br14  Br    Br    0.771334 0.114298 0.365351 -0.585571
Br15  Br    Br    0.781563 0.883688 0.360050 -0.583201
Br16  Br    Br    0.246836 0.114570 0.634728 -0.617573
N33   N     N_2   0.424494 0.514126 0.599769 -0.091323
H33   H     H_    0.362225 0.493075 0.564931 0.215198
C101  C     C_3   0.484801 0.512187 0.717888 -0.946181
H34   H     H_    0.457361 0.540633 0.750305 0.263350
H35   H     H_    0.557473 0.524932 0.751643 0.241955
H36   H     H_    0.486324 0.469704 0.746793 0.253105
N34   N     N_2   0.591632 0.489494 0.383483 -0.096278
H37   H     H_    0.648604 0.463363 0.423949 0.224554
C102  C     C_3   0.533081 0.481883 0.266391 -0.954469
H38   H     H_    0.574872 0.490503 0.234673 0.258105
H39   H     H_    0.472516 0.510458 0.225750 0.254904
H40   H     H_    0.507421 0.438648 0.244988 0.253128
N35   N     N_2   0.926114 0.989238 0.601730 -0.096747
H41   H     H_    0.868287 0.963704 0.561522 0.226231
C103  C     C_3   0.986638 0.979802 0.718301 -0.953428
H42   H     H_    0.949381 0.991817 0.754154 0.262976
H43   H     H_    0.051705 0.004639 0.758190 0.252522
H44   H     H_    0.004860 0.935336 0.736104 0.252403
N36   N     N_2   0.089416 0.009254 0.380187 -0.091135
H45   H     H_    0.146130 0.035472 0.419707 0.213151
C104  C     C_3   0.029460 0.017271 0.263227 -0.949033
H46   H     H_    0.069338 0.007342 0.229593 0.260051
H47   H     H_    0.006151 0.060929 0.243000 0.254878
H48   H     H_    0.967308 0.989859 0.223468 0.253250
N37   N     N_2   0.559903 0.413911 0.638370 -0.105393
H49   H     H_    0.602025 0.427732 0.717866 0.159916
C105  C     C_3   0.484933 0.378201 0.617563 -0.746515
H50   H     H_    0.510242 0.350662 0.688085 0.218416
H51   H     H_    0.459262 0.351678 0.545665 0.293105
H52   H     H_    0.425918 0.402545 0.604251 0.258863
N38   N     N_2   0.448666 0.587463 0.342224 -0.101077
H53   H     H_    0.398645 0.575480 0.262841 0.165883
C106  C     C_3   0.520911 0.622105 0.353745 -0.755423
H54   H     H_    0.487883 0.656903 0.294777 0.239662
H55   H     H_    0.564733 0.598154 0.336865 0.255868
H56   H     H_    0.565838 0.639850 0.436927 0.292588
N39   N     N_2   0.448036 0.401741 0.371963 -0.098913
H57   H     H_    0.405973 0.409297 0.289277 0.154948
C107  C     C_3   0.517907 0.359685 0.403439 -0.735676
H58   H     H_    0.484051 0.322120 0.352996 0.231534
H59   H     H_    0.552431 0.347191 0.489176 0.291825
H60   H     H_    0.571081 0.374561 0.391989 0.253294
N40   N     N_2   0.565918 0.599084 0.608986 -0.099672
H61   H     H_    0.606639 0.591561 0.691564 0.150790
C108  C     C_3   0.497784 0.641974 0.578186 -0.695463
H62   H     H_    0.533157 0.678810 0.630678 0.225344
H63   H     H_    0.443999 0.627426 0.589054 0.267937
H64   H     H_    0.465269 0.655322 0.493156 0.286334
N41   N     N_2   0.067458 0.901320 0.610213 -0.101019
H65   H     H_    0.106887 0.909338 0.692636 0.154930
C109  C     C_3   0.000679 0.857237 0.578337 -0.727565
H66   H     H_    0.036994 0.820711 0.631360 0.231712
H67   H     H_    0.969471 0.843975 0.493594 0.292179
H68   H     H_    0.945306 0.870423 0.587283 0.259424
N42   N     N_2   0.948316 0.098350 0.371818 -0.098347
H69   H     H_    0.904599 0.091067 0.289005 0.175322
C110  C     C_3   0.017854 0.140434 0.401578 -0.724689
H70   H     H_    0.983375 0.177005 0.347757 0.242006
H71   H     H_    0.071733 0.124854 0.391984 0.249930
H72   H     H_    0.051811 0.154162 0.486757 0.286748
N43   N     N_2   0.947408 0.912479 0.342667 -0.101018
H73   H     H_    0.896424 0.924214 0.263451 0.166912
C111  C     C_3   0.018983 0.878036 0.352459 -0.745830
H74   H     H_    0.985445 0.842018 0.296728 0.239284
H75   H     H_    0.067405 0.862129 0.436729 0.291219
H76   H     H_    0.059325 0.901534 0.329832 0.257097
N44   N     N_2   0.067992 0.086722 0.639368 -0.101839
H77   H     H_    0.115845 0.073936 0.718716 0.164899
C112  C     C_3   0.997476 0.122680 0.628175 -0.736456
H78   H     H_    0.032064 0.156004 0.690422 0.236086
H79   H     H_    0.950575 0.099207 0.640920 0.255345
H80   H     H_    0.956146 0.142548 0.546905 0.291496
N45   N     N_2   0.827731 0.499001 0.437525 -0.101072
H81   H     H_    0.787649 0.467806 0.383116 0.201184
C113  C     C_3   0.779961 0.551715 0.411397 -0.810292
H82   H     H_    0.720167 0.553021 0.323611 0.217584
H83   H     H_    0.827171 0.587094 0.428508 0.283315
H84   H     H_    0.752526 0.556692 0.460652 0.297492
N46   N     N_2   0.207213 0.508657 0.584304 -0.106650
H85   H     H_    0.251613 0.478272 0.637520 0.185148
C114  C     C_3   0.247167 0.563863 0.614050 -0.795992
H86   H     H_    0.273881 0.574830 0.565768 0.298898
H87   H     H_    0.306206 0.565362 0.702074 0.211290
H88   H     H_    0.194939 0.595518 0.598669 0.283484
N47   N     N_2   0.871864 0.506326 0.284426 -0.111464
H89   H     H_    0.824568 0.537887 0.262219 0.188150
C115  C     C_3   0.829089 0.454804 0.227712 -0.939908
H90   H     H_    0.873528 0.418641 0.275446 0.273783
H91   H     H_    0.818917 0.455670 0.148098 0.253653
H92   H     H_    0.759448 0.449776 0.211857 0.247574
N48   N     N_2   0.162653 0.503045 0.738424 -0.107116
H93   H     H_    0.214750 0.531768 0.763184 0.196480
C116  C     C_3   0.198828 0.449451 0.788385 -0.917553
H94   H     H_    0.239464 0.453437 0.878380 0.251182
H95   H     H_    0.245461 0.432796 0.768060 0.251949
H96   H     H_    0.140800 0.419826 0.759781 0.262296
N49   N     N_2   0.701390 0.999055 0.749308 -0.110688
H97   H     H_    0.696416 0.025217 0.799514 0.188201
C117  C     C_3   0.736319 0.944874 0.797026 -0.861849
H98   H     H_    0.686055 0.923493 0.807108 0.265971
H99   H     H_    0.804152 0.949381 0.878542 0.242802
H100  H     H_    0.747883 0.919136 0.745165 0.264216
N50   N     N_2   0.380223 0.995604 0.308334 -0.111051
H101  H     H_    0.331954 0.026755 0.283708 0.197166
C118  C     C_3   0.338398 0.941529 0.268315 -0.904372
H102  H     H_    0.297522 0.941022 0.177988 0.245833
H103  H     H_    0.290340 0.932001 0.291007 0.254906
H104  H     H_    0.393003 0.908951 0.301899 0.276401
N51   N     N_2   0.721100 0.002259 0.576993 -0.104432
H105  H     H_    0.766395 0.971056 0.625955 0.191442
C119  C     C_3   0.763466 0.056784 0.607532 -0.745821
H106  H     H_    0.793148 0.065939 0.561864 0.283276
H107  H     H_    0.820465 0.058194 0.696391 0.222347
H108  H     H_    0.711811 0.089638 0.588476 0.285008
N52   N     N_2   0.358441 0.005466 0.480871 -0.100758
H109  H     H_    0.316530 0.970985 0.445545 0.209189
C120  C     C_3   0.310380 0.057796 0.436611 -0.806803
H110  H     H_    0.292853 0.074852 0.490319 0.302976
H111  H     H_    0.244554 0.051609 0.353753 0.217327
H112  H     H_    0.354293 0.088779 0.431266 0.280752

loop_
_geom_bond_atom_site_label_1
_geom_bond_atom_site_label_2
_geom_bond_distance
_ccdc_geom_bond_type
N44   C112  1.443953 S    
C10   C35   1.381928 A    
C54   C60   1.536013 S    
N51   C119  1.448811 S    
N50   H101  1.028955 S    
C17   Br1   1.919868 S    
N52   C120  1.449271 S    
C116  H96   1.106720 S    
C103  H43   1.107374 S    
N20   Ni2   1.879519 S    
C46   C61   1.434410 S    
C90   N46   1.425049 S    
C14   H14   1.075679 S    
C102  H39   1.107190 S    
C13   C40   1.394387 A    
C36   C82   1.464062 S    
C18   C42   1.358795 A    
N7    Ni7   1.878941 S    
C115  H90   1.111573 S    
C27   C46   1.363645 A    
C117  H99   1.110154 S    
N31   Ni6   1.889570 S    
C3    N3    1.331534 A    
C40   C86   1.466544 S    
C4    H4    1.070138 S    
C5    H5    1.073075 S    
N5    N16   1.423335 A    
C74   C82   1.402056 A    
C79   H31   1.080548 S    
N6    N15   1.423335 A    
C26   Br10  1.900675 S    
C8    H8    1.074961 S    
N7    N14   1.423328 A    
C110  H70   1.110262 S    
C20   C41   1.366557 A    
C78   C86   1.401150 A    
C89   C91   1.381090 A    
C90   C92   1.385780 A    
C67   C84   1.400754 A    
N37   C105  1.448806 S    
C65   C82   1.401402 A    
C101  H34   1.107721 S    
C113  H82   1.110731 S    
N18   Ni4   1.877582 S    
N10   Ni1   1.847590 S    
C9    N9    1.341852 A    
C56   C64   1.555505 S    
N3    Ni3   1.878941 S    
C69   C86   1.402565 A    
C56   N44   1.452670 S    
C95   C99   1.395125 A    
C11   H11   1.060537 S    
C12   N12   1.343972 A    
N27   Ni2   1.889570 S    
C22   Br6   1.916629 S    
C13   N13   1.340464 A    
C52   C57   1.531917 S    
C105  H50   1.105167 S    
C22   C44   1.368360 A    
C23   C44   1.365919 A    
C107  H58   1.107764 S    
C4    C36   1.382757 A    
C73   C81   1.401985 A    
C76   C84   1.401088 A    
C77   C85   1.398436 A    
C114  H87   1.109958 S    
C3    C35   1.373823 A    
C49   C62   1.555102 S    
C29   Br13  1.913709 S    
C113  H83   1.111526 S    
C28   Br12  1.914824 S    
N15   Ni8   1.849667 S    
C31   Br15  1.902748 S    
C29   C47   1.362659 A    
C21   Br5   1.910374 S    
C118  H104  1.109935 S    
C43   C99   1.403462 S    
C101  H36   1.109347 S    
C41   C97   1.405868 S    
N49   C117  1.446561 S    
C90   C97   1.394122 A    
C44   C100  1.404010 S    
C59   N35   1.449313 S    
N12   Ni3   1.849668 S    
N48   C116  1.445454 S    
C3    H3    1.069821 S    
N13   Ni6   1.847592 S    
N34   H37   1.030493 S    
C4    N4    1.327534 A    
C89   N45   1.425972 S    
C5    N5    1.327723 A    
C70   H22   1.080719 S    
C110  H72   1.106509 S    
C112  H79   1.108190 S    
C14   C39   1.380316 A    
C53   C64   1.553893 S    
C92   C98   1.405749 A    
C31   N31   1.325852 A    
N24   Ni6   1.879519 S    
C49   C51   1.535201 S    
N43   H73   1.030081 S    
C106  H54   1.110113 S    
C49   C57   1.533752 S    
N50   C118  1.446023 S    
C53   C55   1.535261 S    
C19   C42   1.359086 A    
N45   H81   1.030373 S    
C80   C88   1.401723 A    
C26   N26   1.323962 A    
C17   N17   1.328840 A    
C68   H20   1.077309 S    
C55   C63   1.554748 S    
C112  H78   1.110304 S    
C93   N49   1.426313 S    
N33   C101  1.448245 S    
C20   N20   1.338271 A    
C21   N21   1.334002 A    
C120  H111  1.110665 S    
C23   N23   1.332335 A    
C21   C43   1.363130 A    
C24   N24   1.331096 A    
C108  H62   1.108928 S    
N3    N10   1.423328 A    
C5    C37   1.374637 A    
C25   C45   1.362983 A    
C93   C95   1.383305 A    
N41   H65   1.029048 S    
C94   C96   1.380930 A    
N35   C103  1.446906 S    
N39   H57   1.029583 S    
N22   Ni8   1.877582 S    
N39   C107  1.446032 S    
N14   Ni5   1.847590 S    
C39   C85   1.460634 S    
C115  H92   1.110823 S    
C105  H52   1.106734 S    
C111  H76   1.108890 S    
N16   Ni7   1.849668 S    
C60   C64   1.538253 S    
C8    C40   1.386794 A    
C30   C48   1.365712 A    
C118  H102  1.109903 S    
C6    H6    1.069990 S    
C108  H63   1.109895 S    
C75   C83   1.401815 A    
C104  H46   1.109830 S    
C109  H67   1.105439 S    
C27   Br11  1.913543 S    
C57   C61   1.534854 S    
C94   N50   1.427711 S    
C107  H59   1.103661 S    
C59   C63   1.539236 S    
C66   C81   1.403902 A    
C27   N27   1.324454 A    
C10   N10   1.340816 A    
C24   Br8   1.919183 S    
C70   C85   1.404022 A    
C23   Br7   1.916217 S    
C14   N14   1.337201 A    
C11   C34   1.387711 A    
C54   C63   1.552573 S    
N46   H85   1.030041 S    
C35   C81   1.465976 S    
C28   N28   1.322786 A    
C1    N1    1.329994 A    
C6    C38   1.375611 A    
C112  H80   1.105544 S    
C72   C76   1.382361 A    
C32   N32   1.326145 A    
C50   C52   1.534209 S    
C74   H26   1.079697 S    
C7    N7    1.332663 A    
C51   N39   1.449541 S    
C7    H7    1.072708 S    
C8    N8    1.330434 A    
C50   N38   1.450225 S    
C102  H38   1.109583 S    
C119  H108  1.111810 S    
C54   C56   1.536162 S    
C30   Br14  1.909047 S    
C95   N51   1.422375 S    
C68   C83   1.402599 A    
N36   C104  1.446372 S    
N1    Ni1   1.880954 S    
C71   C88   1.404918 A    
C72   C87   1.403351 A    
C9    H9    1.065835 S    
N34   C102  1.446567 S    
N25   Ni4   1.891702 S    
C48   C63   1.441148 S    
C109  H66   1.108994 S    
C111  H74   1.110075 S    
N37   H49   1.030376 S    
C73   H25   1.080917 S    
N21   Ni7   1.877583 S    
C71   H23   1.079935 S    
C106  H56   1.106989 S    
C72   H24   1.079739 S    
C30   N30   1.325284 A    
C1    C33   1.384419 A    
N42   H69   1.030512 S    
C6    N6    1.333235 A    
C104  H48   1.107261 S    
N35   H41   1.029993 S    
C29   N29   1.324404 A    
C54   N42   1.450298 S    
C24   C43   1.355766 A    
C7    C39   1.372953 A    
N48   H93   1.029616 S    
C92   N48   1.427083 S    
C55   C60   1.535157 S    
C20   Br4   1.919084 S    
C12   C33   1.394024 A    
C15   N15   1.340223 A    
C114  H86   1.108661 S    
C16   N16   1.339046 A    
C103  H44   1.108361 S    
C58   N34   1.450585 S    
N36   H45   1.027411 S    
C18   N18   1.335518 A    
C65   C77   1.378570 A    
C1    H1    1.074009 S    
N11   Ni4   1.849667 S    
N38   H53   1.030143 S    
N17   N20   1.406309 A    
C31   C48   1.364859 A    
C22   N22   1.331727 A    
C69   C73   1.386046 A    
N28   Ni1   1.889571 S    
C102  H40   1.107882 S    
C119  H106  1.106469 S    
C101  H35   1.108399 S    
C51   C58   1.536786 S    
N49   H97   1.031256 S    
C117  H98   1.110225 S    
N4    Ni4   1.878941 S    
C117  H100  1.110418 S    
N40   C108  1.442133 S    
C19   Br3   1.912838 S    
C96   N52   1.425571 S    
C110  H71   1.108285 S    
C50   C61   1.552703 S    
N25   N28   1.339646 A    
C2    C34   1.383464 A    
C116  H95   1.109322 S    
C91   N47   1.426898 S    
N29   N32   1.339646 A    
C67   H19   1.074747 S    
C65   H17   1.075388 S    
C33   C83   1.468147 S    
C79   C87   1.400246 A    
N26   Ni3   1.891701 S    
C47   C64   1.444715 S    
C57   N33   1.449471 S    
C78   H30   1.078933 S    
N18   N19   1.406309 A    
N1    N12   1.423335 A    
N2    N11   1.423335 A    
N21   N24   1.406309 A    
N46   C114  1.450215 S    
C16   C37   1.385282 A    
N33   H33   1.030244 S    
C91   C97   1.408498 A    
C11   N11   1.337819 A    
C96   C100  1.400548 A    
C12   H12   1.065373 S    
C106  H55   1.109184 S    
C120  H110  1.105233 S    
C114  H88   1.112309 S    
C13   H13   1.067005 S    
N29   Ni8   1.891702 S    
C37   C87   1.461231 S    
C38   C88   1.467590 S    
C51   C61   1.553060 S    
C80   H32   1.080853 S    
N17   Ni3   1.877583 S    
C113  H84   1.107930 S    
C103  H42   1.108730 S    
C2    N2    1.331884 A    
N51   H105  1.030244 S    
N23   Ni5   1.879518 S    
C76   H28   1.078843 S    
N4    N9    1.423328 A    
C77   H29   1.081026 S    
C25   Br9   1.909262 S    
C75   H27   1.080478 S    
N22   N23   1.406309 A    
C50   C58   1.537666 S    
N8    N13   1.423328 A    
C115  H91   1.109284 S    
C105  H51   1.105190 S    
C111  H75   1.106930 S    
C25   N25   1.325195 A    
C32   Br16  1.908063 S    
N47   C115  1.446910 S    
C32   C47   1.365670 A    
C10   H10   1.072752 S    
N52   H109  1.029951 S    
N42   C110  1.445142 S    
C9    C36   1.392378 A    
C26   C46   1.361864 A    
N5    Ni5   1.880954 S    
C93   C100  1.402735 A    
C94   C99   1.401053 A    
C15   C38   1.382757 A    
C71   C75   1.386413 A    
C108  H64   1.105671 S    
N43   C111  1.445849 S    
C49   N37   1.451412 S    
N26   N27   1.339646 A    
C52   C62   1.551643 S    
N45   C113  1.448721 S    
N30   N31   1.339646 A    
C116  H94   1.110064 S    
N8    Ni8   1.878941 S    
N38   C106  1.445543 S    
C120  H112  1.112536 S    
C42   C98   1.402578 S    
N47   H89   1.030642 S    
C119  H107  1.110586 S    
C58   C62   1.539070 S    
C89   C98   1.392869 A    
N41   C109  1.443401 S    
N19   Ni1   1.879518 S    
C19   N19   1.332658 A    
C45   C62   1.437040 S    
C66   C78   1.383877 A    
N44   H77   1.029734 S    
C2    H2    1.068941 S    
C69   H21   1.077661 S    
C70   C74   1.387932 A    
N30   Ni7   1.891701 S    
C17   C41   1.355580 A    
C53   N41   1.450917 S    
C55   N43   1.450831 S    
C28   C45   1.362922 A    
N6    Ni6   1.880954 S    
N32   Ni5   1.889571 S    
C18   Br2   1.922907 S    
C34   C84   1.463359 S    
C118  H103  1.108906 S    
C104  H47   1.108113 S    
C15   H15   1.073556 S    
C109  H68   1.108702 S    
C16   H16   1.070871 S    
C60   N36   1.448141 S    
C53   C59   1.534227 S    
C107  H60   1.108009 S    
C67   C79   1.382587 A    
N40   H61   1.028203 S    
N9    Ni2   1.847592 S    
C68   C80   1.385561 A    
N2    Ni2   1.880954 S    
C66   H18   1.079786 S    
C56   C59   1.536373 S    
C52   N40   1.451851 S    
