data_mof_unit_67574.cif
_audit_creation_date              2013-03-05T15:41:32-0500
_audit_creation_method            fapswitch 2.2
_symmetry_space_group_name_H-M    P1
_symmetry_Int_Tables_number       1
_space_group_crystal_system       triclinic
_cell_length_a                    15.923197
_cell_length_b                    8.765452
_cell_length_c                    7.601374
_cell_angle_alpha                 103.487807
_cell_angle_beta                  96.241134
_cell_angle_gamma                 95.849431
_cell_volume                      1016.65026376

loop_
_atom_site_label
_atom_site_type_symbol
_atom_site_description
_atom_site_fract_x
_atom_site_fract_y
_atom_site_fract_z
_atom_type_partial_charge
O1    O     O_R   0.506070 0.286130 0.619780 -0.556527
O2    O     O_R   0.493930 0.713870 0.380220 -0.491619
O3    O     O_R   0.490300 0.256770 0.308360 -0.623085
O4    O     O_R   0.509700 0.743230 0.691640 -0.599327
C1    C     C_R   0.491034 0.198649 0.453248 0.708376
C2    C     C_R   0.503664 0.799791 0.547588 0.799993
O5    O     O_R   0.386960 0.514660 0.655680 -0.558462
O6    O     O_R   0.613040 0.485340 0.344320 -0.562002
O7    O     O_R   0.371190 0.485310 0.344260 -0.550717
O8    O     O_R   0.628810 0.514690 0.655740 -0.627425
C3    C     C_R   0.340247 0.498857 0.498387 0.791214
C4    C     C_R   0.660119 0.505787 0.502118 0.782430
Cu1   Cu    Cu3+1 0.509330 0.517380 0.684380 0.987884
Cu2   Cu    Cu3+1 0.490670 0.482620 0.315620 1.032750
C5    C     C_2   0.476704 0.026889 0.435102 0.148628
C6    C     C_2   0.510544 0.969075 0.573304 0.161370
C7    C     C_3   0.970486 0.421022 0.575945 0.288658
C8    C     C_3   0.034652 0.647637 0.425553 0.291733
C9    C     C_3   0.012269 0.391451 0.399436 0.325438
C10   C     C_3   0.992187 0.676352 0.601671 0.360467
C11   C     C_1   0.251160 0.504097 0.494635 -0.199771
C12   C     C_1   0.750577 0.522110 0.507498 -0.223792
C13   C     C_3   0.043483 0.554632 0.667888 0.288153
C14   C     C_3   0.961082 0.514126 0.333383 0.268769
C15   C     C_3   0.085861 0.525127 0.491532 -0.254566
C16   C     C_3   0.918714 0.542161 0.509871 -0.226119
N1    N     N_2   0.476600 0.456420 0.038510 0.135359
N2    N     N_2   0.523400 0.543580 0.961490 0.105274
C17   C     C_1   0.176288 0.511779 0.490734 -0.005606
C18   C     C_1   0.826677 0.535389 0.511010 0.026221
O9    O     O_3   0.027368 0.240828 0.302255 -0.591333
C19   C     C_3   0.961001 0.174204 0.157839 -0.307795
H1    H     H_    0.972980 0.218427 0.036333 0.242232
H2    H     H_    0.896772 0.197272 0.193049 0.155375
H3    H     H_    0.959853 0.044028 0.122228 0.179271
O10   O     O_3   0.977829 0.827595 0.697858 -0.583938
C20   C     C_3   0.048957 0.901120 0.827994 -0.268987
H4    H     H_    0.110976 0.876016 0.782162 0.159996
H5    H     H_    0.043806 0.864650 0.957126 0.217965
H6    H     H_    0.049466 0.031017 0.855758 0.173449
O11   O     O_3   0.941779 0.313332 0.675574 -0.553368
C21   C     C_3   0.888468 0.182352 0.559868 0.112258
H7    H     H_    0.927396 0.098774 0.483036 0.209162
H8    H     H_    0.840926 0.218269 0.464083 0.127173
C22   C     C_3   0.839396 0.096683 0.676178 -0.811719
H9    H     H_    0.805176 0.181874 0.763210 0.243839
H10   H     H_    0.793117 0.998114 0.587867 0.194836
H11   H     H_    0.883450 0.048359 0.765633 0.281594
O12   O     O_3   0.059278 0.769298 0.339926 -0.554602
C23   C     C_3   0.146455 0.829482 0.391976 0.108412
H12   H     H_    0.184511 0.761754 0.294993 0.172773
H13   H     H_    0.171340 0.824705 0.532464 0.122807
C24   C     C_3   0.160150 0.001880 0.384129 -0.736095
H14   H     H_    0.123754 0.073091 0.482401 0.268694
H15   H     H_    0.228914 0.048784 0.421209 0.191257
H16   H     H_    0.138844 0.012779 0.244142 0.259586
O13   O     O_3   0.920726 0.489786 0.153000 -0.556804
C25   C     C_3   0.869432 0.609601 0.140153 0.086678
H17   H     H_    0.898247 0.728786 0.225228 0.182638
H18   H     H_    0.806149 0.578014 0.179292 0.147566
C26   C     C_3   0.856382 0.618432 0.943567 -0.701454
H19   H     H_    0.821688 0.504212 0.858669 0.256798
H20   H     H_    0.819713 0.716164 0.926818 0.176840
H21   H     H_    0.919385 0.640299 0.899647 0.305250
O14   O     O_3   0.084742 0.578232 0.847681 -0.566315
C27   C     C_3   0.133260 0.453824 0.858843 0.096703
H22   H     H_    0.198630 0.486071 0.829887 0.169783
H23   H     H_    0.105263 0.338257 0.763672 0.165629
C28   C     C_3   0.140238 0.431393 0.050682 -0.701518
H24   H     H_    0.083077 0.465506 0.111049 0.311982
H25   H     H_    0.144128 0.305784 0.050420 0.208474
H26   H     H_    0.197887 0.505992 0.133554 0.227712
O15   O     O_3   0.413609 0.924858 0.306596 -0.599747
C29   C     C_3   0.406107 0.957889 0.134832 0.076789
H27   H     H_    0.469670 0.978002 0.089388 0.189866
H28   H     H_    0.370814 0.060473 0.142640 0.160994
C30   C     C_3   0.353345 0.817866 0.996661 -0.680027
H29   H     H_    0.286938 0.803588 0.028453 0.220115
H30   H     H_    0.352446 0.836129 0.856811 0.187440
H31   H     H_    0.381618 0.708575 0.001146 0.311627
O16   O     O_3   0.539930 0.064197 0.746663 -0.603143
C31   C     C_3   0.629574 0.083932 0.775836 0.059840
H32   H     H_    0.655682 0.144504 0.676158 0.142036
H33   H     H_    0.654383 0.968339 0.763230 0.120267
C32   C     C_3   0.659415 0.186608 0.968290 -0.731874
H34   H     H_    0.625453 0.139341 0.068250 0.243988
H35   H     H_    0.728855 0.188281 0.005807 0.186780
H36   H     H_    0.645747 0.309545 0.976370 0.247221
O17   O     O_3   0.396269 0.415221 0.951118 -0.482376
C33   C     C_3   0.380957 0.249298 0.886762 0.236089
H37   H     H_    0.427391 0.187263 0.953472 0.150395
H38   H     H_    0.383673 0.216506 0.738577 0.164145
C34   C     C_3   0.290447 0.190718 0.907833 -0.965408
H39   H     H_    0.245024 0.237024 0.819271 0.243040
H40   H     H_    0.278294 0.059871 0.862445 0.209144
H41   H     H_    0.279918 0.229476 0.052515 0.268401
O18   O     O_3   0.565869 0.672372 0.083825 -0.465710
C35   C     C_3   0.644291 0.713211 0.028782 0.205449
H42   H     H_    0.635398 0.762786 0.908292 0.170480
H43   H     H_    0.679447 0.608995 0.999259 0.130364
C36   C     C_3   0.696676 0.840608 0.184588 -0.936084
H44   H     H_    0.713880 0.790249 0.302762 0.241257
H45   H     H_    0.755813 0.888616 0.140409 0.203879
H46   H     H_    0.659188 0.939389 0.229052 0.248263

loop_
_geom_bond_atom_site_label_1
_geom_bond_atom_site_label_2
_geom_bond_distance
_ccdc_geom_bond_type
N2    O18   1.347018 S    
C27   H23   1.115453 S    
C34   H39   1.105673 S    
C28   H26   1.107619 S    
O11   C21   1.407223 S    
C9    O9    1.412446 S    
O18   C35   1.398166 S    
O13   C25   1.408896 S    
C30   H29   1.111254 S    
O5    C3    1.307821 A    
C7    C13   1.541158 S    
C29   H28   1.101478 S    
O1    C1    1.300629 A    
C7    C16   1.548063 S    
O10   C20   1.409571 S    
C14   C16   1.546631 S    
C20   H6    1.107557 S    
C32   H34   1.109946 S    
C22   H11   1.106824 S    
C27   C28   1.510115 S    
C25   H18   1.107843 S    
C5    C6    1.353389 D    
C35   H42   1.103512 S    
C4    C12   1.428038 S    
C28   H25   1.108597 S    
O15   C29   1.397241 S    
C22   H10   1.110083 S    
O4    Cu1   1.966924 S    
C26   H20   1.108013 S    
C14   O13   1.408022 S    
C29   C30   1.520524 S    
C23   H13   1.109694 S    
Cu1   N2    2.049677 S    
Cu2   N1    2.049676 S    
C26   H19   1.110132 S    
C24   H16   1.109978 S    
C25   C26   1.507284 S    
C30   H30   1.110159 S    
C27   H22   1.109361 S    
C36   H45   1.109280 S    
Cu1   Cu2   2.727719 S    
O2    C2    1.302370 A    
C8    C15   1.552541 S    
C21   H8    1.112645 S    
O2    Cu2   1.965018 S    
O16   C31   1.406979 S    
C24   H15   1.111057 S    
C15   C17   1.457020 S    
C23   C24   1.520657 S    
C29   H27   1.114840 S    
C32   H35   1.109207 S    
C36   H44   1.110368 S    
O4    C2    1.301589 A    
C25   H17   1.114798 S    
C24   H14   1.110782 S    
C11   C17   1.198494 T    
C3    C11   1.421373 S    
C21   C22   1.515387 S    
C19   H2    1.111258 S    
C26   H21   1.103670 S    
O7    Cu2   1.940172 S    
C19   H3    1.107336 S    
C20   H4    1.108304 S    
C33   H38   1.102446 S    
O9    C19   1.409190 S    
C10   C13   1.548415 S    
O6    C4    1.307547 A    
C23   H12   1.108786 S    
O7    C3    1.304602 A    
O3    Cu2   1.966924 S    
O8    C4    1.307759 A    
C5    O15   1.399775 S    
C16   C18   1.461729 S    
C34   H41   1.109256 S    
C31   H33   1.111928 S    
O12   C23   1.412704 S    
C8    C14   1.546744 S    
O1    Cu1   1.965018 S    
C21   H7    1.110728 S    
C35   C36   1.524419 S    
C32   H36   1.110034 S    
C33   C34   1.517924 S    
C30   H31   1.105158 S    
O6    Cu2   1.934059 S    
C12   C18   1.202238 T    
O3    C1    1.316361 A    
O8    Cu1   1.940172 S    
C36   H46   1.110395 S    
C31   C32   1.524271 S    
C35   H43   1.110919 S    
C19   H1    1.109040 S    
C13   O14   1.409754 S    
C9    C14   1.553774 S    
C20   H5    1.109489 S    
C33   H37   1.108402 S    
C10   C16   1.548650 S    
C6    O16   1.387273 S    
C7    C9    1.541765 S    
N1    O17   1.347980 S    
C8    C10   1.545028 S    
C13   C15   1.545905 S    
C28   H24   1.100320 S    
C9    C15   1.547680 S    
C7    O11   1.412207 S    
C1    C5    1.471067 S    
C2    C6    1.441848 S    
C10   O10   1.410794 S    
C22   H9    1.105932 S    
O5    Cu1   1.934059 S    
C34   H40   1.107971 S    
O14   C27   1.412037 S    
N1    N2    1.291994 D    
C31   H32   1.113545 S    
O17   C33   1.408507 S    
C8    O12   1.417281 S    
