data_mof_unit_34781.cif
_audit_creation_date              2012-12-10T16:55:05-0500
_audit_creation_method            fapswitch 2.2
_symmetry_space_group_name_H-M    P1
_symmetry_Int_Tables_number       1
_space_group_crystal_system       triclinic
_cell_length_a                    9.693134
_cell_length_b                    10.937163
_cell_length_c                    15.52476
_cell_angle_alpha                 89.854935
_cell_angle_beta                  73.879273
_cell_angle_gamma                 89.967713
_cell_volume                      1581.14097572

loop_
_atom_site_label
_atom_site_type_symbol
_atom_type_description
_atom_site_fract_x
_atom_site_fract_y
_atom_site_fract_z
_atom_type_partial_charge
C1    C     C_R   0.000512 0.265362 0.499036 0.856209
C2    C     C_R   0.670188 0.530308 0.905892 0.022553
C3    C     C_R   0.767394 0.572260 0.952942 0.056950
C4    C     C_R   0.520874 0.520789 0.950816 0.067007
C5    C     C_R   0.472728 0.540199 0.044957 -0.002773
C6    C     C_R   0.572613 0.582508 0.089446 -0.312808
C7    C     C_R   0.716631 0.601759 0.044031 0.453286
C8    C     C_R   0.417740 0.494974 0.904279 -0.198766
C9    C     C_R   0.273713 0.479756 0.949130 -0.248517
C10   C     C_R   0.226742 0.488882 0.042006 0.148413
C11   C     C_R   0.325547 0.518416 0.091165 0.119437
C12   C     C_R   0.916941 0.501965 0.672102 0.797092
C13   C     C_R   0.081521 0.467971 0.086345 -0.157368
C14   C     C_R   0.032731 0.474503 0.179419 -0.142269
C15   C     C_R   0.274060 0.521186 0.185201 -0.253770
C16   C     C_2   0.887404 0.933120 0.498558 -0.153569
C17   C     C_2   0.999785 0.866586 0.505783 -0.315214
C18   C     C_2   0.885716 0.067046 0.502559 -0.162975
C19   C     C_2   0.004768 0.133412 0.494726 -0.310075
C20   C     C_2   0.397331 0.430495 0.553524 0.573502
C21   C     C_2   0.557554 0.421531 0.544985 -0.189687
C22   C     C_R   0.999573 0.734643 0.501124 0.847847
C23   C     C_R   0.083139 0.499944 0.327831 0.796663
C24   C     C_R   0.870761 0.516415 0.769908 -0.042423
C25   C     C_R   0.129328 0.499540 0.229345 -0.077957
C26   C     C_R   0.914068 0.585845 0.907680 -0.193681
C27   C     C_R   0.965029 0.559148 0.816741 -0.223830
C28   C     C_R   0.726163 0.498197 0.815196 -0.212355
Cu1   Cu    Cu3+1 0.138640 0.500020 0.499980 0.979625
Cu2   Cu    Cu3+1 0.861360 0.499980 0.500020 0.941271
H1    H     H_    0.005905 0.444903 0.049011 0.156085
H2    H     H_    0.791501 0.888559 0.490706 0.166284
H3    H     H_    0.094742 0.907427 0.517217 0.149527
H4    H     H_    0.782762 0.111772 0.510782 0.166593
H5    H     H_    0.109928 0.092451 0.483029 0.153085
H6    H     H_    0.417001 0.546628 0.450714 0.140900
H7    H     H_    0.593957 0.347152 0.579474 0.170851
H8    H     H_    0.617583 0.573989 0.473528 0.185349
H9    H     H_    0.345300 0.536502 0.226202 0.155664
H10   H     H_    0.920443 0.457008 0.212291 0.172054
H11   H     H_    0.198816 0.459137 0.910710 0.136306
H12   H     H_    0.989488 0.619898 0.941900 0.179713
H13   H     H_    0.077160 0.575070 0.782716 0.152617
H14   H     H_    0.659626 0.457890 0.777743 0.141072
H15   H     H_    0.542377 0.605719 0.159519 0.159374
H16   H     H_    0.444102 0.489321 0.832426 0.129704
N1    N     N_2   0.346430 0.498660 0.500980 -0.314173
N2    N     N_2   0.652550 0.498630 0.501000 -0.302132
O1    O     O_R   0.117050 0.321960 0.499980 -0.532527
O2    O     O_R   0.882890 0.321920 0.500020 -0.581251
O3    O     O_R   0.052910 0.500040 0.629810 -0.540790
O4    O     O_R   0.818750 0.499990 0.629840 -0.582775
O5    O     O_R   0.117110 0.678080 0.499980 -0.586549
O6    O     O_R   0.882950 0.678040 0.500020 -0.576235
O7    O     O_R   0.181250 0.500010 0.370160 -0.588948
O8    O     O_R   0.947090 0.499960 0.370190 -0.573678
O9    O     O_3   0.810079 0.641050 0.091249 -0.593874
C29   C     C_3   0.799519 0.769236 0.099647 -0.335324
H17   H     H_    0.691056 0.797559 0.140907 0.163685
H18   H     H_    0.825918 0.814769 0.032801 0.162072
H19   H     H_    0.878600 0.801111 0.134378 0.196991
O10   O     O_3   0.302084 0.354894 0.613470 -0.533716
C30   C     C_3   0.313444 0.374234 0.701015 -0.339264
H20   H     H_    0.316083 0.473313 0.716997 0.141115
H21   H     H_    0.408797 0.326529 0.711321 0.146771
H22   H     H_    0.217159 0.334715 0.749333 0.193606

loop_
_geom_bond_atom_site_label_1
_geom_bond_atom_site_label_2
_ccdc_geom_bond_type
C8    C9    A    
C2    C4    A    
C30   H21   S    
C23   O7    A    
Cu1   Cu2   S    
C6    H15   S    
C29   H18   S    
C16   H2    S    
C18   H4    S    
C9    C10   A    
C12   C24   S    
C9    H11   S    
C17   C22   S    
C24   C27   A    
C4    C8    A    
C21   N2    D    
Cu2   O8    S    
C29   H19   S    
C2    C3    A    
C26   C27   A    
C30   H22   S    
C23   O8    A    
C22   O6    A    
Cu1   O1    S    
C13   C14   A    
Cu2   O6    S    
C15   H9    S    
O9    C29   S    
C6    C7    A    
C17   H3    S    
Cu1   N1    S    
C1    O1    A    
Cu2   N2    S    
C12   O4    A    
C13   H1    S    
C5    C11   A    
C22   O5    A    
C11   C15   A    
C23   C25   S    
C14   C25   A    
C20   O10   S    
C5    C6    A    
Cu2   O2    S    
C8    H16   S    
C15   C25   A    
C20   N1    D    
C1    C19   S    
C10   C11   A    
Cu1   O3    S    
C14   H10   S    
C30   H20   S    
C27   H13   S    
C12   O3    A    
C21   H7    S    
C20   C21   S    
C26   H12   S    
H6    N1    S    
C16   C18   S    
C18   C19   D    
C1    O2    A    
Cu2   O4    S    
C2    C28   A    
C16   C17   D    
C19   H5    S    
Cu1   O7    S    
C3    C7    A    
C29   H17   S    
H8    N2    S    
C7    O9    S    
C3    C26   A    
O10   C30   S    
C24   C28   A    
C4    C5    A    
Cu1   O5    S    
C10   C13   A    
C28   H14   S    
