data_mof_unit_50496.cif
_audit_creation_date              2012-12-10T17:03:58-0500
_audit_creation_method            fapswitch 2.2
_symmetry_space_group_name_H-M    P1
_symmetry_Int_Tables_number       1
_space_group_crystal_system       triclinic
_cell_length_a                    9.799606
_cell_length_b                    11.042182
_cell_length_c                    15.812557
_cell_angle_alpha                 94.42772
_cell_angle_beta                  79.473387
_cell_angle_gamma                 111.33524
_cell_volume                      1566.86739529

loop_
_atom_site_label
_atom_site_type_symbol
_atom_type_description
_atom_site_fract_x
_atom_site_fract_y
_atom_site_fract_z
_atom_type_partial_charge
C1    C     C_R   0.556094 0.745452 0.506325 0.869081
C2    C     C_R   0.443838 0.254539 0.493783 0.872291
C3    C     C_R   0.316437 0.457643 0.075855 0.395599
C4    C     C_R   0.679910 0.538533 0.924101 0.415035
C5    C     C_R   0.217712 0.393678 0.019679 -0.216829
C6    C     C_R   0.779289 0.602641 0.979794 -0.215357
C7    C     C_2   0.587890 0.884611 0.509655 -0.310987
C8    C     C_2   0.412007 0.115377 0.490537 -0.276490
C9    C     C_2   0.484209 0.930527 0.498579 -0.135750
C10   C     C_2   0.515629 0.069460 0.501737 -0.150299
C11   C     C_2   0.922191 0.488944 0.493352 0.033520
C12   C     C_2   0.079609 0.514282 0.504339 0.037122
C13   C     C_R   0.409442 0.479052 0.662520 0.831138
C14   C     C_R   0.590457 0.520638 0.337414 0.832743
C15   C     C_R   0.351981 0.450607 0.754776 -0.209388
C16   C     C_R   0.647292 0.548116 0.244955 -0.209413
C17   C     C_R   0.162706 0.346922 0.875477 -0.155461
C18   C     C_R   0.835719 0.650111 0.123540 -0.169796
C19   C     C_R   0.205642 0.365868 0.786629 0.349100
C20   C     C_R   0.793887 0.631533 0.212424 0.361827
C21   C     C_R   0.453157 0.502115 0.812153 -0.156584
C22   C     C_R   0.545131 0.496807 0.188031 -0.160724
C23   C     C_R   0.416893 0.464808 0.898542 0.127171
C24   C     C_R   0.580518 0.533231 0.101479 0.107407
C25   C     C_R   0.266076 0.398487 0.931337 -0.002152
C26   C     C_R   0.731455 0.598870 0.068179 -0.004618
C27   C     C_R   0.523971 0.500324 0.954618 -0.084485
C28   C     C_R   0.472834 0.497089 0.045577 -0.090745
Cu1   Cu    Cu3+1 0.362980 0.479380 0.485080 1.052875
Cu2   Cu    Cu3+1 0.637020 0.520620 0.514920 1.048121
H1    H     H_    0.099492 0.354408 0.044225 0.187373
H2    H     H_    0.897453 0.640605 0.954934 0.190468
H3    H     H_    0.437530 0.426387 0.211761 0.222011
H4    H     H_    0.560882 0.572835 0.788866 0.207827
H5    H     H_    0.048370 0.290857 0.901478 0.200252
H6    H     H_    0.950102 0.705337 0.097071 0.200981
H7    H     H_    0.624654 0.134568 0.513316 0.189008
H8    H     H_    0.375143 0.865417 0.487071 0.196817
H9    H     H_    0.303161 0.050011 0.478976 0.182762
H10   H     H_    0.696793 0.949976 0.521125 0.183964
H11   H     H_    0.129545 0.589275 0.549517 0.142738
H12   H     H_    0.873683 0.416608 0.446356 0.144776
H13   H     H_    0.105173 0.374880 0.422418 0.214685
H14   H     H_    0.892444 0.621026 0.580655 0.231914
N1    N     N_2   0.842890 0.551600 0.537350 -0.257220
N2    N     N_2   0.157110 0.448400 0.462650 -0.247667
O1    O     O_R   0.426810 0.668300 0.492040 -0.593927
O2    O     O_R   0.573190 0.331700 0.507960 -0.603701
O3    O     O_R   0.658240 0.703130 0.517240 -0.530231
O4    O     O_R   0.341760 0.296870 0.482760 -0.537364
O5    O     O_R   0.319390 0.472820 0.610170 -0.550751
O6    O     O_R   0.680610 0.527180 0.389830 -0.524603
O7    O     O_R   0.550820 0.507640 0.635370 -0.556282
O8    O     O_R   0.449180 0.492360 0.364630 -0.543206
S1    S     S_3+6 0.926152 0.719501 0.278872 0.065935
O9    O     O_2   0.975353 0.627008 0.319262 -0.222987
O10   O     O_2   0.060103 0.816789 0.227277 -0.241282
O11   O     O_3   0.849938 0.798957 0.356892 -0.512389
H15   H     H_    0.809326 0.849835 0.326398 0.329205
S2    S     S_3+6 0.075209 0.276460 0.719270 0.068431
O12   O     O_2   0.147646 0.207857 0.650006 -0.269069
O13   O     O_2   0.943469 0.176726 0.770643 -0.230114
O14   O     O_3   0.014718 0.375508 0.673269 -0.479868
H16   H     H_    0.059045 0.462677 0.698958 0.355408
S3    S     S_3+6 0.234520 0.513186 0.173398 0.022036
O15   O     O_2   0.343449 0.631710 0.209035 -0.232332
O16   O     O_2   0.107948 0.547799 0.155124 -0.273524
O17   O     O_3   0.167370 0.393161 0.245986 -0.561256
H17   H     H_    0.068984 0.394878 0.273868 0.370218
S4    S     S_3+6 0.759109 0.478283 0.827672 -0.000865
O18   O     O_2   0.823022 0.583514 0.761393 -0.338994
O19   O     O_2   0.882556 0.440370 0.847110 -0.282448
O20   O     O_3   0.633847 0.346521 0.789175 -0.499483
H18   H     H_    0.683922 0.330464 0.731398 0.398803

loop_
_geom_bond_atom_site_label_1
_geom_bond_atom_site_label_2
_ccdc_geom_bond_type
C6    H2    S    
C11   C12   S    
S4    O18   D    
C8    H9    S    
C23   C27   A    
C19   S2    S    
C2    O4    A    
O20   H18   S    
C20   S1    S    
Cu2   N1    S    
C13   O7    A    
C18   C26   A    
C16   C20   A    
Cu1   N2    S    
S1    O9    D    
S3    O17   S    
C17   C25   A    
C3    C5    A    
S4    O20   S    
C23   C25   A    
C6    C26   A    
S1    O10   D    
C3    S3    S    
Cu2   O7    S    
C15   C19   A    
Cu1   Cu2   S    
C1    O3    A    
Cu1   O1    S    
C10   H7    S    
C5    C25   A    
C9    C10   S    
C4    S4    S    
C3    C28   A    
C14   O8    A    
Cu2   O3    S    
C24   C26   A    
C18   C20   A    
Cu1   O4    S    
C13   C15   S    
C21   C23   A    
C13   O5    A    
O17   H17   S    
H13   N2    S    
C22   C24   A    
C11   N1    D    
C4    C6    A    
S2    O14   S    
Cu1   O8    S    
C17   C19   A    
O14   H16   S    
C24   C28   A    
C15   C21   A    
C4    C27   A    
H14   N1    S    
C7    H10   S    
C12   H11   S    
S2    O13   D    
S3    O15   D    
Cu1   O5    S    
S1    O11   S    
Cu2   O2    S    
C27   C28   A    
C7    C9    D    
C22   H3    S    
Cu2   O6    S    
C1    O1    A    
C2    C8    S    
C9    H8    S    
C21   H4    S    
C17   H5    S    
C2    O2    A    
C14   C16   S    
C1    C7    S    
O11   H15   S    
C18   H6    S    
S4    O19   D    
C8    C10   D    
C14   O6    A    
C11   H12   S    
S3    O16   D    
C16   C22   A    
S2    O12   D    
C5    H1    S    
C12   N2    D    
