data_mof_unit_48974.cif
_audit_creation_date              2012-12-10T17:48:46-0500
_audit_creation_method            fapswitch 2.2
_symmetry_space_group_name_H-M    P1
_symmetry_Int_Tables_number       1
_space_group_crystal_system       triclinic
_cell_length_a                    15.740599
_cell_length_b                    10.695559
_cell_length_c                    9.948115
_cell_angle_alpha                 91.750831
_cell_angle_beta                  92.162071
_cell_angle_gamma                 94.549531
_cell_volume                      1667.39810269

loop_
_atom_site_label
_atom_site_type_symbol
_atom_type_description
_atom_site_fract_x
_atom_site_fract_y
_atom_site_fract_z
_atom_type_partial_charge
C1    C     C_R   0.510610 0.262819 0.498658 0.916497
C2    C     C_R   0.634329 0.086698 0.827428 0.343558
C3    C     C_R   0.596809 0.967804 0.855250 0.344249
C4    C     C_R   0.338449 0.502724 0.498052 0.928021
C5    C     C_R   0.541003 0.902878 0.760158 0.585947
C6    C     C_R   0.529572 0.948315 0.628299 -0.187491
C7    C     C_R   0.554944 0.074813 0.609835 -0.010009
C8    C     C_R   0.522802 0.131487 0.495010 -0.116596
C9    C     C_R   0.486236 0.060159 0.385468 -0.351192
C10   C     C_R   0.471006 0.933225 0.394903 0.573037
C11   C     C_R   0.494819 0.875268 0.513080 -0.172803
C12   C     C_3   0.950554 0.429711 0.610413 0.248837
C13   C     C_R   0.358253 0.373177 0.124232 0.404473
C14   C     C_R   0.282326 0.357497 0.040849 0.201978
C15   C     C_R   0.289061 0.336415 0.904408 0.308445
C16   C     C_R   0.497137 0.740475 0.503438 0.897097
C17   C     C_R   0.366869 0.362531 0.848492 0.572162
C18   C     C_R   0.434750 0.432140 0.921607 -0.219142
C19   C     C_R   0.432751 0.434351 0.066241 -0.163156
C20   C     C_R   0.560657 0.568007 0.077702 0.553592
C21   C     C_R   0.561735 0.567263 0.933858 0.443439
C22   C     C_R   0.661625 0.503296 0.502437 0.842042
C23   C     C_3   0.917769 0.521192 0.505483 0.016782
C24   C     C_3   0.049029 0.436747 0.609329 0.289877
C25   C     C_3   0.038435 0.484622 0.346237 0.785626
C26   C     C_3   0.939544 0.478033 0.361193 0.274214
C27   C     C_1   0.750790 0.513156 0.508216 -0.158075
C28   C     C_3   0.082905 0.518385 0.491802 -0.039124
C29   C     C_3   0.923068 0.364260 0.827519 0.050440
C30   C     C_3   0.913944 0.413665 0.970750 -0.729352
C31   C     C_3   0.681073 0.269981 0.947698 0.030489
C32   C     C_3   0.706477 0.303225 0.094460 -0.787774
C33   C     C_3   0.592288 0.965335 0.086897 0.239731
C34   C     C_3   0.961369 0.655501 0.535639 -0.489106
C35   C     C_3   0.663456 0.971943 0.195640 -0.754545
C36   C     C_3   0.289131 0.246126 0.285638 0.135616
C37   C     C_3   0.300876 0.176844 0.415339 -0.836784
C38   C     C_3   0.191789 0.164665 0.863659 0.269303
C39   C     C_3   0.182530 0.074728 0.741529 -0.822009
C40   C     C_3   0.701998 0.615571 0.885408 0.130245
C41   C     C_3   0.762079 0.713022 0.821491 -0.746865
C42   C     C_3   0.128108 0.585459 0.184153 0.214455
C43   C     C_3   0.159328 0.717746 0.147481 -0.880808
C44   C     C_3   0.057639 0.261051 0.343080 0.203069
C45   C     C_3   0.059872 0.653555 0.532378 -0.509580
C46   C     C_3   0.045374 0.152879 0.239493 -0.811765
C47   C     C_1   0.826326 0.520370 0.510022 0.074023
C48   C     C_1   0.174456 0.514957 0.491363 0.033824
C49   C     C_1   0.249657 0.509721 0.493866 -0.168756
C50   C     C_R   0.610842 0.141745 0.706210 -0.354389
F1    F     F_    0.487814 0.810046 0.807855 -0.616420
F2    F     F_    0.428548 0.867606 0.290450 -0.678878
F3    F     F_    0.618455 0.644122 0.152242 -0.661808
F4    F     F_    0.078527 0.318732 0.612076 -0.726377
F5    F     F_    0.202962 0.343746 0.089460 -0.713278
F6    F     F_    0.374601 0.305516 0.728747 -0.634037
F7    F     F_    0.898698 0.361335 0.325993 -0.714273
H1    H     H_    0.923328 0.332800 0.580424 0.132334
H2    H     H_    0.983094 0.315837 0.825145 0.197334
H3    H     H_    0.868004 0.295488 0.799685 0.163139
H4    H     H_    0.853005 0.458318 0.978958 0.230380
H5    H     H_    0.915185 0.335392 0.041306 0.254279
H6    H     H_    0.967330 0.484615 0.999139 0.265953
H7    H     H_    0.613206 0.291261 0.931346 0.130016
H8    H     H_    0.722067 0.328912 0.882791 0.150363
H9    H     H_    0.660673 0.254483 0.161363 0.248683
H10   H     H_    0.771380 0.274743 0.118944 0.295934
H11   H     H_    0.705967 0.405886 0.113621 0.214995
H12   H     H_    0.075007 0.482775 0.705993 0.189558
H13   H     H_    0.536937 0.906356 0.121614 0.226309
H14   H     H_    0.571348 0.061532 0.073239 0.098990
H15   H     H_    0.678629 0.875944 0.222164 0.288791
H16   H     H_    0.721725 0.023301 0.159148 0.275407
H17   H     H_    0.643908 0.021859 0.287280 0.192859
H18   H     H_    0.262048 0.175131 0.208243 0.164935
H19   H     H_    0.243700 0.317180 0.307711 0.211242
H20   H     H_    0.341779 0.234772 0.489494 0.309772
H21   H     H_    0.238192 0.155556 0.460104 0.220488
H22   H     H_    0.326707 0.085542 0.394776 0.252928
H23   H     H_    0.939122 0.721136 0.459620 0.199353
H24   H     H_    0.128360 0.169224 0.908116 0.170474
H25   H     H_    0.235074 0.123852 0.939281 0.090881
H26   H     H_    0.245561 0.067847 0.696501 0.270637
H27   H     H_    0.158135 0.980045 0.772390 0.193184
H28   H     H_    0.137158 0.107952 0.665079 0.292097
H29   H     H_    0.707986 0.524336 0.832774 0.122860
H30   H     H_    0.723271 0.609620 0.992530 0.165908
H31   H     H_    0.761793 0.804861 0.876482 0.277460
H32   H     H_    0.827974 0.682743 0.825824 0.220753
H33   H     H_    0.741885 0.724117 0.714636 0.238663
H34   H     H_    0.463850 0.103285 0.294984 0.215560
H35   H     H_    0.109963 0.530268 0.089668 0.222615
H36   H     H_    0.181773 0.543187 0.236166 0.191922
H37   H     H_    0.178709 0.775003 0.240225 0.263421
H38   H     H_    0.215124 0.714430 0.082739 0.242394
H39   H     H_    0.107836 0.762360 0.091920 0.256386
H40   H     H_    0.003918 0.250862 0.411005 0.209527
H41   H     H_    0.117937 0.251388 0.400508 0.179113
H42   H     H_    0.099337 0.155920 0.170752 0.265504
H43   H     H_    0.042447 0.062154 0.291208 0.201112
H44   H     H_    0.984984 0.158928 0.179487 0.273681
H45   H     H_    0.638933 0.234314 0.684686 0.170284
H46   H     H_    0.911470 0.542937 0.289209 0.152411
H47   H     H_    0.088902 0.683661 0.633192 0.192624
H48   H     H_    0.086008 0.724474 0.462204 0.244844
H49   H     H_    0.943628 0.691582 0.635978 0.234560
N1    N     N_R   0.499210 0.498800 0.142780 -0.129008
N2    N     N_R   0.499180 0.498720 0.857170 -0.127129
O1    O     O_R   0.500000 0.316780 0.614690 -0.550889
O2    O     O_3   0.695121 0.143234 0.919453 -0.587069
O3    O     O_3   0.620955 0.906908 0.969620 -0.545466
O4    O     O_3   0.366682 0.307598 0.243483 -0.567319
O5    O     O_3   0.220545 0.286231 0.822804 -0.518852
O6    O     O_3   0.617599 0.650368 0.870202 -0.515217
O7    O     O_3   0.055782 0.590857 0.263959 -0.685186
O8    O     O_3   0.063806 0.375231 0.275456 -0.606905
O9    O     O_R   0.499990 0.316750 0.385360 -0.577896
O10   O     O_R   0.377150 0.500020 0.614720 -0.548047
O11   O     O_R   0.377140 0.499990 0.385380 -0.579040
O12   O     O_R   0.500010 0.683250 0.614640 -0.536795
O13   O     O_R   0.500000 0.683220 0.385310 -0.532284
O14   O     O_R   0.622860 0.500010 0.614620 -0.638255
O15   O     O_R   0.622850 0.499980 0.385280 -0.572787
O16   O     O_3   0.924279 0.465967 0.740073 -0.631320
Zn1   Zn    Zn3+2 0.500010 0.500020 0.653130 1.058034
Zn2   Zn    Zn3+2 0.499990 0.499980 0.346870 1.061837

loop_
_geom_bond_atom_site_label_1
_geom_bond_atom_site_label_2
_ccdc_geom_bond_type
C41   H32   S    
C46   H42   S    
C35   H17   S    
C1    C8    S    
C10   F2    S    
C9    H34   S    
C7    C8    A    
C25   C28   S    
C37   H22   S    
C12   C23   S    
C40   H30   S    
C36   C37   S    
C45   H47   S    
C39   H27   S    
C13   O4    S    
C16   O12   A    
C38   C39   S    
C24   F4    S    
C42   H36   S    
C29   O16   S    
C43   H37   S    
C17   C18   A    
C18   C19   A    
C11   C16   S    
C23   C26   S    
C40   H29   S    
C36   H19   S    
C34   H23   S    
C44   H41   S    
C40   O6    S    
C29   H2    S    
C44   C46   S    
C8    C9    A    
C36   O4    S    
C43   H38   S    
C15   O5    S    
C4    O11   A    
C33   O3    S    
O10   Zn1   S    
N2    Zn1   S    
C2    C50   A    
C9    C10   A    
C32   H11   S    
C20   N1    A    
C1    O1    A    
C41   H33   S    
C30   H6    S    
C38   H25   S    
C4    O10   A    
C45   H48   S    
C24   H12   S    
C22   O14   A    
C46   H44   S    
C28   C45   S    
C23   C47   S    
C13   C19   A    
C34   H49   S    
C22   O15   A    
C7    C50   A    
C25   O8    S    
C3    O3    S    
C6    C11   A    
C38   O5    S    
O12   Zn1   S    
C21   O6    S    
O15   Zn2   S    
C25   C26   S    
C37   H20   S    
C35   H16   S    
C16   O13   A    
C29   C30   S    
C36   H18   S    
C26   H46   S    
C44   H40   S    
C31   C32   S    
C12   O16   S    
C29   H3    S    
C23   C34   S    
C43   H39   S    
C34   C45   S    
C1    O9    A    
C17   F6    S    
C33   H13   S    
C32   H10   S    
O1    Zn1   S    
C40   C41   S    
C35   H15   S    
C50   H45   S    
C22   C27   S    
C30   H5    S    
C38   H24   S    
C42   C43   S    
C39   H28   S    
C32   H9    S    
O9    Zn2   S    
C27   C47   T    
C31   H8    S    
C41   H31   S    
C46   H43   S    
C28   C48   S    
C31   H7    S    
C24   C28   S    
N1    Zn2   S    
C20   F3    S    
C3    C5    A    
C15   C17   A    
C6    C7    A    
C37   H21   S    
C12   C24   S    
C4    C49   S    
O14   Zn1   S    
C25   O7    S    
C2    C3    A    
C12   H1    S    
O13   Zn2   S    
C5    C6    A    
C48   C49   T    
C33   C35   S    
C31   O2    S    
C14   F5    S    
C42   H35   S    
C26   F7    S    
C18   N2    A    
C21   N2    A    
C10   C11   A    
C33   H14   S    
C39   H26   S    
O11   Zn2   S    
C42   O7    S    
C20   C21   A    
C44   O8    S    
C30   H4    S    
C14   C15   A    
C5    F1    S    
C13   C14   A    
C19   N1    A    
C2    O2    S    
