data_mof_unit_36671.cif
_audit_creation_date              2012-12-10T19:00:11-0500
_audit_creation_method            fapswitch 2.2
_symmetry_space_group_name_H-M    P1
_symmetry_Int_Tables_number       1
_space_group_crystal_system       triclinic
_cell_length_a                    9.541233
_cell_length_b                    10.848792
_cell_length_c                    13.455903
_cell_angle_alpha                 90.526391
_cell_angle_beta                  72.271104
_cell_angle_gamma                 90.881711
_cell_volume                      1326.51174711

loop_
_atom_site_label
_atom_site_type_symbol
_atom_type_description
_atom_site_fract_x
_atom_site_fract_y
_atom_site_fract_z
_atom_type_partial_charge
C1    C     C_R   0.499646 0.737754 0.504125 0.805402
C2    C     C_R   0.432065 0.481164 0.979801 0.085699
C3    C     C_R   0.469520 0.453177 0.871693 0.088375
C4    C     C_R   0.540831 0.467350 0.031457 0.076089
C5    C     C_R   0.679411 0.416334 0.976942 0.172145
C6    C     C_R   0.706293 0.374834 0.874802 -0.257523
C7    C     C_R   0.601870 0.390492 0.823661 -0.218577
C8    C     C_R   0.516971 0.503957 0.135454 -0.259600
C9    C     C_R   0.760374 0.438581 0.130240 -0.202245
C10   C     C_R   0.372540 0.487532 0.815092 -0.102424
C11   C     C_R   0.371416 0.933946 0.514757 0.120426
C12   C     C_R   0.421049 0.493436 0.700129 0.781838
C13   C     C_R   0.496596 0.871147 0.517788 -0.159291
C14   C     C_R   0.612840 0.940427 0.537907 -0.036496
C15   C     C_R   0.609524 0.069161 0.536349 -0.265509
C16   C     C_R   0.492098 0.129744 0.515957 -0.112862
C17   C     C_R   0.368332 0.060611 0.514664 0.131224
C18   C     C_3   0.278576 0.061791 0.441108 -0.484938
C19   C     C_3   0.282883 0.922077 0.440830 -0.434306
C20   C     C_R   0.963836 0.471333 0.411379 0.259303
C21   C     C_R   0.890371 0.539933 0.584452 -0.049245
C22   C     C_R   0.038987 0.539668 0.584531 -0.074327
C23   C     C_R   0.498044 0.262361 0.502702 0.804376
C24   C     C_R   0.111425 0.472721 0.411058 0.259667
C25   C     C_3   0.142875 0.355689 0.350491 -0.507287
C26   C     C_3   0.983087 0.352318 0.352669 -0.505864
C27   C     C_R   0.578733 0.498929 0.299854 0.799000
C28   C     C_R   0.788788 0.404717 0.026049 -0.203959
C29   C     C_R   0.622622 0.484602 0.186179 -0.046792
C30   C     C_R   0.230660 0.528045 0.869342 -0.190440
C31   C     C_R   0.187573 0.541470 0.976974 -0.155523
C32   C     C_R   0.287204 0.521044 0.031767 -0.188481
Cu1   Cu    Cu3+1 0.359330 0.500020 0.500010 0.940760
Cu2   Cu    Cu3+1 0.640670 0.499980 0.499990 0.947114
H1    H     H_    0.843962 0.424630 0.167693 0.142737
H2    H     H_    0.702060 0.121511 0.546472 0.163521
H3    H     H_    0.166139 0.097159 0.479162 0.200042
H4    H     H_    0.338570 0.103262 0.364362 0.197808
H5    H     H_    0.173474 0.878279 0.477748 0.220526
H6    H     H_    0.346458 0.882315 0.364166 0.193991
H7    H     H_    0.806743 0.571535 0.653385 0.161179
H8    H     H_    0.065345 0.570328 0.653463 0.139072
H9    H     H_    0.220994 0.369551 0.271037 0.196759
H10   H     H_    0.171495 0.280836 0.395589 0.215559
H11   H     H_    0.970649 0.361994 0.273972 0.188351
H12   H     H_    0.808715 0.329995 0.834062 0.147524
H13   H     H_    0.918647 0.275163 0.399752 0.214951
H14   H     H_    0.895113 0.366671 0.984522 0.140794
H15   H     H_    0.416081 0.546969 0.179640 0.144596
H16   H     H_    0.153440 0.552260 0.828297 0.148591
H17   H     H_    0.246017 0.534965 0.114910 0.121772
H18   H     H_    0.077420 0.571941 0.018002 0.147609
H19   H     H_    0.625748 0.350034 0.746791 0.175036
N1    N     N_R   0.852320 0.499070 0.499340 -0.190289
N2    N     N_R   0.148230 0.499110 0.499340 -0.187987
O1    O     O_R   0.381190 0.680360 0.500000 -0.573986
O2    O     O_R   0.618780 0.680320 0.499990 -0.565033
O3    O     O_R   0.323230 0.500000 0.650990 -0.588555
O4    O     O_R   0.560820 0.499960 0.650980 -0.594907
O5    O     O_R   0.381220 0.319680 0.500010 -0.576987
O6    O     O_R   0.618810 0.319640 0.500000 -0.591592
O7    O     O_R   0.439180 0.500040 0.349020 -0.585349
O8    O     O_R   0.676770 0.500000 0.349010 -0.580448
C33   C     C_1   0.739800 0.884804 0.555617 0.277797
N3    N     N_1   0.841846 0.840958 0.569812 -0.318812

loop_
_geom_bond_atom_site_label_1
_geom_bond_atom_site_label_2
_ccdc_geom_bond_type
C17   C18   S    
Cu1   N2    S    
Cu2   O2    S    
C2    C4    A    
C32   H17   S    
Cu2   N1    S    
C6    C7    A    
C27   O7    A    
C1    O2    A    
Cu1   O5    S    
C5    C28   A    
C27   C29   S    
C10   C30   A    
C31   C32   A    
Cu1   O3    S    
C9    C29   A    
C31   H18   S    
C4    C8    A    
C14   C33   S    
C33   N3    T    
C25   H9    S    
Cu1   O1    S    
C2    C3    A    
C30   H16   S    
C12   O3    A    
C3    C10   A    
C22   H8    S    
C21   C22   A    
C24   N2    A    
C23   O5    A    
C11   C13   A    
C30   C31   A    
C11   C19   S    
C22   N2    A    
C27   O8    A    
C26   H13   S    
C21   H7    S    
C5    C6    A    
C19   H5    S    
C25   H10   S    
C20   N1    A    
Cu2   O8    S    
C18   H3    S    
Cu1   Cu2   S    
C16   C23   S    
C3    C7    A    
C18   H4    S    
C21   N1    A    
C10   C12   S    
Cu2   O4    S    
C1    C13   S    
C19   H6    S    
C7    H19   S    
C15   C16   A    
C16   C17   A    
C15   H2    S    
C23   O6    A    
C24   C25   S    
C2    C32   A    
C18   C19   S    
C8    C29   A    
C9    H1    S    
C14   C15   A    
C11   C17   A    
C6    H12   S    
C26   H11   S    
C25   C26   S    
C13   C14   A    
C12   O4    A    
Cu1   O7    S    
C8    H15   S    
C1    O1    A    
Cu2   O6    S    
C28   H14   S    
C20   C24   A    
C9    C28   A    
C4    C5    A    
C20   C26   S    
