data_mof_unit_29675.cif
_audit_creation_date              2012-12-10T22:11:08-0500
_audit_creation_method            fapswitch 2.2
_symmetry_space_group_name_H-M    P1
_symmetry_Int_Tables_number       1
_space_group_crystal_system       triclinic
_cell_length_a                    12.124858
_cell_length_b                    12.303791
_cell_length_c                    23.078155
_cell_angle_alpha                 90.657349
_cell_angle_beta                  89.995059
_cell_angle_gamma                 90.122925
_cell_volume                      3442.60431486

loop_
_atom_site_label
_atom_site_type_symbol
_atom_type_description
_atom_site_fract_x
_atom_site_fract_y
_atom_site_fract_z
_atom_type_partial_charge
C1    C     C_R   0.658013 0.997504 0.578294 0.887282
C2    C     C_R   0.341986 0.002496 0.421706 0.887280
C3    C     C_R   0.904924 0.813341 0.127905 -0.175740
C4    C     C_R   0.095075 0.186657 0.872097 -0.175738
C5    C     C_R   0.088138 0.823523 0.203063 0.413649
C6    C     C_R   0.911864 0.176480 0.796936 0.413652
C7    C     C_R   0.079502 0.743469 0.160651 -0.179246
C8    C     C_R   0.920501 0.256534 0.839347 -0.179245
C9    C     C_R   0.905622 0.158834 0.193370 -0.189125
C10   C     C_R   0.094377 0.841160 0.806627 -0.189116
C11   C     C_R   0.904380 0.241574 0.153536 -0.159621
C12   C     C_R   0.095618 0.758420 0.846461 -0.159621
C13   C     C_R   0.097841 0.924657 0.333184 -0.115410
C14   C     C_R   0.902161 0.075341 0.666815 -0.115409
C15   C     C_R   0.180470 0.920047 0.374259 -0.125767
C16   C     C_R   0.819531 0.079951 0.625740 -0.125767
C17   C     C_R   0.872955 0.098842 0.320223 -0.157941
C18   C     C_R   0.127038 0.901160 0.679773 -0.157944
C19   C     C_R   0.792451 0.096472 0.362460 -0.234377
C20   C     C_R   0.207541 0.903531 0.637536 -0.234378
C21   C     C_3   0.000576 0.005506 0.248142 -0.066662
C22   C     C_3   0.999424 0.994494 0.751858 -0.066661
C23   C     C_R   0.652228 0.001220 0.419135 0.892812
C24   C     C_R   0.347773 0.998780 0.580865 0.892815
C25   C     C_R   0.091061 0.012560 0.294296 0.092039
C26   C     C_R   0.908937 0.987440 0.705704 0.092035
C27   C     C_R   0.253422 0.006721 0.380094 -0.093549
C28   C     C_R   0.746576 0.993280 0.619907 -0.093546
C29   C     C_R   0.895809 0.006227 0.285893 0.015542
C30   C     C_R   0.104191 0.993772 0.714107 0.015541
C31   C     C_R   0.732137 0.001349 0.371990 -0.126508
C32   C     C_R   0.267864 0.998650 0.628010 -0.126504
C33   C     C_R   0.003279 0.099635 0.204856 0.120923
C34   C     C_R   0.996721 0.900365 0.795144 0.120920
C35   C     C_R   0.999582 0.266100 0.122769 -0.058525
C36   C     C_R   0.000418 0.733899 0.877230 -0.058523
C37   C     C_R   0.002768 0.903629 0.208175 -0.007650
C38   C     C_R   0.997233 0.096371 0.791825 -0.007647
C39   C     C_R   0.990613 0.739884 0.122444 -0.100047
C40   C     C_R   0.009388 0.260117 0.877556 -0.100046
C41   C     C_R   0.992139 0.660156 0.076110 0.885732
C42   C     C_R   0.007861 0.339844 0.923890 0.885731
C43   C     C_R   0.999063 0.351840 0.080557 0.878511
C44   C     C_R   0.000937 0.648160 0.919443 0.878510
C45   C     C_R   0.153662 0.107974 0.308217 0.380043
C46   C     C_R   0.846332 0.892027 0.691786 0.380041
C47   C     C_R   0.237314 0.101559 0.348766 -0.172313
C48   C     C_R   0.762680 0.898444 0.651236 -0.172309
C49   C     C_R   0.833077 0.911303 0.295134 -0.222953
C50   C     C_R   0.166931 0.088692 0.704870 -0.222954
C51   C     C_R   0.750400 0.908924 0.336520 0.399728
C52   C     C_R   0.249610 0.091070 0.663485 0.399722
C53   C     C_R   0.098069 0.121948 0.170056 0.232750
C54   C     C_R   0.901934 0.878056 0.829946 0.232749
C55   C     C_R   0.095068 0.205673 0.130565 -0.177416
C56   C     C_R   0.904935 0.794332 0.869437 -0.177416
C57   C     C_R   0.911267 0.894135 0.169775 -0.206275
C58   C     C_R   0.088732 0.105862 0.830226 -0.206284
H1    H     H_    0.288529 0.172475 0.356799 0.203265
H2    H     H_    0.711462 0.827529 0.643205 0.203264
H3    H     H_    0.850309 0.836061 0.272371 0.188416
H4    H     H_    0.149707 0.163933 0.727636 0.188418
H5    H     H_    0.843482 0.951075 0.171952 0.172537
H6    H     H_    0.156514 0.048920 0.828050 0.172539
H7    H     H_    0.827665 0.140492 0.213659 0.163805
H8    H     H_    0.172332 0.859498 0.786335 0.163808
H9    H     H_    0.043463 0.855099 0.328847 0.168950
H10   H     H_    0.956541 0.144897 0.671150 0.168950
H11   H     H_    0.920157 0.172688 0.315538 0.208996
H12   H     H_    0.079829 0.827317 0.684455 0.208992
H13   H     H_    0.168122 0.223098 0.105235 0.177628
H14   H     H_    0.831882 0.776910 0.894770 0.177625
H15   H     H_    0.834988 0.810602 0.098698 0.173423
H16   H     H_    0.165009 0.189393 0.901305 0.173422
H17   H     H_    0.144857 0.683753 0.156669 0.203434
H18   H     H_    0.855147 0.316251 0.843328 0.203433
H19   H     H_    0.828489 0.285921 0.146627 0.172980
H20   H     H_    0.171507 0.714069 0.853367 0.172979
H21   H     H_    0.187714 0.848566 0.400962 0.174396
H22   H     H_    0.812290 0.151430 0.599035 0.174394
H23   H     H_    0.779820 0.168806 0.388816 0.191881
H24   H     H_    0.220165 0.831200 0.611176 0.191877
O1    O     O_R   0.621380 0.090460 0.561410 -0.600450
O2    O     O_R   0.378620 0.909540 0.438590 -0.600454
O3    O     O_R   0.617150 0.909540 0.438590 -0.558430
O4    O     O_R   0.382850 0.090460 0.561410 -0.558435
O5    O     O_R   0.619720 0.093230 0.440890 -0.637730
O6    O     O_R   0.380280 0.906770 0.559110 -0.637730
O7    O     O_R   0.618800 0.906770 0.559110 -0.630717
O8    O     O_R   0.381200 0.093230 0.440890 -0.630718
O9    O     O_R   0.087590 0.627480 0.058790 -0.618036
O10   O     O_R   0.912410 0.372520 0.941210 -0.618034
O11   O     O_R   0.905660 0.383870 0.059980 -0.623403
O12   O     O_R   0.094340 0.616130 0.940020 -0.623403
O13   O     O_R   0.092570 0.390420 0.063230 -0.620152
O14   O     O_R   0.907430 0.609580 0.936770 -0.620150
O15   O     O_R   0.900680 0.620930 0.055550 -0.620259
O16   O     O_R   0.099320 0.379070 0.944450 -0.620258
Zn1   Zn    Zn3+2 0.501730 0.123520 0.501540 1.064519
Zn2   Zn    Zn3+2 0.498270 0.876480 0.498460 1.064522
Zn3   Zn    Zn3+2 0.125690 0.504390 0.002180 1.008039
Zn4   Zn    Zn3+2 0.874310 0.495610 0.997820 1.008040
I1    I     I_    0.255481 0.046812 0.172761 -0.251776
I2    I     I_    0.744525 0.953199 0.827244 -0.251773
Cl1   Cl    Cl    0.213059 0.813692 0.242097 -0.572368
Cl2   Cl    Cl    0.786945 0.186312 0.757901 -0.572360
Cl3   Cl    Cl    0.673260 0.787413 0.341006 -0.544252
Cl4   Cl    Cl    0.326768 0.212572 0.659006 -0.544245
Cl5   Cl    Cl    0.127344 0.241671 0.284531 -0.624589
Cl6   Cl    Cl    0.872646 0.758331 0.715473 -0.624585

loop_
_geom_bond_atom_site_label_1
_geom_bond_atom_site_label_2
_ccdc_geom_bond_type
C16   C28   A    
C18   H12   S    
C5    C37   A    
C17   C29   A    
C53   C55   A    
C2    O2    A    
C5    Cl1   S    
C19   C31   A    
C39   C41   S    
C29   C49   A    
C17   H11   S    
C36   C56   A    
C7    C39   A    
C54   I2    S    
O14   Zn4   S    
C42   O16   A    
C20   C32   A    
C45   Cl5   S    
C21   C33   S    
C22   C38   S    
C8    H18   S    
C18   C20   A    
C2    O8    A    
C32   C52   A    
C11   H19   S    
C17   C19   A    
C38   C58   A    
C15   C27   A    
C15   H21   S    
C4    C40   A    
O12   Zn3   S    
C56   H14   S    
C12   H20   S    
C1    C28   S    
C43   O13   A    
C6    C38   A    
C48   H2    S    
C2    C27   S    
C18   C30   A    
C12   C36   A    
C35   C43   S    
C42   O10   A    
O15   Zn4   S    
O10   Zn4   S    
C45   C47   A    
C30   C50   A    
C3    C39   A    
O1    Zn1   S    
C9    C33   A    
C13   C25   A    
O9    Zn3   S    
C57   H5    S    
C46   C48   A    
C10   H8    S    
C33   C53   A    
C22   C34   S    
C54   C56   A    
C49   H3    S    
O7    Zn2   S    
C35   C55   A    
O2    Zn2   S    
C5    C7    A    
C7    H17   S    
C58   H6    S    
C49   C51   A    
C21   C29   S    
C16   H22   S    
C23   C31   S    
C55   H13   S    
C24   C32   S    
C44   O14   A    
C24   O6    A    
C50   C52   A    
C6    Cl2   S    
C10   C34   A    
C14   C26   A    
O4    Zn1   S    
C9    C11   A    
O6    Zn2   S    
C10   C12   A    
C3    C57   A    
C41   O9    A    
C34   C54   A    
C13   C15   A    
C23   O3    A    
C50   H4    S    
C14   C16   A    
C36   C44   S    
C25   C45   A    
O8    Zn1   S    
C13   H9    S    
C27   C47   A    
C21   C25   S    
C28   C48   A    
C1    O7    A    
C22   C30   S    
C4    H16   S    
C31   C51   A    
C40   C42   S    
O11   Zn4   S    
C6    C8    A    
C1    O1    A    
O16   Zn3   S    
C46   Cl6   S    
O3    Zn2   S    
C53   I1    S    
C11   C35   A    
C43   O11   A    
C41   O15   A    
C3    H15   S    
C9    H7    S    
C44   O12   A    
C26   C46   A    
C47   H1    S    
O5    Zn1   S    
C21   C37   S    
C52   Cl4   S    
C51   Cl3   S    
C20   H24   S    
C22   C26   S    
C4    C58   A    
C14   H10   S    
C23   O5    A    
C8    C40   A    
C19   H23   S    
C24   O4    A    
C37   C57   A    
O13   Zn3   S    
