data_mof_unit_27109.cif
_audit_creation_date              2012-12-11T19:45:02-0500
_audit_creation_method            fapswitch 2.2
_symmetry_space_group_name_H-M    P1
_symmetry_Int_Tables_number       1
_space_group_crystal_system       triclinic
_cell_length_a                    8.262288
_cell_length_b                    15.120321
_cell_length_c                    19.09912
_cell_angle_alpha                 102.368706
_cell_angle_beta                  92.283324
_cell_angle_gamma                 98.736344
_cell_volume                      2297.11969707

loop_
_atom_site_label
_atom_site_type_symbol
_atom_type_description
_atom_site_fract_x
_atom_site_fract_y
_atom_site_fract_z
_atom_type_partial_charge
Ba1   Ba    Ba6+2 0.853900 0.540470 0.466700 1.641386
Ba2   Ba    Ba6+2 0.335940 0.459610 0.533310 1.654996
C1    C     C_3   0.621295 0.845726 0.265154 -0.395635
C2    C     C_R   0.023178 0.537763 0.727612 0.062076
C3    C     C_R   0.856735 0.430661 0.810319 -0.148995
C4    C     C_3   0.134046 0.729888 0.275959 0.358946
C5    C     C_R   0.789053 0.432224 0.742538 -0.010726
C6    C     C_R   0.332188 0.574718 0.193099 -0.178595
C7    C     C_R   0.404709 0.565572 0.257924 0.005282
C8    C     C_R   0.125185 0.446348 0.197720 -0.138402
C9    C     C_R   0.166548 0.463015 0.272643 0.071220
C10   C     C_R   0.987848 0.500245 0.846221 0.009131
C11   C     C_R   0.883248 0.476279 0.698425 -0.234312
C12   C     C_3   0.651013 0.774810 0.307756 0.350393
C13   C     C_R   0.198180 0.508276 0.156262 0.005232
C14   C     C_R   0.313168 0.518263 0.300933 -0.248869
C15   C     C_R   0.755988 0.461043 0.954679 -0.085463
C16   C     C_3   0.101839 0.755254 0.204289 -0.372965
C17   C     C_R   0.647521 0.412768 0.992061 -0.059266
C18   C     C_R   0.693791 0.409957 0.061556 -0.046171
C19   C     C_R   0.849675 0.452114 0.091068 -0.086643
C20   C     C_R   0.975343 0.478919 0.048065 0.023542
C21   C     C_R   0.926486 0.482158 0.975480 0.042980
C22   C     C_R   0.143111 0.504029 0.076263 0.003125
C23   C     C_3   0.459709 0.314474 0.312938 0.224472
C24   C     C_R   0.259218 0.530612 0.027618 0.030091
C25   C     C_R   0.211281 0.537180 0.955698 -0.037208
C26   C     C_R   0.043148 0.508658 0.926666 0.001905
C27   C     C_R   0.428495 0.549508 0.048644 -0.148942
C28   C     C_3   0.252149 0.744934 0.629577 0.313266
C29   C     C_R   0.537106 0.603331 0.015800 -0.143445
C30   C     C_R   0.488858 0.620445 0.950051 0.430070
C31   C     C_R   0.338132 0.573007 0.915980 -0.100341
C32   C     C_R   0.849152 0.174942 0.553435 -0.029006
C33   C     C_R   0.778433 0.082296 0.549939 -0.021161
C34   C     C_3   0.427413 0.287447 0.231208 -0.228541
C35   C     C_R   0.643563 0.892810 0.533500 -0.039746
C36   C     C_R   0.790675 0.932113 0.575612 -0.036217
C37   C     C_R   0.858630 0.024169 0.582279 -0.092807
C38   C     C_R   0.579124 0.797511 0.521621 0.023763
C39   C     C_R   0.431428 0.762970 0.479699 -0.283963
C40   C     C_3   0.227844 0.844160 0.637955 -0.385609
C41   C     C_R   0.613738 0.193670 0.479583 0.034816
C42   C     C_R   0.546324 0.100561 0.472508 0.022368
C43   C     C_R   0.626154 0.045162 0.509330 0.042999
C44   C     C_R   0.405737 0.060139 0.426624 -0.035444
C45   C     C_3   0.036775 0.241759 0.727482 0.297386
C46   C     C_R   0.342456 0.967986 0.418164 -0.124266
C47   C     C_R   0.413207 0.912736 0.456506 -0.031335
C48   C     C_R   0.559990 0.950370 0.500546 0.009836
C49   C     C_R   0.344091 0.820018 0.450015 -0.008285
C50   C     C_R   0.761967 0.229729 0.520735 -0.256192
C51   C     C_3   0.905615 0.249372 0.351835 0.283179
C52   C     C_3   0.824090 0.155889 0.306543 0.200688
C53   C     C_3   0.724894 0.665224 0.681537 0.286814
C54   C     C_3   0.750113 0.690215 0.762746 -0.377628
C55   C     C_3   0.936443 0.043395 0.345433 0.226631
C56   C     C_3   0.144789 0.305933 0.790483 -0.267759
C57   C     C_3   0.925692 0.986950 0.401688 -0.314394
C58   C     C_2   0.577085 0.261557 0.195490 0.495493
C59   C     C_2   0.952592 0.161544 0.754193 0.464956
C60   C     C_3   0.551976 0.016245 0.768115 0.267024
C61   C     C_3   0.629259 0.932253 0.738916 -0.266557
C62   C     C_3   0.662974 0.758938 0.964778 0.264860
C63   C     C_3   0.703100 0.836713 0.926094 -0.344179
C64   C     C_3   0.534672 0.226132 0.705708 0.355362
C65   C     C_3   0.480283 0.148220 0.743182 0.291306
C66   C     C_R   0.058666 0.560077 0.803027 -0.146061
H1    H     H_    0.743337 0.806221 0.353301 0.078954
H2    H     H_    0.614827 0.611311 0.666679 0.095759
H3    H     H_    0.585233 0.906352 0.301250 0.113774
H4    H     H_    0.866871 0.738812 0.779549 0.107027
H5    H     H_    0.754735 0.627996 0.784114 0.108935
H6    H     H_    0.645330 0.722104 0.784917 0.159111
H7    H     H_    0.533896 0.753718 0.330946 -0.076767
H8    H     H_    0.520895 0.815576 0.222426 0.104402
H9    H     H_    0.350065 0.339900 0.336025 0.039305
H10   H     H_    0.566586 0.370916 0.326743 0.054536
H11   H     H_    0.322376 0.229858 0.216310 0.133668
H12   H     H_    0.263635 0.882489 0.693867 0.118492
H13   H     H_    0.394065 0.346672 0.211545 -0.014389
H14   H     H_    0.734258 0.867624 0.239619 0.129297
H15   H     H_    0.150907 0.708321 0.160435 0.070020
H16   H     H_    0.943538 0.279796 0.710187 -0.055884
H17   H     H_    0.202964 0.368636 0.774023 0.150748
H18   H     H_    0.071775 0.326626 0.836816 0.083806
H19   H     H_    0.239327 0.270427 0.810153 0.113476
H20   H     H_    0.670545 0.240346 0.709940 -0.042456
H21   H     H_    0.488780 0.205293 0.648057 0.037280
H22   H     H_    0.345927 0.124528 0.731215 0.034879
H23   H     H_    0.302335 0.877571 0.600918 0.071851
H24   H     H_    0.074224 0.657832 0.272192 0.071623
H25   H     H_    0.505397 0.176699 0.802255 0.039500
H26   H     H_    0.138377 0.623992 0.826286 0.062442
H27   H     H_    0.799891 0.377026 0.834940 0.093431
H28   H     H_    0.389520 0.630085 0.170375 0.075905
H29   H     H_    0.036294 0.386296 0.173625 0.062597
H30   H     H_    0.839817 0.468978 0.642945 0.059183
H31   H     H_    0.360884 0.519918 0.354881 0.064810
H32   H     H_    0.701937 0.482651 0.910205 0.092491
H33   H     H_    0.521228 0.388643 0.970898 0.079660
H34   H     H_    0.096945 0.846712 0.625967 0.133004
H35   H     H_    0.603603 0.383794 0.094831 0.069856
H36   H     H_    0.268686 0.736743 0.286737 -0.062751
H37   H     H_    0.866012 0.464885 0.147848 0.121866
H38   H     H_    0.480280 0.524562 0.091641 0.101627
H39   H     H_    0.661883 0.626155 0.039295 0.077377
H40   H     H_    0.327586 0.566281 0.859270 0.123851
H41   H     H_    0.856298 0.892072 0.603372 0.088147
H42   H     H_    0.976919 0.048470 0.611555 0.071208
H43   H     H_    0.243080 0.939579 0.378033 0.084815
H44   H     H_    0.345214 0.098162 0.394759 0.088904
H45   H     H_    0.809540 0.290810 0.369718 -0.011263
H46   H     H_    0.379435 0.691312 0.473152 0.067000
H47   H     H_    0.967968 0.750018 0.191759 0.153848
H48   H     H_    0.815015 0.300525 0.523671 0.057847
H49   H     H_    0.162621 0.826702 0.206658 0.108161
H50   H     H_    0.384907 0.742090 0.632635 -0.000141
H51   H     H_    0.194440 0.706664 0.575973 0.057096
H52   H     H_    0.056322 0.090831 0.355316 0.042389
H53   H     H_    0.931643 0.996797 0.291473 0.053739
H54   H     H_    0.796318 0.962356 0.409159 0.126825
H55   H     H_    0.980973 0.926128 0.383125 0.132757
H56   H     H_    0.976568 0.241426 0.400160 0.043196
H57   H     H_    0.991987 0.027078 0.452826 0.119804
H58   H     H_    0.690936 0.310199 0.204536 0.002386
H59   H     H_    0.979524 0.093146 0.734007 -0.009188
H60   H     H_    0.421476 0.993681 0.777140 -0.000437
H61   H     H_    0.618058 0.051872 0.820880 0.099855
H62   H     H_    0.762929 0.952634 0.735201 0.116473
H63   H     H_    0.610956 0.883742 0.775065 0.064794
H64   H     H_    0.571204 0.897393 0.684804 0.117909
H65   H     H_    0.779045 0.748369 0.990889 0.047398
H66   H     H_    0.579670 0.782250 0.007141 0.029251
H67   H     H_    0.702232 0.161147 0.283607 0.112364
H68   H     H_    0.592846 0.842847 0.893437 0.119739
H69   H     H_    0.742492 0.902410 0.966107 0.085389
H70   H     H_    0.805259 0.824561 0.891328 0.111330
H71   H     H_    0.893467 0.133825 0.258468 0.055720
H72   H     H_    0.833147 0.638337 0.658903 0.013220
O1    O     O_2   0.873950 0.434950 0.324050 -0.480887
O2    O     O_2   0.181572 0.181346 0.536330 -0.476321
O3    O     O_3   0.136876 0.210412 0.672263 -0.617789
O4    O     O_3   0.122400 0.443310 0.412980 -0.478633
O5    O     O_3   0.579970 0.613770 0.540070 -0.499366
O6    O     O_2   0.337870 0.272490 0.457870 -0.445504
O7    O     O_3   0.488956 0.237991 0.339422 -0.654142
O8    O     O_2   0.479917 0.479432 0.756356 -0.484479
O9    O     O_3   0.468393 0.302717 0.740209 -0.625830
O10   O     O_3   0.662890 0.605900 0.373340 -0.463982
O11   O     O_2   0.721237 0.525759 0.244029 -0.508905
O12   O     O_3   0.703838 0.743960 0.657051 -0.647705
O13   O     O_3   0.013954 0.289464 0.309125 -0.674891
O14   O     O_3   0.711696 0.702617 0.262597 -0.585730
O15   O     O_2   0.851830 0.727540 0.542170 -0.453036
O16   O     O_3   0.085020 0.656200 0.410840 -0.476303
O17   O     O_2   0.010708 0.818080 0.465019 -0.486920
O18   O     O_3   0.802096 0.091018 0.349573 -0.673338
O19   O     O_2   0.571703 0.186171 0.155702 -0.581026
O20   O     O_2   0.859187 0.173611 0.801956 -0.613088
O21   O     O_3   0.565018 0.074370 0.718939 -0.651672
O22   O     O_3   0.590140 0.676823 0.915351 -0.650000
O23   O     O_3   0.067790 0.789364 0.329610 -0.608926
O24   O     O_2   0.315750 0.565080 0.676000 -0.466486
O25   O     O_3   0.067310 0.556770 0.587020 -0.494704
O26   O     O_3   0.526830 0.394180 0.626670 -0.464185
O27   O     O_3   0.182571 0.711473 0.686461 -0.633487
O28   O     O_3   0.609740 0.386310 0.459940 -0.488933
O29   O     O_3   0.104690 0.343880 0.589170 -0.458323
P1    P     P_3+3 0.041310 0.408750 0.334260 0.967714
P2    P     P_3+3 0.676060 0.715830 0.563200 0.960778
P3    P     P_3+3 0.129650 0.772622 0.413874 0.933276
P4    P     P_3+3 0.148400 0.591330 0.665750 0.979849
P5    P     P_3+3 0.064353 0.226404 0.588708 0.961414
P6    P     P_3+3 0.624821 0.599290 0.282552 0.955808
P7    P     P_3+3 0.516980 0.270555 0.433327 0.940860
P8    P     P_3+3 0.568027 0.401528 0.717585 0.941593

loop_
_geom_bond_atom_site_label_1
_geom_bond_atom_site_label_2
_ccdc_geom_bond_type
C53   C54   S    
O5    P2    S    
C51   O13   S    
O8    P8    D    
C44   H44   S    
Ba1   O16   S    
Ba2   O4    S    
Ba1   O5    S    
C17   C18   A    
C6    H28   S    
C58   O19   D    
C39   H46   S    
C55   O18   S    
C56   H19   S    
C53   O12   S    
O2    P5    D    
C18   H35   S    
C51   C52   S    
C25   C31   A    
Ba2   O5    S    
C40   H12   S    
C10   C66   A    
C24   C25   A    
C35   C36   A    
O14   P6    S    
C10   C26   S    
C23   H9    S    
C49   P3    S    
C7    C14   A    
C22   C24   A    
C28   O27   S    
Ba1   Ba2   S    
C35   C38   A    
C8    C13   A    
Ba2   P4    S    
C64   H20   S    
C36   C37   A    
C4    H24   S    
C41   C50   A    
C55   C57   S    
C60   O21   S    
C28   H51   S    
C52   H67   S    
C34   H11   S    
O25   P4    S    
C40   H34   S    
Ba1   P1    S    
C2    C11   A    
C5    P8    S    
C32   C33   A    
C41   P7    S    
C61   H62   S    
C11   H30   S    
Ba1   O15   S    
C37   H42   S    
C29   C30   A    
C42   C44   A    
C6    C7    A    
C47   C49   A    
C30   O22   S    
O13   P1    S    
O29   P5    S    
C61   H63   S    
Ba2   O26   S    
O27   P4    S    
C63   H69   S    
C57   H54   S    
O10   P6    S    
C19   C20   A    
C12   O14   S    
C60   H61   S    
C31   H40   S    
C56   H18   S    
C3    H27   S    
C51   H45   S    
C64   H21   S    
C44   C46   A    
C50   H48   S    
C57   H55   S    
C4    C16   S    
C62   H66   S    
C54   H6    S    
C23   H10   S    
C63   H68   S    
O24   P4    D    
O11   P6    D    
C64   O9    S    
C62   O22   S    
C59   O20   D    
Ba2   O24   S    
C3    C5    A    
O12   P2    S    
O7    P7    S    
C28   H50   S    
Ba1   O28   S    
C54   H4    S    
C61   H64   S    
O16   P3    S    
C65   H22   S    
C66   H26   S    
C53   H72   S    
O6    P7    D    
C8    H29   S    
C1    H3    S    
C41   C42   A    
C60   C61   S    
C32   P5    S    
C52   O18   S    
C9    C14   A    
C65   O21   S    
C52   H71   S    
Ba2   O25   S    
Ba1   O25   S    
C34   H13   S    
C1    H14   S    
O9    P8    S    
C16   H15   S    
Ba1   O10   S    
C23   O7    S    
O26   P8    S    
C15   C21   A    
C45   H16   S    
C4    O23   S    
C36   H41   S    
O23   P3    S    
C16   H49   S    
C1    C12   S    
C3    C10   A    
C55   H52   S    
C63   H70   S    
C13   C22   S    
C6    C13   A    
C4    H36   S    
C2    P4    S    
C12   H1    S    
C20   C22   A    
C27   H38   S    
C21   C26   A    
C33   C43   A    
C56   H17   S    
Ba2   O28   S    
C25   C26   A    
O4    P1    S    
C42   C43   A    
C2    C66   A    
O28   P7    S    
C62   H65   S    
C38   C39   A    
C54   H5    S    
C29   H39   S    
C45   O3    S    
C34   C58   S    
C51   H56   S    
C16   H47   S    
C45   C59   S    
C14   H31   S    
C59   H59   S    
Ba2   O6    S    
C32   C50   A    
C62   C63   S    
C58   H58   S    
C9    P1    S    
O17   P3    D    
Ba1   O4    S    
C57   H57   S    
C30   C31   A    
C45   C56   S    
C60   H60   S    
C35   C48   A    
C17   H33   S    
C43   C48   A    
C46   C47   A    
C33   C37   A    
O1    P1    D    
C15   C17   A    
Ba1   P2    S    
C7    P6    S    
C15   H32   S    
C53   H2    S    
Ba1   O1    S    
C8    C9    A    
C23   C34   S    
C55   H53   S    
O15   P2    D    
C5    C11   A    
C46   H43   S    
C18   C19   A    
C24   C27   A    
C27   C29   A    
C47   C48   A    
C64   C65   S    
C65   H25   S    
C1    H8    S    
C20   C21   A    
C28   C40   S    
O3    P5    S    
C39   C49   A    
C38   P2    S    
C19   H37   S    
C40   H23   S    
C12   H7    S    
Ba2   O29   S    
