data_mof_unit_27572.cif
_audit_creation_date              2012-12-10T16:33:53-0500
_audit_creation_method            fapswitch 2.2
_symmetry_space_group_name_H-M    P1
_symmetry_Int_Tables_number       1
_space_group_crystal_system       triclinic
_cell_length_a                    28.189952
_cell_length_b                    18.462798
_cell_length_c                    16.965133
_cell_angle_alpha                 90.000048
_cell_angle_beta                  60.769226
_cell_angle_gamma                 89.999961
_cell_volume                      7705.38161293

loop_
_atom_site_label
_atom_site_type_symbol
_atom_type_description
_atom_site_fract_x
_atom_site_fract_y
_atom_site_fract_z
_atom_type_partial_charge
C1    C     C_R   0.702415 0.270310 0.675883 0.910750
C2    C     C_R   0.297521 0.729562 0.324159 0.888780
C3    C     C_R   0.297588 0.270308 0.324109 0.930138
C4    C     C_R   0.702403 0.729707 0.675894 0.912306
C5    C     C_R   0.202412 0.770308 0.675891 0.930145
C6    C     C_R   0.797596 0.229706 0.324107 0.912322
C7    C     C_R   0.797585 0.770310 0.324118 0.910747
C8    C     C_R   0.202479 0.229562 0.675841 0.888783
C9    C     C_R   0.039632 0.373131 0.519987 -0.201791
C10   C     C_R   0.978971 0.627979 0.410454 -0.195840
C11   C     C_R   0.969755 0.367822 0.437146 -0.195444
C12   C     C_R   0.083165 0.620188 0.412386 -0.201735
C13   C     C_R   0.530245 0.867822 0.562853 -0.195398
C14   C     C_R   0.416835 0.120188 0.587613 -0.201754
C15   C     C_R   0.460368 0.873131 0.480012 -0.201782
C16   C     C_R   0.521029 0.127980 0.589544 -0.195644
C17   C     C_R   0.719106 0.262983 0.955911 0.167540
C18   C     C_R   0.280677 0.736589 0.044290 0.152143
C19   C     C_R   0.281413 0.262314 0.043555 0.168930
C20   C     C_R   0.718802 0.737352 0.956210 0.152940
C21   C     C_R   0.218583 0.762311 0.956450 0.169011
C22   C     C_R   0.781190 0.237341 0.043798 0.153187
C23   C     C_R   0.780886 0.762993 0.044098 0.167359
C24   C     C_R   0.219321 0.236591 0.955711 0.152124
C25   C     C_R   0.739096 0.193430 0.956383 -0.125756
C26   C     C_R   0.260624 0.806122 0.043979 -0.140147
C27   C     C_R   0.261362 0.192768 0.043241 -0.125378
C28   C     C_R   0.738746 0.806914 0.956753 -0.138957
C29   C     C_R   0.238640 0.692767 0.956754 -0.125432
C30   C     C_R   0.761243 0.306902 0.043261 -0.138723
C31   C     C_R   0.760899 0.693439 0.043621 -0.125432
C32   C     C_R   0.239368 0.306127 0.956032 -0.140297
C33   C     C_R   0.769368 0.180646 0.000533 -0.085199
C34   C     C_R   0.230348 0.818947 0.999857 -0.087102
C35   C     C_R   0.231081 0.179942 0.999109 -0.088473
C36   C     C_R   0.769016 0.819699 0.000905 -0.086854
C37   C     C_R   0.268921 0.679941 0.000885 -0.088467
C38   C     C_R   0.730972 0.319687 0.999109 -0.086661
C39   C     C_R   0.730627 0.680657 0.999471 -0.084476
C40   C     C_R   0.269643 0.318952 0.000158 -0.087384
C41   C     C_R   0.634409 0.310866 0.956415 0.429775
C42   C     C_R   0.365524 0.689027 0.043657 0.436704
C43   C     C_R   0.365958 0.310379 0.043359 0.434095
C44   C     C_R   0.634128 0.689463 0.956577 0.434987
C45   C     C_R   0.134039 0.810375 0.956642 0.434114
C46   C     C_R   0.865868 0.189459 0.043425 0.434967
C47   C     C_R   0.865585 0.810872 0.043588 0.429714
C48   C     C_R   0.134475 0.189028 0.956344 0.436737
C49   C     C_R   0.611356 0.339532 0.904349 -0.185859
C50   C     C_R   0.388579 0.660381 0.095719 -0.184208
C51   C     C_R   0.388797 0.339371 0.095574 -0.187255
C52   C     C_R   0.611237 0.660596 0.904391 -0.182252
C53   C     C_R   0.111202 0.839371 0.904426 -0.187230
C54   C     C_R   0.888764 0.160596 0.095609 -0.182295
C55   C     C_R   0.888642 0.839534 0.095651 -0.185838
C56   C     C_R   0.111421 0.160381 0.904281 -0.184229
C57   C     C_R   0.632075 0.321020 0.815074 -0.284279
C58   C     C_R   0.367822 0.678813 0.185013 -0.285243
C59   C     C_R   0.367933 0.321079 0.184950 -0.279682
C60   C     C_R   0.632027 0.679014 0.815070 -0.286571
C61   C     C_R   0.132067 0.821080 0.815049 -0.279688
C62   C     C_R   0.867974 0.179015 0.184928 -0.286554
C63   C     C_R   0.867925 0.821019 0.184925 -0.284264
C64   C     C_R   0.132178 0.178813 0.814986 -0.285248
C65   C     C_R   0.679520 0.282526 0.771925 -0.054440
C66   C     C_R   0.320314 0.717152 0.228201 -0.047241
C67   C     C_R   0.320548 0.282451 0.228017 -0.059730
C68   C     C_R   0.679449 0.717565 0.771974 -0.054833
C69   C     C_R   0.179452 0.782451 0.771983 -0.059715
C70   C     C_R   0.820550 0.217562 0.228027 -0.054856
C71   C     C_R   0.820479 0.782527 0.228076 -0.054499
C72   C     C_R   0.179686 0.217153 0.771799 -0.047228
C73   C     C_R   0.707516 0.261853 0.818550 -0.261917
C74   C     C_R   0.292213 0.737578 0.181672 -0.270575
C75   C     C_R   0.292710 0.261521 0.181216 -0.263606
C76   C     C_R   0.707357 0.738357 0.818706 -0.259603
C77   C     C_R   0.207289 0.761520 0.818785 -0.263641
C78   C     C_R   0.792639 0.238348 0.181298 -0.259557
C79   C     C_R   0.792480 0.761859 0.181453 -0.261810
C80   C     C_R   0.207786 0.237580 0.818329 -0.270625
C81   C     C_R   0.685811 0.277028 0.910777 -0.051319
C82   C     C_R   0.313981 0.722548 0.089400 -0.057212
C83   C     C_R   0.314573 0.276486 0.088890 -0.051261
C84   C     C_R   0.685561 0.723280 0.910985 -0.059394
C85   C     C_R   0.185425 0.776483 0.911112 -0.051315
C86   C     C_R   0.814433 0.223270 0.089020 -0.059373
C87   C     C_R   0.814183 0.777036 0.089228 -0.051295
C88   C     C_R   0.186018 0.222550 0.910601 -0.057195
C89   C     C_R   0.691027 0.129436 0.535885 0.895955
C90   C     C_R   0.308403 0.870980 0.467259 0.898864
C91   C     C_R   0.303113 0.127949 0.483367 0.907096
C92   C     C_R   0.691370 0.870589 0.535033 0.900257
C93   C     C_R   0.196887 0.627949 0.516633 0.907098
C94   C     C_R   0.808630 0.370589 0.464967 0.900266
C95   C     C_R   0.808973 0.629436 0.464115 0.895946
C96   C     C_R   0.191597 0.370980 0.532741 0.898863
C97   C     C_R   0.070856 0.103556 0.937277 0.941379
C98   C     C_R   0.929157 0.896431 0.062707 0.939670
C99   C     C_R   0.929200 0.103604 0.062682 0.942097
C100  C     C_R   0.070770 0.896367 0.937352 0.939545
C101  C     C_R   0.570801 0.603603 0.937318 0.942298
C102  C     C_R   0.429230 0.396367 0.062648 0.939632
C103  C     C_R   0.429144 0.603556 0.062722 0.941530
C104  C     C_R   0.570842 0.396430 0.937293 0.939806
C105  C     C_R   0.529127 0.998587 0.564180 0.025883
C106  C     C_R   0.440547 0.997781 0.530690 0.025018
C107  C     C_R   0.059453 0.497781 0.469309 0.025025
C108  C     C_R   0.970873 0.498586 0.435818 0.025892
C109  C     C_R   0.500503 0.063522 0.573021 0.048398
C110  C     C_R   0.469824 0.933457 0.521139 0.046148
C111  C     C_R   0.452900 0.061443 0.564014 0.053581
C112  C     C_R   0.509847 0.932594 0.548278 0.047945
C113  C     C_R   0.047101 0.561443 0.435985 0.053555
C114  C     C_R   0.990153 0.432594 0.451721 0.047944
C115  C     C_R   0.999497 0.563522 0.426977 0.048443
C116  C     C_R   0.030176 0.433457 0.478860 0.046155
C117  C     C_R   0.603387 0.933279 0.568786 0.062220
C118  C     C_R   0.367006 0.060958 0.521517 0.061773
C119  C     C_R   0.386294 0.935509 0.473085 0.071407
C120  C     C_R   0.601920 0.065380 0.572888 0.066797
C121  C     C_R   0.113706 0.435509 0.526915 0.071408
C122  C     C_R   0.898080 0.565380 0.427111 0.066836
C123  C     C_R   0.896613 0.433279 0.431213 0.062218
C124  C     C_R   0.132994 0.560958 0.478483 0.061759
C125  C     C_R   0.656722 0.934693 0.558420 -0.121843
C126  C     C_R   0.329306 0.062472 0.488220 -0.113893
C127  C     C_R   0.339898 0.935906 0.459739 -0.124102
C128  C     C_R   0.656156 0.064948 0.559628 -0.123969
C129  C     C_R   0.160102 0.435906 0.540261 -0.124102
C130  C     C_R   0.843844 0.564948 0.440372 -0.123981
C131  C     C_R   0.843278 0.434693 0.441579 -0.121848
C132  C     C_R   0.170694 0.562472 0.511780 -0.113886
C133  C     C_R   0.681145 0.999922 0.556737 -0.286726
C134  C     C_R   0.316166 0.000283 0.458590 -0.290075
C135  C     C_R   0.183834 0.500283 0.541410 -0.290072
C136  C     C_R   0.818855 0.499922 0.443263 -0.286724
C137  C     C_R   0.577963 0.999174 0.569408 0.078752
C138  C     C_R   0.398294 0.998236 0.507768 0.074442
C139  C     C_R   0.101706 0.498235 0.492231 0.074453
C140  C     C_R   0.922037 0.499174 0.430591 0.078744
C141  C     C_R   0.079470 0.374926 0.545817 -0.148401
C142  C     C_R   0.929570 0.628764 0.410085 -0.160813
C143  C     C_R   0.925916 0.368717 0.421381 -0.150511
C144  C     C_R   0.126246 0.618855 0.430420 -0.174771
C145  C     C_R   0.574084 0.868717 0.578619 -0.150483
C146  C     C_R   0.373754 0.118855 0.569580 -0.174824
C147  C     C_R   0.420530 0.874926 0.454182 -0.148410
C148  C     C_R   0.570431 0.128764 0.589914 -0.160748
H1    H     H_    0.722232 0.000076 0.546483 0.199780
H2    H     H_    0.284437 0.001025 0.439900 0.195697
H3    H     H_    0.215563 0.501025 0.560100 0.195691
H4    H     H_    0.777768 0.500076 0.453518 0.199790
H5    H     H_    0.081716 0.328903 0.583192 0.182862
H6    H     H_    0.917638 0.679715 0.393928 0.183666
H7    H     H_    0.916108 0.317932 0.401409 0.186498
H8    H     H_    0.154501 0.663455 0.404042 0.175120
H9    H     H_    0.583892 0.817932 0.598591 0.186497
H10   H     H_    0.345499 0.163455 0.595959 0.175107
H11   H     H_    0.418284 0.828903 0.416807 0.182854
H12   H     H_    0.582363 0.179715 0.606070 0.183683
H13   H     H_    0.014673 0.325032 0.536674 0.153935
H14   H     H_    0.999171 0.679423 0.401237 0.147015
H15   H     H_    0.988678 0.316199 0.434314 0.153504
H16   H     H_    0.080015 0.666981 0.377084 0.144053
H17   H     H_    0.511323 0.816200 0.565685 0.153509
H18   H     H_    0.419985 0.166981 0.622915 0.144019
H19   H     H_    0.485327 0.825032 0.463325 0.153971
H20   H     H_    0.500830 0.179423 0.598760 0.147041
H21   H     H_    0.716878 0.374101 0.998349 0.156709
H22   H     H_    0.283124 0.625559 0.001450 0.164423
H23   H     H_    0.283776 0.373363 0.000806 0.156289
H24   H     H_    0.716509 0.626255 0.998733 0.164785
H25   H     H_    0.216209 0.873356 0.999216 0.156221
H26   H     H_    0.783487 0.126246 0.001267 0.164727
H27   H     H_    0.783108 0.874113 0.001670 0.156760
H28   H     H_    0.216883 0.125559 0.998536 0.164424
H29   H     H_    0.730501 0.148807 0.923848 0.143724
H30   H     H_    0.269168 0.850706 0.076633 0.146008
H31   H     H_    0.269881 0.148196 0.075940 0.143894
H32   H     H_    0.730146 0.851536 0.924223 0.145799
H33   H     H_    0.230125 0.648196 0.924048 0.143875
H34   H     H_    0.769841 0.351523 0.075795 0.145763
H35   H     H_    0.769497 0.648815 0.076151 0.143758
H36   H     H_    0.230820 0.350712 0.923386 0.146040
H37   H     H_    0.612765 0.340454 0.777280 0.205577
H38   H     H_    0.387180 0.659467 0.222771 0.205965
H39   H     H_    0.387094 0.340765 0.222868 0.207396
H40   H     H_    0.612801 0.659444 0.777204 0.205087
H41   H     H_    0.112907 0.840768 0.777130 0.207401
H42   H     H_    0.887202 0.159450 0.222793 0.205095
H43   H     H_    0.887237 0.840450 0.222717 0.205577
H44   H     H_    0.112821 0.159466 0.777229 0.206011
H45   H     H_    0.746864 0.235699 0.782868 0.183040
H46   H     H_    0.252776 0.763501 0.217436 0.178430
H47   H     H_    0.253378 0.235318 0.216822 0.183076
H48   H     H_    0.746704 0.764517 0.783071 0.182562
H49   H     H_    0.246621 0.735317 0.783179 0.183069
H50   H     H_    0.753290 0.264504 0.216936 0.182594
H51   H     H_    0.753132 0.735706 0.217137 0.183146
H52   H     H_    0.247222 0.263504 0.782566 0.178382
O1    O     O_R   0.746490 0.236330 0.638080 -0.631625
O2    O     O_R   0.253510 0.763670 0.361920 -0.649509
O3    O     O_R   0.253510 0.236330 0.361920 -0.629926
O4    O     O_R   0.746490 0.763670 0.638080 -0.631524
O5    O     O_R   0.246490 0.736330 0.638080 -0.629933
O6    O     O_R   0.753510 0.263670 0.361920 -0.631506
O7    O     O_R   0.753510 0.736330 0.361920 -0.631574
O8    O     O_R   0.246490 0.263670 0.638080 -0.649527
O9    O     O_R   0.674170 0.186160 0.516270 -0.637451
O10   O     O_R   0.325830 0.813840 0.483730 -0.638701
O11   O     O_R   0.325830 0.186160 0.483730 -0.633224
O12   O     O_R   0.674170 0.813840 0.516270 -0.640588
O13   O     O_R   0.174170 0.686160 0.516270 -0.633204
O14   O     O_R   0.825830 0.313840 0.483730 -0.640609
O15   O     O_R   0.825830 0.686160 0.483730 -0.637454
O16   O     O_R   0.174170 0.313840 0.516270 -0.638692
O17   O     O_R   0.739960 0.127620 0.525000 -0.624520
O18   O     O_R   0.260040 0.872380 0.475000 -0.621113
O19   O     O_R   0.260040 0.127620 0.475000 -0.628726
O20   O     O_R   0.739960 0.872380 0.525000 -0.625690
O21   O     O_R   0.239960 0.627620 0.525000 -0.628740
O22   O     O_R   0.760040 0.372380 0.475000 -0.625677
O23   O     O_R   0.760040 0.627620 0.475000 -0.624505
O24   O     O_R   0.239960 0.372380 0.525000 -0.621124
O25   O     O_R   0.680700 0.294870 0.629350 -0.631471
O26   O     O_R   0.319300 0.705130 0.370650 -0.631813
O27   O     O_R   0.319300 0.294870 0.370650 -0.617684
O28   O     O_R   0.680700 0.705130 0.629350 -0.631244
O29   O     O_R   0.180700 0.794870 0.629350 -0.617665
O30   O     O_R   0.819300 0.205130 0.370650 -0.631247
O31   O     O_R   0.819300 0.794870 0.370650 -0.631486
O32   O     O_R   0.180700 0.205130 0.629350 -0.631778
O33   O     O_R   0.062020 0.072840 0.007170 -0.549672
O34   O     O_R   0.937980 0.927160 0.992830 -0.552296
O35   O     O_R   0.937980 0.072840 0.992830 -0.548879
O36   O     O_R   0.062020 0.927160 0.007170 -0.552539
O37   O     O_R   0.562020 0.572840 0.007170 -0.549427
O38   O     O_R   0.437980 0.427160 0.992830 -0.552501
O39   O     O_R   0.437980 0.572840 0.992830 -0.549610
O40   O     O_R   0.562020 0.427160 0.007170 -0.552358
O41   O     O_R   0.947860 0.073950 0.109290 -0.627253
O42   O     O_R   0.052140 0.926050 0.890710 -0.623065
O43   O     O_R   0.052140 0.073950 0.890710 -0.626818
O44   O     O_R   0.947860 0.926050 0.109290 -0.623363
O45   O     O_R   0.447860 0.573950 0.109290 -0.626969
O46   O     O_R   0.552140 0.426050 0.890710 -0.623342
O47   O     O_R   0.552140 0.573950 0.890710 -0.627176
O48   O     O_R   0.447860 0.426050 0.109290 -0.623057
Zn1   Zn    Zn3+2 0.792340 0.208750 0.507670 0.966288
Zn2   Zn    Zn3+2 0.207660 0.791250 0.492330 0.971108
Zn3   Zn    Zn3+2 0.207660 0.208750 0.492330 0.969315
Zn4   Zn    Zn3+2 0.792340 0.791250 0.507670 0.969143
Zn5   Zn    Zn3+2 0.292340 0.708750 0.507670 0.969233
Zn6   Zn    Zn3+2 0.707660 0.291250 0.492330 0.969198
Zn7   Zn    Zn3+2 0.707660 0.708750 0.492330 0.966422
Zn8   Zn    Zn3+2 0.292340 0.291250 0.507670 0.971017
Zn9   Zn    Zn3+2 0.505960 0.500000 0.080520 1.116335
Zn10  Zn    Zn3+2 0.494040 0.500000 0.919480 1.113730
Zn11  Zn    Zn3+2 0.005960 0.000000 0.080520 1.113664
Zn12  Zn    Zn3+2 0.994040 0.000000 0.919480 1.117450
S1    S     S_3+6 0.597159 0.309327 0.076942 0.020454
O49   O     O_2   0.607687 0.378146 0.113240 -0.315248
O50   O     O_2   0.537327 0.302898 0.108727 -0.294088
O51   O     O_3   0.616137 0.238234 0.117144 -0.556864
H53   H     H_    0.597697 0.245518 0.183390 0.384109
S2    S     S_3+6 0.402931 0.690505 0.923089 0.016265
O52   O     O_2   0.385747 0.753566 0.886802 -0.301735
O53   O     O_2   0.462693 0.697392 0.891708 -0.306728
O54   O     O_3   0.391585 0.613115 0.882669 -0.562564
H54   H     H_    0.414246 0.616932 0.816198 0.376852
S3    S     S_3+6 0.403475 0.308488 0.922840 0.014377
O55   O     O_2   0.392956 0.377019 0.886018 -0.316482
O56   O     O_2   0.463267 0.302369 0.891522 -0.302353
O57   O     O_3   0.384804 0.237031 0.882704 -0.561828
H55   H     H_    0.404459 0.243158 0.816210 0.374990
S4    S     S_3+6 0.596649 0.690787 0.077140 0.016833
O58   O     O_2   0.613634 0.753934 0.113600 -0.300889
O59   O     O_2   0.536885 0.697401 0.108411 -0.306057
O60   O     O_3   0.608150 0.613459 0.117477 -0.562012
H56   H     H_    0.585263 0.617043 0.183918 0.377460
S5    S     S_3+6 0.096516 0.808475 0.077160 0.014322
O61   O     O_2   0.107022 0.877000 0.114006 -0.316110
O62   O     O_2   0.036727 0.802347 0.108456 -0.302749
O63   O     O_3   0.115188 0.737018 0.117294 -0.562018
H57   H     H_    0.095217 0.742840 0.183802 0.375143
S6    S     S_3+6 0.903344 0.190785 0.922862 0.016805
O64   O     O_2   0.886354 0.253953 0.886436 -0.301965
O65   O     O_2   0.963113 0.197375 0.891554 -0.305082
O66   O     O_3   0.891828 0.113467 0.882525 -0.561866
H58   H     H_    0.913822 0.117745 0.815966 0.377263
S7    S     S_3+6 0.902830 0.809342 0.923060 0.020528
O67   O     O_2   0.892295 0.878166 0.886780 -0.315362
O68   O     O_2   0.962663 0.802914 0.891257 -0.293813
O69   O     O_3   0.883850 0.738251 0.882857 -0.556812
H59   H     H_    0.902070 0.745728 0.816650 0.384029
S8    S     S_3+6 0.097069 0.190504 0.076911 0.016269
O70   O     O_2   0.114252 0.253564 0.113201 -0.301671
O71   O     O_2   0.037307 0.197388 0.108294 -0.306786
O72   O     O_3   0.108419 0.113113 0.117327 -0.562586
H60   H     H_    0.085721 0.116896 0.183788 0.376875

loop_
_geom_bond_atom_site_label_1
_geom_bond_atom_site_label_2
_ccdc_geom_bond_type
C74   H46   S    
C58   H38   S    
S7    O67   D    
C2    O2    A    
C47   S7    S    
C79   C87   A    
C62   H42   S    
S5    O63   S    
O34   Zn12  S    
O24   Zn8   S    
O63   H57   S    
C89   O17   A    
C13   C112  A    
S3    O55   D    
C62   C70   A    
O57   H55   S    
C148  H12   S    
C107  C113  A    
O40   Zn9   S    
C42   S2    S    
C98   O44   A    
C50   C103  S    
C10   H14   S    
C61   H41   S    
C30   H34   S    
C41   C49   A    
C136  H4    S    
C16   C109  A    
O22   Zn6   S    
C52   C101  S    
C94   O14   A    
C46   S6    S    
O33   Zn11  S    
C121  C129  A    
C20   C28   A    
C27   C35   A    
C21   C29   A    
C23   C31   A    
C24   C32   A    
C145  H9    S    
C102  O48   A    
C28   H32   S    
C91   O11   A    
S8    O70   D    
C44   S4    S    
C105  C112  A    
C63   C71   A    
C120  C148  A    
O20   Zn4   S    
C100  O36   A    
O18   Zn2   S    
C100  O42   A    
C2    O26   A    
C38   H21   S    
C90   O10   A    
C104  O40   A    
S6    O66   S    
C9    C116  A    
C96   O16   A    
C61   C69   A    
C17   C25   A    
C80   C88   A    
S6    O65   D    
C55   C98   S    
C18   C82   S    
O43   Zn12  S    
C126  C134  A    
C36   H27   S    
C23   C36   A    
C78   H50   S    
C118  C138  A    
C11   C143  A    
C40   H23   S    
C96   C129  S    
C113  C115  A    
C43   C83   A    
C124  C139  A    
C69   C77   A    
C127  C134  A    
C13   C145  A    
O11   Zn8   S    
C43   C51   A    
C92   C125  S    
C49   C104  S    
C71   C79   A    
C51   C102  S    
C30   C38   A    
C103  O45   A    
C108  C115  A    
S7    O68   D    
C109  C111  A    
S1    O49   D    
C63   H43   S    
C66   C74   A    
C49   C57   A    
C124  C132  A    
C90   O18   A    
C52   C60   A    
C59   C67   A    
C129  C135  A    
C53   C61   A    
S8    O72   S    
O51   H53   S    
C55   C63   A    
C95   C130  S    
C1    C65   S    
C56   C64   A    
C59   H39   S    
C14   H18   S    
C93   C132  S    
C48   S8    S    
C75   H47   S    
C44   C52   A    
C22   C86   S    
C77   C85   A    
C15   H19   S    
O17   Zn1   S    
C56   C97   S    
C19   C83   S    
C106  C111  A    
O21   Zn5   S    
C101  O37   A    
C7    O7    A    
C131  C136  A    
C4    C68   S    
C89   O9    A    
C95   O23   A    
C47   C87   A    
C144  H8    S    
O10   Zn5   S    
C143  H7    S    
C98   O34   A    
C90   C127  S    
O14   Zn1   S    
C11   H15   S    
O66   H58   S    
C142  H6    S    
C9    H13   S    
C33   H26   S    
C60   C68   A    
S2    O53   D    
C42   C50   A    
O3    Zn3   S    
C104  O46   A    
C6    O30   A    
C54   C99   S    
C92   O12   A    
C67   C75   A    
O5    Zn5   S    
C105  C109  A    
C22   C30   A    
C119  C138  A    
C57   H37   S    
C2    C66   S    
S2    O54   S    
S1    O51   S    
C114  C116  A    
O27   Zn8   S    
C146  H10   S    
S5    O62   D    
O1    Zn1   S    
C121  C139  A    
O12   Zn7   S    
C20   C84   S    
C122  C140  A    
C72   C80   A    
C141  H5    S    
C3    C67   S    
O16   Zn3   S    
C17   C38   A    
C107  C139  A    
C110  C112  A    
C107  C116  A    
C6    O6    A    
C19   C40   A    
C105  C137  A    
S4    O58   D    
C60   H40   S    
C94   O22   A    
C117  C125  A    
C25   C33   A    
C119  C127  A    
S3    O57   S    
C73   H45   S    
C3    O3    A    
C18   C26   A    
C1    O1    A    
C76   C84   A    
C7    O31   A    
C27   H31   S    
O69   H59   S    
C25   H29   S    
C119  C147  A    
C117  C145  A    
C10   C142  A    
C108  C114  A    
C5    C69   S    
C76   H48   S    
C64   H44   S    
O26   Zn5   S    
O60   H56   S    
C48   C88   A    
O30   Zn1   S    
O45   Zn9   S    
S8    O71   D    
O19   Zn3   S    
O54   H54   S    
C15   C110  A    
C74   C82   A    
C5    O5    A    
C53   C100  S    
C21   C85   S    
C8    C72   S    
C79   H51   S    
C93   O13   A    
C50   C58   A    
C121  C141  A    
C20   C39   A    
C21   C34   A    
C54   C62   A    
O72   H60   S    
C39   H24   S    
O9    Zn6   S    
C12   H16   S    
O28   Zn7   S    
C108  C140  A    
C13   H17   S    
S4    O60   S    
C41   C81   A    
C46   C54   A    
O32   Zn3   S    
C24   C88   S    
C73   C81   A    
O37   Zn9   S    
O15   Zn4   S    
C68   C76   A    
C101  O47   A    
C3    O27   A    
O47   Zn10  S    
C1    O25   A    
C6    C70   S    
C123  C131  A    
C57   C65   A    
C44   C84   A    
C120  C128  A    
C94   C131  S    
C41   S1    S    
C34   H25   S    
C15   C147  A    
C75   C83   A    
C135  H3    S    
C17   C81   S    
C4    O28   A    
C106  C138  A    
C28   C36   A    
C103  O39   A    
C29   C37   A    
C120  C137  A    
C77   H49   S    
C89   C128  S    
C134  H2    S    
C91   C126  S    
C70   C78   A    
C95   O15   A    
O39   Zn10  S    
C42   C82   A    
C147  H11   S    
C29   H33   S    
C35   H28   S    
C18   C37   A    
C7    C71   S    
S6    O64   D    
C4    O4    A    
C80   H52   S    
C65   C73   A    
C92   O20   A    
C8    O8    A    
C11   C114  A    
O7    Zn7   S    
C26   C34   A    
O25   Zn6   S    
C96   O24   A    
C19   C27   A    
O29   Zn2   S    
C48   C56   A    
C78   C86   A    
C64   C72   A    
C23   C87   S    
O44   Zn11  S    
O31   Zn4   S    
C58   C66   A    
C26   H30   S    
C14   C111  A    
C102  O38   A    
C24   C35   A    
C45   S5    S    
C118  C146  A    
S7    O69   S    
C133  H1    S    
C37   H22   S    
S1    O50   D    
C9    C141  A    
O35   Zn12  S    
S5    O61   D    
C117  C137  A    
C123  C140  A    
C12   C144  A    
C99   O41   A    
C45   C85   A    
C43   S3    S    
O46   Zn10  S    
C97   O43   A    
C99   O35   A    
C97   O33   A    
O13   Zn2   S    
O2    Zn2   S    
S4    O59   D    
C5    O29   A    
C51   C59   A    
C122  C142  A    
O6    Zn6   S    
C47   C55   A    
C12   C113  A    
C106  C110  A    
C125  C133  A    
S3    O56   D    
C22   C33   A    
O36   Zn11  S    
O41   Zn11  S    
C31   H35   S    
O42   Zn12  S    
C32   H36   S    
C130  C136  A    
O8    Zn8   S    
C14   C146  A    
C16   C148  A    
C128  C133  A    
C8    O32   A    
C16   H20   S    
C132  C135  A    
C31   C39   A    
O38   Zn10  S    
C32   C40   A    
C91   O19   A    
S2    O52   D    
C45   C53   A    
O48   Zn9   S    
O4    Zn4   S    
O23   Zn7   S    
C123  C143  A    
C124  C144  A    
C93   O21   A    
C118  C126  A    
C122  C130  A    
C10   C115  A    
C46   C86   A    
