data_mof_unit_53615.cif
_audit_creation_date              2012-12-10T19:42:55-0500
_audit_creation_method            fapswitch 2.2
_symmetry_space_group_name_H-M    P1
_symmetry_Int_Tables_number       1
_space_group_crystal_system       triclinic
_cell_length_a                    11.125925
_cell_length_b                    13.084648
_cell_length_c                    11.853402
_cell_angle_alpha                 98.991198
_cell_angle_beta                  94.991896
_cell_angle_gamma                 94.497903
_cell_volume                      1690.49428083

loop_
_atom_site_label
_atom_site_type_symbol
_atom_type_description
_atom_site_fract_x
_atom_site_fract_y
_atom_site_fract_z
_atom_type_partial_charge
C1    C     C_R   0.508740 0.300435 0.479866 0.899420
C2    C     C_R   0.491257 0.699564 0.520133 0.899413
C3    C     C_R   0.871884 0.501238 0.501203 -0.149068
C4    C     C_R   0.128115 0.498748 0.498797 -0.149069
C5    C     C_R   0.950319 0.526896 0.604587 -0.125154
C6    C     C_R   0.049679 0.473085 0.395413 -0.125082
C7    C     C_R   0.474752 0.812003 0.529454 -0.202740
C8    C     C_R   0.525237 0.187994 0.470543 -0.202731
C9    C     C_R   0.543624 0.019636 0.356106 0.385560
C10   C     C_R   0.456352 0.980360 0.643884 0.385547
C11   C     C_R   0.546983 0.127934 0.365399 -0.195256
C12   C     C_R   0.453000 0.872064 0.634596 -0.195242
C13   C     C_R   0.520325 0.138678 0.568217 0.431802
C14   C     C_R   0.479658 0.861317 0.431778 0.431803
C15   C     C_R   0.494928 0.030157 0.554008 -0.108997
C16   C     C_R   0.505051 0.969839 0.445984 -0.108971
C17   C     C_R   0.420608 0.376155 0.021967 0.342854
C18   C     C_R   0.579418 0.623841 0.978035 0.342743
C19   C     C_R   0.416574 0.394205 0.141824 0.403938
C20   C     C_R   0.583435 0.605792 0.858174 0.403981
C21   C     C_R   0.540425 0.551954 0.158062 0.625219
C22   C     C_R   0.459582 0.448045 0.841942 0.625248
C23   C     C_R   0.262186 0.498743 0.499146 0.888856
C24   C     C_R   0.737814 0.501253 0.500854 0.888925
C25   C     C_R   0.530251 0.545083 0.034833 -0.201578
C26   C     C_R   0.469765 0.454917 0.965170 -0.201608
C27   C     C_R   0.140473 0.481592 0.095892 0.165878
C28   C     C_R   0.859539 0.518409 0.904114 0.165794
C29   C     C_R   0.128128 0.514475 0.213075 -0.032612
C30   C     C_R   0.871875 0.485522 0.786931 -0.032565
C31   C     C_R   0.093035 0.439402 0.281296 0.050824
C32   C     C_R   0.906964 0.560589 0.718703 0.050843
C33   C     C_R   0.069776 0.332964 0.231715 0.003032
C34   C     C_R   0.930222 0.667028 0.768276 0.002998
C35   C     C_R   0.066056 0.303652 0.110940 0.020740
C36   C     C_R   0.933946 0.696348 0.889051 0.020735
C37   C     C_R   0.104014 0.377931 0.042695 -0.071469
C38   C     C_R   0.896006 0.622071 0.957308 -0.071468
C39   C     C_R   0.923538 0.473822 0.396912 0.339606
C40   C     C_R   0.076460 0.526158 0.603089 0.339562
Cu1   Cu    Cu3+1 0.509250 0.507730 0.615930 1.126127
Cu2   Cu    Cu3+1 0.490750 0.492270 0.384070 1.126087
N1    N     N_R   0.523180 0.519350 0.790130 -0.269565
N2    N     N_R   0.476820 0.480650 0.209870 -0.269570
O1    O     O_R   0.506570 0.354460 0.582000 -0.524834
O2    O     O_R   0.493430 0.645540 0.418000 -0.524847
O3    O     O_R   0.490940 0.341410 0.386200 -0.536068
O4    O     O_R   0.509060 0.658590 0.613800 -0.536052
O5    O     O_R   0.327460 0.506540 0.597900 -0.496268
O6    O     O_R   0.672540 0.493460 0.402100 -0.496277
O7    O     O_R   0.311830 0.493480 0.402100 -0.576709
O8    O     O_R   0.688170 0.506520 0.597900 -0.576654
C41   C     C_2   0.102051 0.351370 0.915232 0.449698
H1    H     H_    0.105528 0.412291 0.863552 0.171492
O9    O     O_2   0.096885 0.262054 0.865240 -0.482366
C42   C     C_2   0.897983 0.648635 0.084778 0.449754
H2    H     H_    0.894309 0.587720 0.136445 0.171688
O10   O     O_2   0.903399 0.737953 0.134796 -0.482583
Cl1   Cl    Cl    0.347656 0.360830 0.754642 -0.412455
Cl2   Cl    Cl    0.652346 0.639167 0.245370 -0.412566
Cl3   Cl    Cl    0.663908 0.701723 0.798762 -0.594088
Cl4   Cl    Cl    0.336096 0.298272 0.201229 -0.594080
Cl5   Cl    Cl    0.381772 0.247167 0.951852 -0.346639
Cl6   Cl    Cl    0.618319 0.752820 0.048155 -0.346814
Cl7   Cl    Cl    0.204921 0.571690 0.015812 -0.605603
Cl8   Cl    Cl    0.795093 0.428306 0.984191 -0.605656
C43   C     C_2   0.146789 0.628454 0.260065 0.502377
H3    H     H_    0.151447 0.685170 0.202745 0.168622
O11   O     O_2   0.157183 0.661753 0.362761 -0.528292
C44   C     C_2   0.853228 0.371542 0.739950 0.502308
H4    H     H_    0.848700 0.314825 0.797282 0.168439
O12   O     O_2   0.842698 0.338246 0.637248 -0.528262
C45   C     C_2   0.048605 0.253769 0.308269 0.521059
H5    H     H_    0.019294 0.275883 0.392807 0.090008
O13   O     O_2   0.069082 0.163489 0.280212 -0.467210
C46   C     C_2   0.951386 0.746215 0.691711 0.521039
H6    H     H_    0.980733 0.724102 0.607190 0.090076
O14   O     O_2   0.930865 0.836484 0.719739 -0.467237
C47   C     C_2   0.018053 0.196616 0.056894 0.606108
H7    H     H_    0.073034 0.147399 0.004648 0.151939
O15   O     O_2   0.916267 0.162546 0.071591 -0.441144
C48   C     C_2   0.981897 0.803403 0.943078 0.606335
H8    H     H_    0.926893 0.852601 0.995321 0.151923
O16   O     O_2   0.083664 0.837510 0.928370 -0.441182
Cl9   Cl    Cl    0.833121 0.434061 0.263228 -0.492649
Cl10  Cl    Cl    0.166875 0.565918 0.736774 -0.492640
Cl11  Cl    Cl    0.418512 0.793412 0.294629 -0.429426
Cl12  Cl    Cl    0.581470 0.206578 0.705369 -0.429319
C49   C     C_2   0.413235 0.824121 0.732146 0.627013
H9    H     H_    0.449796 0.856668 0.819393 0.149017
O17   O     O_2   0.334149 0.752003 0.716280 -0.456642
C50   C     C_2   0.586749 0.175876 0.267850 0.627030
H10   H     H_    0.550179 0.143337 0.180603 0.149024
O18   O     O_2   0.665846 0.247986 0.283715 -0.456624
Cl13  Cl    Cl    0.614116 0.951471 0.243006 -0.374284
Cl14  Cl    Cl    0.385839 0.048524 0.756970 -0.374269

loop_
_geom_bond_atom_site_label_1
_geom_bond_atom_site_label_2
_ccdc_geom_bond_type
C24   O8    A    
C8    C13   A    
C27   C29   A    
C1    C8    S    
Cu1   N1    S    
Cu1   Cu2   S    
C2    C7    S    
C18   Cl6   S    
C41   H1    S    
C2    O2    A    
C17   C26   A    
C35   C37   A    
C9    C16   A    
C46   O14   D    
C14   Cl11  S    
C10   C15   A    
Cu2   O2    S    
C23   O5    A    
C19   Cl4   S    
C15   C16   A    
C42   H2    S    
C45   H5    S    
C40   Cl10  S    
C20   Cl3   S    
C17   C19   A    
C29   C43   S    
C11   C50   S    
C7    C14   A    
C4    C40   A    
C36   C48   S    
C31   C33   A    
C44   H4    S    
C28   C38   A    
C49   O17   D    
C9    Cl13  S    
Cu1   O8    S    
C18   C20   A    
Cu2   O7    S    
C5    C32   S    
C37   C41   S    
C6    C31   S    
C3    C39   A    
C45   O13   D    
C3    C24   S    
C18   C25   A    
Cu2   N2    S    
Cu1   O5    S    
C30   C44   S    
C41   O9    D    
C24   O6    A    
C7    C12   A    
C43   H3    S    
C12   C49   S    
C46   H6    S    
C21   Cl2   S    
C4    C6    A    
C22   Cl1   S    
C47   O15   D    
C4    C23   S    
C1    O3    A    
C2    O4    A    
C25   C26   A    
C43   O11   D    
C32   C34   A    
C28   Cl8   S    
C27   Cl7   S    
C21   N2    A    
C23   O7    A    
C22   N1    A    
C10   Cl14  S    
C50   O18   D    
C9    C11   A    
C10   C12   A    
Cu2   O6    S    
C33   C45   S    
C48   O16   D    
C13   C15   A    
C14   C16   A    
C39   Cl9   S    
C20   N1    A    
C19   N2    A    
C21   C25   A    
C3    C5    A    
C36   C38   A    
C28   C30   A    
C29   C31   A    
C17   Cl5   S    
C30   C32   A    
C1    O1    A    
C27   C37   A    
C8    C11   A    
C13   Cl12  S    
C35   C47   S    
C50   H10   S    
C33   C35   A    
Cu1   O4    S    
C42   O10   D    
C34   C36   A    
Cu2   O3    S    
C47   H7    S    
C38   C42   S    
C48   H8    S    
C22   C26   A    
C5    C40   A    
Cu1   O1    S    
C6    C39   A    
C44   O12   D    
C49   H9    S    
C34   C46   S    
