data_mof_unit_20465.cif
_audit_creation_date              2012-12-11T14:30:19-0500
_audit_creation_method            fapswitch 2.2
_symmetry_space_group_name_H-M    P1
_symmetry_Int_Tables_number       1
_space_group_crystal_system       monoclinic
_cell_length_a                    12.70805
_cell_length_b                    12.70805
_cell_length_c                    26.986986
_cell_angle_alpha                 90.0
_cell_angle_beta                  90.0
_cell_angle_gamma                 120.00021
_cell_volume                      3774.34787845

loop_
_atom_site_label
_atom_site_type_symbol
_atom_type_description
_atom_site_fract_x
_atom_site_fract_y
_atom_site_fract_z
_atom_type_partial_charge
Br1   Br    Br    0.931382 0.781895 0.066629 -0.401334
Br2   Br    Br    0.867061 0.078425 0.944173 -0.428232
Br3   Br    Br    0.921574 0.788635 0.555827 -0.428231
Br4   Br    Br    0.211363 0.132938 0.944173 -0.428230
Br5   Br    Br    0.850513 0.068618 0.433371 -0.401334
Br6   Br    Br    0.218103 0.149486 0.066629 -0.401332
Br7   Br    Br    0.931382 0.781895 0.433371 -0.401334
Br8   Br    Br    0.850513 0.068617 0.066629 -0.401334
Br9   Br    Br    0.218103 0.149486 0.433371 -0.401332
Br10  Br    Br    0.867061 0.078426 0.555827 -0.428232
Br11  Br    Br    0.921574 0.788635 0.944173 -0.428231
Br12  Br    Br    0.211363 0.132938 0.555827 -0.428230
C1    C     C_R   0.557118 0.455995 0.821811 0.540899
C2    C     C_R   0.455144 0.560189 0.177077 0.541946
C3    C     C_R   0.095666 0.372585 0.483728 -0.079743
C4    C     C_R   0.276918 0.904334 0.016272 -0.079743
C5    C     C_R   0.627416 0.723082 0.483728 -0.079742
C6    C     C_R   0.286144 0.914832 0.534865 -0.083082
C7    C     C_R   0.085169 0.371313 0.965134 -0.083082
C8    C     C_R   0.628687 0.713856 0.534865 -0.083082
C9    C     C_R   0.286144 0.914832 0.965135 -0.083083
C10   C     C_R   0.085169 0.371314 0.534865 -0.083082
C11   C     C_R   0.628687 0.713856 0.965135 -0.083082
C12   C     C_R   0.439811 0.894955 0.322923 0.541945
C13   C     C_R   0.105045 0.544856 0.177077 0.541945
C14   C     C_R   0.017196 0.519624 0.970715 0.022917
C15   C     C_R   0.502427 0.982804 0.529285 0.022917
C16   C     C_R   0.480376 0.497572 0.970715 0.022917
C17   C     C_R   0.017197 0.519624 0.529285 0.022917
C18   C     C_R   0.502427 0.982804 0.970715 0.022917
C19   C     C_R   0.480376 0.497572 0.529285 0.022917
C20   C     C_R   0.492188 0.968384 0.477575 0.022394
C21   C     C_R   0.898877 0.442882 0.678189 0.540898
C22   C     C_R   0.031616 0.523804 0.022424 0.022394
C23   C     C_R   0.476195 0.507811 0.477575 0.022394
C24   C     C_R   0.492188 0.968384 0.022424 0.022394
C25   C     C_R   0.031616 0.523804 0.477575 0.022394
C26   C     C_R   0.476195 0.507811 0.022424 0.022394
C27   C     C_R   0.956846 0.673899 0.976085 0.166270
C28   C     C_R   0.717053 0.043154 0.523915 0.166270
C29   C     C_R   0.326100 0.282946 0.976085 0.166270
C30   C     C_R   0.956845 0.673899 0.523915 0.166270
C31   C     C_R   0.717053 0.043154 0.976085 0.166270
C32   C     C_R   0.544005 0.101123 0.821811 0.540898
C33   C     C_R   0.326100 0.282946 0.523915 0.166271
C34   C     C_R   0.707565 0.031182 0.471831 0.162874
C35   C     C_R   0.968818 0.676383 0.028169 0.162874
C36   C     C_R   0.323616 0.292434 0.471830 0.162874
C37   C     C_R   0.707565 0.031182 0.028169 0.162874
C38   C     C_R   0.968818 0.676383 0.471830 0.162874
C39   C     C_R   0.323616 0.292435 0.028169 0.162874
C40   C     C_R   0.948642 0.574358 0.896622 -0.111308
C41   C     C_R   0.625715 0.051358 0.603378 -0.111308
C42   C     C_R   0.425642 0.374284 0.896622 -0.111308
C43   C     C_R   0.557117 0.455995 0.678189 0.540899
C44   C     C_R   0.948642 0.574358 0.603378 -0.111308
C45   C     C_R   0.625715 0.051357 0.896622 -0.111308
C46   C     C_R   0.425642 0.374284 0.603378 -0.111308
C47   C     C_R   0.579277 0.973832 0.396659 -0.119524
C48   C     C_R   0.026168 0.605445 0.103341 -0.119523
C49   C     C_R   0.394554 0.420722 0.396659 -0.119524
C50   C     C_R   0.579277 0.973832 0.103341 -0.119523
C51   C     C_R   0.026168 0.605445 0.396659 -0.119523
C52   C     C_R   0.394554 0.420722 0.103341 -0.119523
C53   C     C_R   0.063358 0.529361 0.125400 -0.010305
C54   C     C_R   0.898877 0.442882 0.821811 0.540898
C55   C     C_R   0.466003 0.936642 0.374600 -0.010306
C56   C     C_R   0.470639 0.533997 0.125400 -0.010306
C57   C     C_R   0.063358 0.529361 0.374600 -0.010305
C58   C     C_R   0.466003 0.936642 0.125400 -0.010305
C59   C     C_R   0.470639 0.533997 0.374600 -0.010306
C60   C     C_R   0.525330 0.039089 0.630321 -0.017040
C61   C     C_R   0.960911 0.486242 0.869679 -0.017040
C62   C     C_R   0.513758 0.474670 0.630321 -0.017040
C63   C     C_R   0.525330 0.039089 0.869679 -0.017040
C64   C     C_R   0.960911 0.486242 0.630321 -0.017040
C65   C     C_R   0.544005 0.101123 0.678189 0.540898
C66   C     C_R   0.513758 0.474670 0.869679 -0.017040
C67   C     C_R   0.975997 0.591707 0.947498 -0.020292
C68   C     C_R   0.615710 0.024003 0.552502 -0.020292
C69   C     C_R   0.408293 0.384290 0.947497 -0.020293
C70   C     C_R   0.975997 0.591707 0.552502 -0.020292
C71   C     C_R   0.615710 0.024003 0.947497 -0.020292
C72   C     C_R   0.408293 0.384290 0.552502 -0.020293
C73   C     C_R   0.594501 0.992623 0.448379 -0.021104
C74   C     C_R   0.007377 0.601877 0.051620 -0.021104
C75   C     C_R   0.398122 0.405499 0.448379 -0.021104
C76   C     C_R   0.455144 0.560189 0.322923 0.541946
C77   C     C_R   0.594501 0.992623 0.051620 -0.021104
C78   C     C_R   0.007377 0.601877 0.448379 -0.021104
C79   C     C_R   0.398122 0.405499 0.051620 -0.021104
C80   C     C_R   0.014826 0.425740 0.891934 -0.116866
C81   C     C_R   0.410914 0.985174 0.608066 -0.116867
C82   C     C_R   0.574261 0.589086 0.891934 -0.116866
C83   C     C_R   0.014826 0.425740 0.608066 -0.116866
C84   C     C_R   0.410914 0.985174 0.891934 -0.116867
C85   C     C_R   0.574260 0.589086 0.608066 -0.116866
C86   C     C_R   0.367712 0.919191 0.404060 -0.100380
C87   C     C_R   0.439811 0.894955 0.177077 0.541945
C88   C     C_R   0.080809 0.448521 0.095940 -0.100380
C89   C     C_R   0.551479 0.632289 0.404060 -0.100380
C90   C     C_R   0.367712 0.919191 0.095940 -0.100380
C91   C     C_R   0.080810 0.448521 0.404060 -0.100380
C92   C     C_R   0.551479 0.632288 0.095940 -0.100380
C93   C     C_R   0.041695 0.440650 0.942279 0.021202
C94   C     C_R   0.398954 0.958305 0.557720 0.021202
C95   C     C_R   0.559350 0.601045 0.942279 0.021202
C96   C     C_R   0.041695 0.440651 0.557720 0.021202
C97   C     C_R   0.398954 0.958305 0.942279 0.021201
C98   C     C_R   0.105045 0.544856 0.322923 0.541945
C99   C     C_R   0.559350 0.601045 0.557720 0.021202
C100  C     C_R   0.378959 0.931470 0.455028 0.018799
C101  C     C_R   0.068530 0.447489 0.044972 0.018800
C102  C     C_R   0.552511 0.621041 0.455028 0.018800
C103  C     C_R   0.378959 0.931470 0.044972 0.018799
C104  C     C_R   0.068530 0.447489 0.455028 0.018800
C105  C     C_R   0.552511 0.621041 0.044972 0.018800
C106  C     C_R   0.095666 0.372585 0.016272 -0.079743
C107  C     C_R   0.276918 0.904334 0.483728 -0.079743
C108  C     C_R   0.627416 0.723082 0.016272 -0.079742
Cr1   Cr    Cr6+3 0.487630 0.241180 0.750000 1.048607
Cr2   Cr    Cr6+3 0.753550 0.512370 0.750000 1.048607
Cr3   Cr    Cr6+3 0.758820 0.246450 0.750000 1.048607
Cr4   Cr    Cr6+3 0.241180 0.487630 0.250000 1.061119
Cr5   Cr    Cr6+3 0.512370 0.753550 0.250000 1.061119
Cr6   Cr    Cr6+3 0.246450 0.758820 0.250000 1.061118
H1    H     H_    0.015205 0.668437 0.126685 0.175801
H2    H     H_    0.713358 0.091842 0.878622 0.184645
H3    H     H_    0.908157 0.621516 0.621378 0.184645
H4    H     H_    0.378484 0.286641 0.878622 0.184645
H5    H     H_    0.111936 0.390860 0.112254 0.162416
H6    H     H_    0.278923 0.888064 0.387746 0.162416
H7    H     H_    0.609141 0.721077 0.112254 0.162416
H8    H     H_    0.111937 0.390860 0.387746 0.162416
H9    H     H_    0.278923 0.888064 0.112254 0.162416
H10   H     H_    0.609140 0.721077 0.387746 0.162416
H11   H     H_    0.332652 0.972863 0.628988 0.154788
H12   H     H_    0.653233 0.984795 0.373315 0.175801
H13   H     H_    0.027137 0.359790 0.871012 0.154788
H14   H     H_    0.640211 0.667348 0.628988 0.154788
H15   H     H_    0.332652 0.972863 0.871012 0.154788
H16   H     H_    0.027138 0.359791 0.628988 0.154788
H17   H     H_    0.640211 0.667348 0.871012 0.154788
H18   H     H_    0.123443 0.313763 0.033572 0.186266
H19   H     H_    0.190319 0.876557 0.466428 0.186266
H20   H     H_    0.686239 0.809681 0.033572 0.186267
H21   H     H_    0.123443 0.313763 0.466428 0.186266
H22   H     H_    0.190319 0.876558 0.033572 0.186267
H23   H     H_    0.331562 0.346767 0.126685 0.175801
H24   H     H_    0.686238 0.809681 0.466428 0.186266
H25   H     H_    0.206018 0.893620 0.556399 0.186520
H26   H     H_    0.106380 0.312399 0.943600 0.186519
H27   H     H_    0.687602 0.793982 0.556399 0.186520
H28   H     H_    0.206018 0.893621 0.943601 0.186520
H29   H     H_    0.106380 0.312399 0.556399 0.186519
H30   H     H_    0.687602 0.793982 0.943601 0.186520
H31   H     H_    0.015204 0.668437 0.373315 0.175801
H32   H     H_    0.653233 0.984795 0.126685 0.175801
H33   H     H_    0.331562 0.346767 0.373315 0.175801
H34   H     H_    0.713358 0.091843 0.621378 0.184645
H35   H     H_    0.908157 0.621516 0.878622 0.184645
H36   H     H_    0.378484 0.286641 0.621378 0.184645
O1    O     O_R   0.460870 0.120930 0.805240 -0.506991
O2    O     O_R   0.120930 0.460870 0.194760 -0.501284
O3    O     O_R   0.539130 0.660060 0.305240 -0.501284
O4    O     O_R   0.339940 0.879070 0.194760 -0.501283
O5    O     O_R   0.498910 0.350470 0.801870 -0.500563
O6    O     O_R   0.851560 0.501090 0.698130 -0.500563
O7    O     O_R   0.649530 0.148440 0.801870 -0.500562
O8    O     O_R   0.498910 0.350470 0.698130 -0.500563
O9    O     O_R   0.851560 0.501090 0.801870 -0.500563
O10   O     O_R   0.649530 0.148440 0.698130 -0.500562
O11   O     O_R   0.350470 0.498910 0.301870 -0.499988
O12   O     O_R   0.660060 0.539130 0.694760 -0.506991
O13   O     O_R   0.501090 0.851560 0.198130 -0.499988
O14   O     O_R   0.148440 0.649530 0.301870 -0.499988
O15   O     O_R   0.350470 0.498910 0.198130 -0.499988
O16   O     O_R   0.501090 0.851560 0.301870 -0.499988
O17   O     O_R   0.148440 0.649530 0.198130 -0.499988
O18   O     O_3   0.666667 0.333333 0.750000 -0.245954
O19   O     O_3   0.333333 0.666667 0.250000 -0.261428
O20   O     O_R   0.879070 0.339940 0.805240 -0.506991
O21   O     O_R   0.460870 0.120930 0.694760 -0.506991
O22   O     O_R   0.660060 0.539130 0.805240 -0.506991
O23   O     O_R   0.879070 0.339940 0.694760 -0.506991
O24   O     O_R   0.120930 0.460870 0.305240 -0.501283
O25   O     O_R   0.539130 0.660060 0.194760 -0.501284
O26   O     O_R   0.339940 0.879070 0.305240 -0.501283

loop_
_geom_bond_atom_site_label_1
_geom_bond_atom_site_label_2
_ccdc_geom_bond_type
C24   C77   A    
C3    H21   S    
Br3   C30   S    
C108  H20   S    
C4    C9    A    
C44   C64   A    
C31   C71   A    
Cr5   O25   S    
C5    H24   S    
C30   C70   A    
C45   H2    S    
C47   C73   A    
C88   H5    S    
C25   C104  A    
C22   C101  A    
Cr2   O18   S    
C25   C78   A    
C82   H17   S    
C52   C56   A    
C91   H8    S    
Cr3   O20   S    
C106  H18   S    
C49   H33   S    
C64   C83   A    
C85   C99   A    
C1    O5    A    
Br4   C29   S    
C20   C73   A    
C16   C95   A    
Cr1   O1    S    
C50   C77   A    
C5    C8    A    
C50   C58   A    
C23   C102  A    
Br10  C28   S    
C22   C74   A    
C18   C71   A    
C32   O7    A    
C90   C103  A    
C49   C75   A    
C55   C86   A    
C39   C79   A    
C84   H15   S    
C90   H9    S    
C26   C105  A    
C23   C75   A    
C38   C78   A    
C3    C10   A    
C51   C57   A    
C7    C106  A    
C63   C84   A    
C9    H28   S    
C28   C68   A    
C17   C96   A    
C58   C90   A    
C32   O1    A    
Br6   C39   S    
C62   C85   A    
C40   C67   A    
C85   H14   S    
Cr3   O10   S    
C12   C55   S    
C40   H35   S    
Cr1   O21   S    
C87   O4    A    
C47   C55   A    
C49   C59   A    
Cr2   O22   S    
Cr1   O8    S    
C54   O20   A    
C29   C69   A    
C11   H30   S    
C89   C102  A    
C43   C62   S    
C42   H4    S    
C14   C93   A    
C89   H10   S    
C14   C22   A    
C5    C102  A    
Cr1   O18   S    
C10   H29   S    
C57   C91   A    
Cr1   O5    S    
C82   C95   A    
C43   O8    A    
Cr2   O6    S    
C8    H27   S    
C18   C97   A    
Cr5   O19   S    
C2    O15   A    
C35   C74   A    
Br11  C27   S    
C54   O9    A    
C41   C68   A    
C13   C53   S    
C61   C80   A    
C40   C61   A    
C92   H7    S    
C105  C108  A    
C11   C108  A    
C48   C74   A    
C31   C37   A    
C80   H13   S    
Cr4   O11   S    
C15   C94   A    
Cr6   O4    S    
Cr2   O12   S    
C54   C61   S    
C26   C79   A    
C19   C72   A    
C59   C76   S    
C27   C67   A    
Cr3   O23   S    
C32   C63   S    
Cr5   O3    S    
C6    C94   A    
C43   O12   A    
C60   C65   S    
C46   C72   A    
C81   C94   A    
C8    C99   A    
C57   C98   S    
C21   C64   S    
C16   C26   A    
Br2   C31   S    
C1    O22   A    
C11   C95   A    
C50   H32   S    
C7    H26   S    
C83   H16   S    
C36   C75   A    
Cr6   O17   S    
C45   C71   A    
Cr4   O15   S    
Cr3   O7    S    
C30   C38   A    
C60   C81   A    
C7    C93   A    
C48   C53   A    
C15   C68   A    
C12   O16   A    
C19   C23   A    
C21   O6    A    
C51   H31   S    
C17   C25   A    
C6    H25   S    
C46   H36   S    
C4    C103  A    
Cr6   O14   S    
C58   C87   S    
C46   C62   A    
C27   C35   A    
C92   C105  A    
Br5   C34   S    
C33   C36   A    
C1    C66   S    
C98   O24   A    
C41   H34   S    
C19   C99   A    
C20   C100  A    
C15   C20   A    
C48   H1    S    
Br1   C35   S    
C88   C101  A    
C56   C92   A    
Br7   C38   S    
C37   C77   A    
Br12  C33   S    
C53   C88   A    
C100  C107  A    
C9    C97   A    
C13   O17   A    
C44   C70   A    
Cr3   O18   S    
C98   O14   A    
C107  H19   S    
C84   C97   A    
C14   C67   A    
C47   H12   S    
C18   C24   A    
C52   H23   S    
C12   O26   A    
C34   C73   A    
C86   C100  A    
Cr6   O26   S    
C91   C104  A    
C16   C69   A    
Cr4   O19   S    
C76   O3    A    
Cr4   O24   S    
C2    O25   A    
C41   C60   A    
C45   C63   A    
C4    H22   S    
C66   C82   A    
C65   O10   A    
C10   C96   A    
C28   C34   A    
C6    C107  A    
C51   C78   A    
C65   O21   A    
C59   C89   A    
C44   H3    S    
C81   H11   S    
C83   C96   A    
C76   O11   A    
C101  C106  A    
C33   C72   A    
C80   C93   A    
C17   C70   A    
C87   O13   A    
Br9   C36   S    
Cr2   O9    S    
C86   H6    S    
Cr5   O16   S    
C2    C56   S    
C3    C104  A    
Cr6   O19   S    
C21   O23   A    
C13   O2    A    
C52   C79   A    
C42   C66   A    
C24   C103  A    
Br8   C37   S    
C29   C39   A    
C42   C69   A    
Cr4   O2    S    
Cr5   O13   S    
