data_mof_unit_22813.cif
_audit_creation_date              2012-12-10T16:53:11-0500
_audit_creation_method            fapswitch 2.2
_symmetry_space_group_name_H-M    P1
_symmetry_Int_Tables_number       1
_space_group_crystal_system       triclinic
_cell_length_a                    10.791443
_cell_length_b                    10.917942
_cell_length_c                    9.702508
_cell_angle_alpha                 89.875688
_cell_angle_beta                  89.882509
_cell_angle_gamma                 89.787462
_cell_volume                      1143.13993618

loop_
_atom_site_label
_atom_site_type_symbol
_atom_type_description
_atom_site_fract_x
_atom_site_fract_y
_atom_site_fract_z
_atom_type_partial_charge
C1    C     C_R   0.495965 0.265440 0.500240 0.844136
C2    C     C_R   0.064063 0.608807 0.555336 0.089559
C3    C     C_R   0.129451 0.508263 0.500171 -0.120362
C4    C     C_R   0.067874 0.409085 0.442973 -0.230177
C5    C     C_R   0.939374 0.404186 0.442647 0.082038
C6    C     C_R   0.871633 0.503211 0.499315 -0.119633
C7    C     C_2   0.479234 0.933045 0.388522 -0.150983
C8    C     C_2   0.504134 0.866830 0.501624 -0.328519
C9    C     C_2   0.483011 0.067206 0.387383 -0.177381
C10   C     C_2   0.485563 0.133567 0.503287 -0.316144
C11   C     C_2   0.428372 0.429934 0.922462 -0.061650
C12   C     C_R   0.262870 0.503312 0.500143 0.793523
C13   C     C_2   0.429558 0.428731 0.078124 -0.067923
C14   C     C_R   0.500438 0.734673 0.499947 0.828422
C15   C     C_R   0.737467 0.498956 0.499760 0.791330
C16   C     C_R   0.125989 0.712526 0.608024 -0.163421
C17   C     C_R   0.059304 0.811950 0.659628 -0.133199
C18   C     C_R   0.930478 0.810455 0.658617 -0.145951
C19   C     C_R   0.867556 0.709676 0.605709 -0.165895
C20   C     C_R   0.933177 0.606814 0.554278 0.068010
Cu1   Cu    Cu3+1 0.500020 0.500020 0.638630 0.931175
Cu2   Cu    Cu3+1 0.499980 0.499980 0.361370 0.935474
H1    H     H_    0.121222 0.332973 0.401836 0.137993
H2    H     H_    0.477639 0.092489 0.604468 0.146084
H3    H     H_    0.364442 0.368551 0.871430 0.151115
H4    H     H_    0.560678 0.556005 0.893602 0.193595
H5    H     H_    0.367853 0.365137 0.129726 0.148478
H6    H     H_    0.556282 0.560271 0.105796 0.193561
H7    H     H_    0.226016 0.718387 0.608542 0.138942
H8    H     H_    0.107791 0.890819 0.699681 0.132475
H9    H     H_    0.879046 0.888045 0.698333 0.131841
H10   H     H_    0.767509 0.714150 0.604558 0.138280
H11   H     H_    0.458057 0.887964 0.291724 0.167538
H12   H     H_    0.529304 0.908073 0.598836 0.142176
H13   H     H_    0.484630 0.111929 0.287268 0.164351
N1    N     N_2   0.498640 0.498660 0.846910 -0.280519
N2    N     N_2   0.498610 0.498630 0.153040 -0.282897
O1    O     O_R   0.500020 0.321960 0.617040 -0.583073
O2    O     O_R   0.499980 0.321920 0.382900 -0.576997
O3    O     O_R   0.319670 0.500020 0.617100 -0.576701
O4    O     O_R   0.319630 0.499980 0.382950 -0.571327
O5    O     O_R   0.500020 0.678080 0.617100 -0.589684
O6    O     O_R   0.499980 0.678040 0.382960 -0.570915
O7    O     O_R   0.680370 0.500020 0.617050 -0.580992
O8    O     O_R   0.680330 0.499980 0.382900 -0.578622
C21   C     C_3   0.879010 0.289177 0.387020 -0.408623
C22   C     C_3   0.840442 0.203132 0.504543 -0.354545
C23   C     C_3   0.804932 0.077209 0.449513 -0.828255
H14   H     H_    0.737913 0.086321 0.363523 0.266702
H15   H     H_    0.888630 0.028160 0.411577 0.252973
H16   H     H_    0.761838 0.022225 0.533044 0.240993
H17   H     H_    0.918197 0.191545 0.578558 0.221560
H18   H     H_    0.760363 0.243080 0.560916 0.221005
H19   H     H_    0.798019 0.312036 0.321494 0.214245
H20   H     H_    0.945125 0.239840 0.318425 0.196817

loop_
_geom_bond_atom_site_label_1
_geom_bond_atom_site_label_2
_ccdc_geom_bond_type
C21   H20   S    
C12   O3    A    
C12   O4    A    
C3    C12   S    
Cu1   O7    S    
C2    C16   A    
C5    C21   S    
C13   N2    D    
Cu2   O6    S    
C22   H18   S    
C14   O5    A    
C14   O6    A    
C21   H19   S    
C23   H15   S    
C17   C18   A    
C6    C15   S    
C7    C8    D    
Cu1   N1    S    
C8    H12   S    
Cu1   Cu2   S    
C17   H8    S    
C7    H11   S    
C22   H17   S    
Cu1   O3    S    
H6    N2    S    
C19   H10   S    
C1    O1    A    
H4    N1    S    
C23   H14   S    
C15   O7    A    
C2    C3    A    
Cu1   O1    S    
C5    C6    A    
Cu2   O4    S    
Cu1   O5    S    
C1    O2    A    
C2    C20   A    
C3    C4    A    
C22   C23   S    
C11   C13   S    
Cu2   O8    S    
C6    C20   A    
C7    C9    S    
C18   C19   A    
C9    C10   D    
C9    H13   S    
C4    H1    S    
C11   H3    S    
C21   C22   S    
C11   N1    D    
C8    C14   S    
C18   H9    S    
C10   H2    S    
C16   H7    S    
Cu2   N2    S    
Cu2   O2    S    
C23   H16   S    
C13   H5    S    
C1    C10   S    
C19   C20   A    
C16   C17   A    
C4    C5    A    
C15   O8    A    
