data_mof_unit_68540.cif
_audit_creation_date              2012-12-10T20:52:09-0500
_audit_creation_method            fapswitch 2.2
_symmetry_space_group_name_H-M    P1
_symmetry_Int_Tables_number       1
_space_group_crystal_system       triclinic
_cell_length_a                    11.123444
_cell_length_b                    8.990841
_cell_length_c                    8.481418
_cell_angle_alpha                 92.550678
_cell_angle_beta                  94.576822
_cell_angle_gamma                 94.128044
_cell_volume                      842.243117255

loop_
_atom_site_label
_atom_site_type_symbol
_atom_type_description
_atom_site_fract_x
_atom_site_fract_y
_atom_site_fract_z
_atom_type_partial_charge
C1    C     C_R   0.500815 0.219434 0.497834 0.913603
C2    C     C_R   0.739815 0.496098 0.504431 0.842502
C3    C     C_R   0.227389 0.608994 0.051137 0.216194
C4    C     C_R   0.772600 0.391010 0.948885 0.216190
C5    C     C_R   0.148999 0.611024 0.168305 -0.147435
C6    C     C_R   0.850987 0.388969 0.831712 -0.147418
C7    C     C_R   0.087679 0.478695 0.204413 0.107352
C8    C     C_R   0.912316 0.521292 0.795596 0.107346
C9    C     C_R   0.081279 0.351171 0.105942 -0.206311
C10   C     C_R   0.918721 0.648821 0.894061 -0.206303
C11   C     C_R   0.150853 0.347396 0.977455 0.025118
C12   C     C_R   0.499189 0.780567 0.502167 0.913616
C13   C     C_R   0.849153 0.652606 0.022553 0.025136
C14   C     C_R   0.231348 0.473551 0.962173 -0.191399
C15   C     C_R   0.768652 0.526458 0.037843 -0.191430
C16   C     C_R   0.923224 0.452922 0.368708 -0.248435
C17   C     C_R   0.076774 0.547063 0.631299 -0.248426
C18   C     C_3   0.310778 0.748047 0.035461 -0.399663
C19   C     C_3   0.282490 0.822547 0.882497 -0.891255
C20   C     C_3   0.689194 0.251971 0.964561 -0.399572
C21   C     C_3   0.717558 0.177366 0.117443 -0.891231
C22   C     C_R   0.137195 0.215064 0.861348 0.128659
C23   C     C_R   0.873284 0.490109 0.507983 -0.100808
C24   C     C_R   0.227284 0.186104 0.759111 -0.140591
C25   C     C_R   0.208210 0.071141 0.641347 -0.151420
C26   C     C_R   0.102012 0.978510 0.628344 -0.129750
C27   C     C_R   0.011794 0.004683 0.728334 -0.189978
C28   C     C_R   0.029593 0.119837 0.845040 -0.174569
C29   C     C_R   0.862820 0.784942 0.138657 0.128671
C30   C     C_R   0.772737 0.813909 0.240903 -0.140602
C31   C     C_R   0.791817 0.928881 0.358656 -0.151432
C32   C     C_R   0.898015 0.021512 0.371641 -0.129700
C33   C     C_R   0.988231 0.995324 0.271651 -0.190004
C34   C     C_R   0.126714 0.509876 0.492023 -0.100785
C35   C     C_R   0.970424 0.880166 0.154950 -0.174642
C36   C     C_R   0.953351 0.528902 0.641610 0.034752
C37   C     C_R   0.046646 0.471076 0.358399 0.034748
C38   C     C_1   0.500798 0.065331 0.496819 -0.233190
C39   C     C_1   0.499213 0.934670 0.503181 -0.233165
C40   C     C_R   0.260185 0.503899 0.495570 0.842509
H1    H     H_    0.294714 0.467598 0.880589 0.197884
H2    H     H_    0.185839 0.844090 0.873500 0.267774
H3    H     H_    0.338583 0.929864 0.883500 0.270041
H4    H     H_    0.301674 0.831816 0.133561 0.200347
H5    H     H_    0.406818 0.726320 0.045123 0.239930
H6    H     H_    0.814185 0.155727 0.126280 0.267794
H7    H     H_    0.697212 0.247977 0.220431 0.289581
H8    H     H_    0.661418 0.070088 0.116445 0.270025
H9    H     H_    0.593161 0.273731 0.955041 0.239896
H10   H     H_    0.698204 0.168251 0.866373 0.200358
H11   H     H_    0.313462 0.249304 0.771585 0.170601
H12   H     H_    0.705284 0.532428 0.119420 0.197884
H13   H     H_    0.276471 0.050860 0.561946 0.139338
H14   H     H_    0.090096 0.885504 0.541699 0.157479
H15   H     H_    0.926917 0.936863 0.713985 0.145611
H16   H     H_    0.956391 0.134872 0.918638 0.137413
H17   H     H_    0.686558 0.750711 0.228444 0.170594
H18   H     H_    0.723558 0.949171 0.438060 0.139333
H19   H     H_    0.909935 0.114524 0.458277 0.157481
H20   H     H_    0.073110 0.063139 0.285993 0.145614
H21   H     H_    0.043622 0.865124 0.081345 0.137455
H22   H     H_    0.150397 0.708454 0.248668 0.112435
H23   H     H_    0.849583 0.291534 0.751353 0.112433
H24   H     H_    0.026810 0.254716 0.135851 0.126251
H25   H     H_    0.973189 0.745274 0.864142 0.126231
H26   H     H_    0.866737 0.412602 0.266047 0.180821
H27   H     H_    0.133263 0.587394 0.733956 0.180810
H28   H     H_    0.302953 0.751899 0.779598 0.289682
N1    N     N_1   0.500020 0.500030 0.073640 -0.113829
N2    N     N_1   0.499980 0.499970 0.926360 -0.113814
O1    O     O_R   0.499990 0.285340 0.636850 -0.643236
O2    O     O_R   0.500010 0.714660 0.363150 -0.643241
O3    O     O_R   0.500010 0.285350 0.363100 -0.606687
O4    O     O_R   0.499990 0.714650 0.636900 -0.606731
O5    O     O_R   0.316750 0.500000 0.636870 -0.667149
O6    O     O_R   0.683250 0.500000 0.363130 -0.667113
O7    O     O_R   0.316770 0.500020 0.363120 -0.599626
O8    O     O_R   0.683230 0.499980 0.636880 -0.599628
Zn1   Zn    Zn3+2 0.499990 0.499990 0.682780 0.931528
Zn2   Zn    Zn3+2 0.500010 0.500010 0.317220 0.931546

loop_
_geom_bond_atom_site_label_1
_geom_bond_atom_site_label_2
_ccdc_geom_bond_type
C12   O4    A    
C9    H24   S    
O1    Zn1   S    
C28   H16   S    
C26   C27   A    
C29   C30   A    
C34   C40   S    
C31   H18   S    
C13   C29   S    
C25   H13   S    
C30   C31   A    
C11   C14   A    
C27   H15   S    
O7    Zn2   S    
C34   C37   A    
C30   H17   S    
C3    C18   S    
C18   C19   S    
C8    C36   S    
C20   H10   S    
C17   C36   A    
C19   H2    S    
C16   C37   A    
C21   H8    S    
C24   H11   S    
C12   O2    A    
C22   C28   A    
C26   H14   S    
C19   H3    S    
C17   H27   S    
C24   C25   A    
C4    C6    A    
C5    C7    A    
O8    Zn1   S    
C6    C8    A    
C25   C26   A    
C6    H23   S    
C20   H9    S    
C2    O8    A    
C18   H4    S    
C31   C32   A    
C7    C37   S    
C19   H28   S    
C35   H21   S    
C1    O1    A    
C15   H12   S    
C9    C11   A    
C3    C14   A    
C1    C38   S    
C14   H1    S    
C16   C23   A    
O4    Zn1   S    
C13   C15   A    
C22   C24   A    
C16   H26   S    
C17   C34   A    
C18   H5    S    
C2    C23   S    
C2    O6    A    
C21   H6    S    
C10   H25   S    
C7    C9    A    
N2    Zn1   S    
O6    Zn2   S    
C3    C5    A    
C10   C13   A    
C33   H20   S    
C29   C35   A    
C11   C22   S    
C40   O5    A    
C1    O3    A    
C32   C33   A    
C4    C15   A    
O2    Zn2   S    
C38   C39   T    
C12   C39   S    
C33   C35   A    
O3    Zn2   S    
C5    H22   S    
N1    N2    T    
C4    C20   S    
C20   C21   S    
C8    C10   A    
C23   C36   A    
C27   C28   A    
C40   O7    A    
N1    Zn2   S    
C32   H19   S    
O5    Zn1   S    
C21   H7    S    
