data_mof_unit_12091.cif
_audit_creation_date              2012-12-10T17:23:10-0500
_audit_creation_method            fapswitch 2.2
_symmetry_space_group_name_H-M    P1
_symmetry_Int_Tables_number       1
_space_group_crystal_system       triclinic
_cell_length_a                    15.828219
_cell_length_b                    10.796129
_cell_length_c                    9.670434
_cell_angle_alpha                 91.388426
_cell_angle_beta                  89.827043
_cell_angle_gamma                 96.495769
_cell_volume                      1641.42661979

loop_
_atom_site_label
_atom_site_type_symbol
_atom_type_description
_atom_site_fract_x
_atom_site_fract_y
_atom_site_fract_z
_atom_type_partial_charge
C1    C     C_R   0.493305 0.261867 0.498169 0.803225
C2    C     C_3   0.084379 0.513876 0.499355 0.091113
C3    C     C_3   0.979030 0.625823 0.478982 -0.213739
C4    C     C_3   0.917609 0.505994 0.499761 0.113582
C5    C     C_3   0.031561 0.551640 0.376834 -0.225087
C6    C     C_3   0.968308 0.432294 0.396629 -0.161967
C7    C     C_1   0.176331 0.516494 0.500694 -0.007985
C8    C     C_1   0.825528 0.501297 0.499235 -0.039464
C9    C     C_R   0.340070 0.093093 0.594369 0.003333
C10   C     C_R   0.282462 0.021147 0.678070 -0.155807
C11   C     C_R   0.297129 0.901514 0.712374 -0.146544
C12   C     C_R   0.340904 0.507050 0.500439 0.834101
C13   C     C_R   0.366546 0.850112 0.656223 -0.202065
C14   C     C_R   0.427512 0.922561 0.575519 0.070718
C15   C     C_R   0.418600 0.050081 0.556550 0.043472
C16   C     C_R   0.486158 0.126065 0.492258 -0.091074
C17   C     C_R   0.552641 0.072104 0.428165 -0.211257
C18   C     C_R   0.555218 0.944731 0.431508 -0.188482
C19   C     C_R   0.494391 0.870195 0.506328 -0.077445
C20   C     C_R   0.607709 0.676198 0.156155 -0.169311
C21   C     C_R   0.648408 0.781383 0.099848 -0.325477
C22   C     C_R   0.643468 0.798980 0.960284 0.429123
C23   C     C_R   0.498771 0.737009 0.501750 0.778127
C24   C     C_R   0.608716 0.699094 0.873219 -0.117448
C25   C     C_R   0.554267 0.592385 0.929118 0.006338
C26   C     C_R   0.553235 0.588736 0.078869 0.173940
C27   C     C_R   0.448892 0.415841 0.071126 -0.082209
C28   C     C_R   0.443050 0.423422 0.924135 0.481496
C29   C     C_R   0.659639 0.496505 0.499555 0.830963
C30   C     C_3   0.969953 0.467444 0.623041 -0.299173
C31   C     C_3   0.022090 0.396380 0.519066 -0.016031
C32   C     C_1   0.251773 0.514442 0.501126 -0.153828
C33   C     C_1   0.749638 0.498198 0.499090 -0.163413
C34   C     C_3   0.032179 0.585723 0.599928 0.500668
Cu1   Cu    Cu3+1 0.499990 0.499990 0.640660 0.964904
Cu2   Cu    Cu3+1 0.500010 0.500010 0.359340 0.951944
H1    H     H_    0.250923 0.844814 0.773483 0.161220
H2    H     H_    0.370243 0.753111 0.675910 0.161774
H3    H     H_    0.606594 0.904415 0.379281 0.142077
H4    H     H_    0.619528 0.670713 0.263186 0.219509
H5    H     H_    0.685922 0.849391 0.165384 0.155999
H6    H     H_    0.944230 0.433782 0.724021 0.142096
H7    H     H_    0.940499 0.368085 0.313098 0.140807
H8    H     H_    0.058023 0.585480 0.276396 0.153166
H9    H     H_    0.959648 0.720095 0.463253 0.139237
H10   H     H_    0.603385 0.129217 0.376499 0.144088
H11   H     H_    0.222294 0.053316 0.706912 0.137169
N1    N     N_R   0.500800 0.501210 0.147910 -0.229953
N2    N     N_R   0.500830 0.501290 0.852040 -0.222525
O1    O     O_R   0.499990 0.319640 0.618810 -0.549128
O2    O     O_R   0.500000 0.319660 0.381240 -0.573842
O3    O     O_R   0.379070 0.499980 0.618770 -0.569299
O4    O     O_R   0.379080 0.500000 0.381190 -0.561881
O5    O     O_R   0.500000 0.680340 0.618760 -0.608294
O6    O     O_R   0.500010 0.680360 0.381190 -0.589818
O7    O     O_R   0.620920 0.500000 0.618810 -0.578667
O8    O     O_R   0.620930 0.500020 0.381230 -0.600442
C35   C     C_1   0.046372 0.270756 0.538577 0.246236
N3    N     N_1   0.065582 0.171730 0.553919 -0.308588
C36   C     C_1   0.399851 0.313820 0.137895 0.341436
N4    N     N_1   0.360360 0.230115 0.188339 -0.275498
O9    O     O_3   0.686548 0.906314 0.905297 -0.613970
C37   C     C_3   0.645666 0.012068 0.944098 0.050940
H12   H     H_    0.691601 0.096095 0.927583 0.168830
H13   H     H_    0.628426 0.014394 0.055866 0.136414
C38   C     C_3   0.567133 0.021377 0.854042 -0.374288
H14   H     H_    0.586602 0.027367 0.743728 0.239267
H15   H     H_    0.520811 0.936951 0.865878 0.220960
C39   C     C_3   0.523736 0.135876 0.895222 -0.829598
H16   H     H_    0.505008 0.132270 0.005936 0.248076
H17   H     H_    0.465574 0.138269 0.832170 0.287341
H18   H     H_    0.567142 0.222352 0.877789 0.252997
C40   C     C_1   0.644867 0.716768 0.737666 0.437834
N5    N     N_1   0.677539 0.741088 0.632832 -0.341497
O10   O     O_3   0.376714 0.354590 0.853790 -0.593553
C41   C     C_3   0.300104 0.406769 0.885445 0.060149
H19   H     H_    0.300440 0.499619 0.837980 0.163086
H20   H     H_    0.290477 0.420283 0.998577 0.122455
C42   C     C_3   0.223852 0.320299 0.831112 -0.317363
H21   H     H_    0.227692 0.311552 0.716995 0.233740
H22   H     H_    0.224765 0.226646 0.875848 0.223722
C43   C     C_3   0.140236 0.370137 0.870041 -0.910836
H23   H     H_    0.134478 0.379762 0.984211 0.256278
H24   H     H_    0.086036 0.304346 0.831401 0.258887
H25   H     H_    0.136869 0.462297 0.823156 0.280870
O11   O     O_3   0.071165 0.664728 0.705420 -0.630075
C44   C     C_3   0.010270 0.728468 0.776805 0.027948
H26   H     H_    0.018734 0.715474 0.889334 0.163783
H27   H     H_    0.942755 0.693202 0.752384 0.139595
C45   C     C_3   0.026246 0.867764 0.747384 -0.329580
H28   H     H_    0.091459 0.904318 0.781654 0.219930
H29   H     H_    0.021580 0.881975 0.634399 0.229311
C46   C     C_3   0.962164 0.940864 0.822585 -0.871526
H30   H     H_    0.896531 0.908109 0.787192 0.273280
H31   H     H_    0.976079 0.041504 0.800122 0.262294
H32   H     H_    0.966383 0.929234 0.936083 0.251904
C47   C     C_1   0.304266 0.183908 0.513776 0.235267
N6    N     N_1   0.272158 0.251837 0.446286 -0.278994

loop_
_geom_bond_atom_site_label_1
_geom_bond_atom_site_label_2
_ccdc_geom_bond_type
C27   N1    A    
C38   H15   S    
C44   H26   S    
C37   H13   S    
C46   H30   S    
C40   N5    T    
Cu1   Cu2   S    
C41   C42   S    
C4    C8    S    
C47   N6    T    
C45   C46   S    
C31   C35   S    
C41   H20   S    
C27   C36   S    
C30   C31   S    
C20   H4    S    
C24   C40   S    
C38   C39   S    
C15   C16   A    
C29   C33   S    
C39   H17   S    
C18   C19   A    
C34   O11   S    
C11   H1    S    
C18   H3    S    
Cu2   O4    S    
C2    C7    S    
C16   C17   A    
Cu1   N2    S    
C24   C25   A    
Cu2   N1    S    
C1    O1    A    
C12   O4    A    
C26   N1    A    
C2    C34   S    
C6    C31   S    
C37   C38   S    
C46   H31   S    
C21   C22   A    
C12   C32   S    
Cu1   O5    S    
C12   O3    A    
C30   C34   S    
C17   H10   S    
C4    C6    S    
Cu2   O8    S    
C42   H22   S    
O11   C44   S    
C3    C34   S    
C35   N3    T    
C3    H9    S    
C42   H21   S    
C36   N4    T    
C39   H18   S    
C19   C23   S    
O10   C41   S    
O9    C37   S    
C22   O9    S    
C28   N2    A    
C45   H29   S    
Cu1   O1    S    
C17   C18   A    
C1    C16   S    
C41   H19   S    
C1    O2    A    
C13   H2    S    
Cu2   O2    S    
C21   H5    S    
C5    H8    S    
C29   O8    A    
C46   H32   S    
C43   H24   S    
C6    H7    S    
C44   H27   S    
C22   C24   A    
C2    C5    S    
C3    C4    S    
C10   H11   S    
C23   O5    A    
C9    C10   A    
C9    C47   S    
C7    C32   T    
Cu1   O7    S    
C14   C19   A    
C30   H6    S    
C3    C5    S    
C42   C43   S    
C23   O6    A    
C29   O7    A    
C43   H25   S    
C25   C26   A    
Cu2   O6    S    
C11   C13   A    
C45   H28   S    
C5    C6    S    
C20   C26   A    
C38   H14   S    
C8    C33   T    
C9    C15   A    
C39   H16   S    
C25   N2    A    
C10   C11   A    
C37   H12   S    
C20   C21   A    
C43   H23   S    
C44   C45   S    
Cu1   O3    S    
C14   C15   A    
C2    C31   S    
C13   C14   A    
C28   O10   S    
C4    C30   S    
C27   C28   A    
