data_mof_unit_68186.cif
_audit_creation_date              2013-03-05T16:02:50-0500
_audit_creation_method            fapswitch 2.2
_symmetry_space_group_name_H-M    P1
_symmetry_Int_Tables_number       1
_space_group_crystal_system       triclinic
_cell_length_a                    7.082821
_cell_length_b                    14.411019
_cell_length_c                    16.295569
_cell_angle_alpha                 89.999988
_cell_angle_beta                  90.028529
_cell_angle_gamma                 90.000313
_cell_volume                      1663.29940713

loop_
_atom_site_label
_atom_site_type_symbol
_atom_site_description
_atom_site_fract_x
_atom_site_fract_y
_atom_site_fract_z
_atom_type_partial_charge
O1    O     O_R   0.611670 0.415650 0.164070 -0.575233
O2    O     O_R   0.388330 0.915650 0.835930 -0.575305
O3    O     O_R   0.940950 0.405490 0.337780 -0.540764
O4    O     O_R   0.059050 0.905490 0.662220 -0.540743
O5    O     O_R   0.111350 0.584350 0.338470 -0.575348
O6    O     O_R   0.888650 0.084350 0.661530 -0.575334
C1    C     C_R   0.771864 0.382856 0.366061 1.084061
C2    C     C_R   0.228135 0.882856 0.633939 1.084071
O7    O     O_R   0.941380 0.404630 0.164680 -0.591812
O8    O     O_R   0.058620 0.904630 0.835320 -0.591807
O9    O     O_R   0.111780 0.583470 0.164130 -0.617817
O10   O     O_R   0.888220 0.083470 0.835870 -0.617781
C3    C     C_R   0.773668 0.379928 0.138153 1.012104
C4    C     C_R   0.226332 0.879932 0.861851 1.011931
O11   O     O_R   0.611240 0.416530 0.338400 -0.555398
O12   O     O_R   0.388760 0.916530 0.661600 -0.555380
O13   O     O_3   0.778020 0.558680 0.251290 -0.303833
O14   O     O_3   0.221980 0.058680 0.748710 -0.303880
V1    V     V_3+5 0.052840 0.489110 0.251260 1.232865
V2    V     V_3+5 0.947160 0.989110 0.748740 1.232836
O15   O     O_R   0.441500 0.594510 0.164760 -0.561854
O16   O     O_R   0.558500 0.094510 0.835240 -0.562063
C5    C     C_R   0.273583 0.616856 0.136807 1.011866
C6    C     C_R   0.726417 0.116859 0.863190 1.011768
O17   O     O_R   0.441080 0.595370 0.337860 -0.597347
O18   O     O_R   0.558920 0.095370 0.662140 -0.597326
C7    C     C_R   0.273906 0.617742 0.366390 0.992348
C8    C     C_R   0.726095 0.117742 0.633610 0.992375
V3    V     V_3+5 0.552850 0.510890 0.251270 1.248018
V4    V     V_3+5 0.447150 0.010890 0.748730 1.247897
O19   O     O_3   0.277800 0.441320 0.251250 -0.281692
O20   O     O_3   0.722200 0.941320 0.748750 -0.281671
C9    C     C_3   0.086935 0.678603 0.486221 -0.374940
C10   C     C_3   0.913060 0.178601 0.513776 -0.374934
H1    H     H_    0.970015 0.676262 0.444113 0.196929
H2    H     H_    0.029983 0.176259 0.555881 0.196936
H3    H     H_    0.082071 0.610467 0.517022 0.221134
H4    H     H_    0.917916 0.110465 0.482975 0.221139
C11   C     C_3   0.062513 0.753011 0.553228 -0.448740
C12   C     C_3   0.937480 0.253009 0.446769 -0.448750
H5    H     H_    0.023882 0.719755 0.612371 0.171303
H6    H     H_    0.976103 0.219752 0.387625 0.171321
H7    H     H_    0.943544 0.796269 0.535625 0.247482
H8    H     H_    0.056452 0.296266 0.464370 0.247475
C13   C     C_3   0.293568 0.794506 0.403182 0.436614
C14   C     C_3   0.706445 0.294506 0.596819 0.436608
C15   C     C_3   0.423538 0.667903 0.504848 -0.348706
C16   C     C_3   0.576456 0.167906 0.495155 -0.348719
C17   C     C_3   0.271588 0.689834 0.436635 -0.180007
C18   C     C_3   0.728413 0.189834 0.563366 -0.180026
H9    H     H_    0.389919 0.597052 0.528435 0.190239
H10   H     H_    0.610069 0.097055 0.471567 0.190234
C19   C     C_3   0.243203 0.812518 0.562482 -0.067516
C20   C     C_3   0.756795 0.312519 0.437518 -0.067488
C21   C     C_3   0.267703 0.865162 0.477703 -0.280881
C22   C     C_3   0.732306 0.365163 0.522298 -0.280893
C23   C     C_3   0.412194 0.740633 0.578504 -0.168792
C24   C     C_3   0.587797 0.240636 0.421499 -0.168765
H11   H     H_    0.393580 0.908849 0.485403 0.203249
H12   H     H_    0.606429 0.408849 0.514601 0.203250
H13   H     H_    0.086302 0.558990 0.769233 0.162651
H14   H     H_    0.913690 0.058974 0.230761 0.162636
C25   C     C_R   0.277795 0.943805 0.036103 -0.036284
C26   C     C_R   0.722216 0.443796 0.963919 -0.036208
C27   C     C_R   0.333391 0.970001 0.115230 -0.106908
C28   C     C_R   0.666643 0.470014 0.884798 -0.107185
C29   C     C_R   0.368673 0.904632 0.174862 -0.123335
C30   C     C_R   0.631381 0.404654 0.825152 -0.123147
C31   C     C_R   0.345416 0.811214 0.157956 -0.141832
C32   C     C_R   0.654625 0.311229 0.842047 -0.141907
C33   C     C_R   0.292120 0.779885 0.079304 0.086955
C34   C     C_R   0.707896 0.279888 0.920699 0.086947
C35   C     C_R   0.265667 0.846476 0.014760 -0.014144
C36   C     C_R   0.734344 0.346469 0.985248 -0.014054
C37   C     C_R   0.269231 0.683122 0.065490 -0.189044
C38   C     C_R   0.730768 0.183123 0.934509 -0.189163
C39   C     C_R   0.237487 0.650145 0.984420 -0.058515
C40   C     C_R   0.762504 0.150143 0.015578 -0.058327
C41   C     C_R   0.197200 0.715587 0.920390 -0.081450
C42   C     C_R   0.802794 0.215579 0.079612 -0.081345
C43   C     C_R   0.227453 0.813447 0.933327 -0.270696
C44   C     C_R   0.772546 0.313439 0.066679 -0.270780
C45   C     C_R   0.246161 0.552814 0.965471 0.585334
C46   C     C_R   0.753821 0.052812 0.034524 0.585290
C47   C     C_R   0.199410 0.523094 0.885701 -0.386139
C48   C     C_R   0.800581 0.023086 0.114291 -0.386041
C49   C     C_R   0.133215 0.584989 0.828185 -0.298662
C50   C     C_R   0.866780 0.084977 0.171810 -0.298648
C51   C     C_R   0.123517 0.679754 0.845444 0.648575
C52   C     C_R   0.876474 0.179744 0.154557 0.648625
H15   H     H_    0.345408 0.042508 0.131996 0.148998
H16   H     H_    0.654636 0.542528 0.868053 0.148867
H17   H     H_    0.410274 0.927343 0.235323 0.189452
H18   H     H_    0.589803 0.427376 0.764691 0.189445
H19   H     H_    0.372754 0.763321 0.207299 0.117022
H20   H     H_    0.627295 0.263343 0.792699 0.117053
H21   H     H_    0.210603 0.451302 0.867153 0.174180
H22   H     H_    0.789382 0.951292 0.132833 0.174166
C53   C     C_2   0.603318 0.787352 0.592417 0.578294
H23   H     H_    0.708413 0.751238 0.628370 -0.014705
O21   O     O_2   0.645521 0.861661 0.561690 -0.557971
C54   C     C_2   0.396678 0.287358 0.407591 0.578300
H24   H     H_    0.291582 0.251252 0.371636 -0.014717
O22   O     O_2   0.354478 0.361661 0.438325 -0.557995
C55   C     C_2   0.489758 0.808626 0.366811 0.416697
H25   H     H_    0.553845 0.754567 0.330142 0.005172
O23   O     O_2   0.572294 0.882999 0.370546 -0.624273
C56   C     C_2   0.510262 0.308630 0.633196 0.416735
H26   H     H_    0.446169 0.254569 0.669861 0.005159
O24   O     O_2   0.427743 0.383006 0.629472 -0.624270
C57   C     C_2   0.218404 0.021949 0.982791 0.505993
H27   H     H_    0.095549 0.015926 0.944500 0.020307
O25   O     O_2   0.300554 0.096444 0.984877 -0.587628
C58   C     C_2   0.781600 0.521913 0.017249 0.505743
H28   H     H_    0.904738 0.515936 0.055391 0.020172
O26   O     O_2   0.699020 0.596311 0.015384 -0.587175
O27   O     O_3   0.323355 0.491555 0.022905 -0.623439
C59   C     C_3   0.258416 0.399272 0.015456 -0.139710
H29   H     H_    0.337571 0.361736 0.967095 0.151701
H30   H     H_    0.105056 0.395616 0.003181 0.090621
H31   H     H_    0.285100 0.362898 0.074216 0.181281
O28   O     O_3   0.676588 0.991560 0.977095 -0.623554
C60   C     C_3   0.741600 0.899287 0.984512 -0.139919
H32   H     H_    0.662499 0.861721 0.032872 0.151703
H33   H     H_    0.894970 0.895657 0.996768 0.090654
H34   H     H_    0.714907 0.862928 0.925745 0.181316
O29   O     O_3   0.031465 0.735984 0.789957 -0.644308
C61   C     C_3   0.836138 0.717011 0.794708 -0.190458
H35   H     H_    0.784436 0.711365 0.859169 0.132268
H36   H     H_    0.800820 0.653095 0.759751 0.129882
H37   H     H_    0.758662 0.775034 0.766516 0.219017
O30   O     O_3   0.968509 0.235974 0.210049 -0.644344
C62   C     C_3   0.163839 0.217007 0.205307 -0.190458
H38   H     H_    0.215557 0.211366 0.140849 0.132507
H39   H     H_    0.199156 0.153091 0.240263 0.129853
H40   H     H_    0.241301 0.275031 0.233504 0.218989
O31   O     O_3   0.179990 0.816387 0.332803 -0.684327
C63   C     C_3   0.983658 0.801463 0.336000 -0.237114
H41   H     H_    0.920042 0.815655 0.396201 0.184660
H42   H     H_    0.947864 0.731265 0.313576 0.167183
H43   H     H_    0.916463 0.850513 0.292418 0.189590
O32   O     O_3   0.820034 0.316385 0.667196 -0.684327
C64   C     C_3   0.016365 0.301461 0.663994 -0.237113
H44   H     H_    0.079974 0.315655 0.603793 0.184652
H45   H     H_    0.052159 0.231262 0.686415 0.167188
H46   H     H_    0.083567 0.350509 0.707576 0.189597
C65   C     C_2   0.121901 0.939249 0.458466 0.606623
H47   H     H_    0.143084 0.983492 0.405298 0.039689
O33   O     O_2   0.982611 0.951509 0.500938 -0.581777
C66   C     C_2   0.878112 0.439249 0.541533 0.606622
H48   H     H_    0.856936 0.483491 0.594701 0.039692
O34   O     O_2   0.017398 0.451508 0.499058 -0.581781
C67   C     C_2   0.618506 0.655968 0.471590 0.475212
H49   H     H_    0.697097 0.716527 0.455211 -0.004400
O35   O     O_2   0.686255 0.579212 0.461513 -0.610846
C68   C     C_2   0.381490 0.155972 0.528416 0.475220
H50   H     H_    0.302904 0.216531 0.544799 -0.004411
O36   O     O_2   0.313737 0.079215 0.538491 -0.610841
C69   C     C_2   0.371086 0.686853 0.657561 0.378288
H51   H     H_    0.289153 0.623238 0.655888 0.080511
O37   O     O_2   0.421644 0.716068 0.724406 -0.635439
C70   C     C_2   0.628889 0.186858 0.342440 0.378231
H52   H     H_    0.710787 0.123232 0.344110 0.080524
O38   O     O_2   0.578363 0.216087 0.275595 -0.635436

loop_
_geom_bond_atom_site_label_1
_geom_bond_atom_site_label_2
_geom_bond_distance
_ccdc_geom_bond_type
C64   H46   1.109151 S    
C28   C30   1.376243 A    
C25   C27   1.399881 A    
C21   H11   1.098580 S    
O13   V3    1.737184 S    
C19   C21   1.585723 S    
C57   H27   1.074018 S    
C42   C52   1.424743 A    
O4    C2    1.324229 A    
V1    O19   1.735826 S    
C61   H35   1.115568 S    
C58   H28   1.074184 S    
C60   H32   1.108346 S    
C11   H5    1.110695 S    
C62   H39   1.111457 S    
C55   O23   1.222347 D    
O9    V1    2.009953 S    
C9    C11   1.540209 S    
C55   H25   1.081796 S    
C10   C12   1.540206 S    
O16   C6    1.313444 A    
C68   H50   1.069049 S    
C65   O33   1.218285 D    
C38   C40   1.421740 A    
O3    C1    1.324231 A    
C69   H51   1.085328 S    
C20   C24   1.604269 S    
C40   C42   1.434997 A    
C60   H33   1.105644 S    
C39   C45   1.437549 A    
C46   O28   1.397751 S    
C64   H44   1.098927 S    
C23   C53   1.528677 S    
C56   H26   1.081791 S    
C27   H15   1.083371 S    
O9    C5    1.320450 A    
C31   C33   1.410159 A    
O7    C3    1.313055 A    
C59   H29   1.108341 S    
H13   C49   1.083199 S    
O13   V1    2.189532 S    
O5    C7    1.328025 A    
C8    C18   1.545935 S    
O7    V1    2.023569 S    
O6    C8    1.328026 A    
C65   H47   1.086182 S    
O8    V2    2.023574 S    
O30   C62   1.412383 S    
C27   C29   1.376204 A    
C14   C56   1.524610 S    
C62   H40   1.100494 S    
C69   O37   1.221322 D    
O3    V1    2.017198 S    
C24   C54   1.528666 S    
C67   O35   1.216900 D    
C12   H8    1.086605 S    
C10   H2    1.075714 S    
C34   C38   1.421767 A    
C52   O30   1.377935 S    
C39   C41   1.434998 A    
C16   C68   1.493651 S    
C2    O12   1.316231 A    
C33   C37   1.421767 A    
C25   C57   1.483063 S    
C51   O29   1.377931 S    
C36   C44   1.435372 A    
C48   H22   1.080763 S    
C4    C43   1.508196 S    
C13   O31   1.435610 S    
C13   C55   1.524610 S    
O11   V3    2.008857 S    
C70   O38   1.221319 D    
C47   C49   1.376013 A    
O17   V3    2.025094 S    
C20   C22   1.585726 S    
C10   C18   1.546176 S    
C26   C58   1.482938 S    
C48   C50   1.376022 A    
C42   C44   1.441906 A    
O8    C4    1.313066 A    
C33   C35   1.435982 A    
C19   C23   1.604275 S    
C6    C38   1.504489 S    
C60   H34   1.107781 S    
C28   H16   1.083377 S    
C1    O11   1.316234 A    
C15   C67   1.493653 S    
H14   C50   1.083199 S    
C3    C44   1.508209 S    
C9    H3    1.103293 S    
C22   H12   1.098579 S    
C29   C31   1.383968 A    
C59   H31   1.107784 S    
C26   C28   1.399830 A    
C32   H20   1.077132 S    
C25   C35   1.447621 A    
C15   H9    1.116707 S    
C15   C23   1.595545 S    
C14   O32   1.435611 S    
C58   O26   1.221689 D    
C53   H23   1.080632 S    
C13   C17   1.611471 S    
O10   V2    2.009956 S    
O1    V3    2.019183 S    
C57   O25   1.221554 D    
C54   O22   1.219375 D    
C37   C39   1.421734 A    
C63   H42   1.105033 S    
C35   C43   1.435409 A    
O14   V4    1.737191 S    
C21   C65   1.517998 S    
C34   C36   1.435951 A    
C53   O21   1.219409 D    
C50   C52   1.396030 A    
O18   V4    2.025088 S    
C12   C20   1.547842 S    
O15   C5    1.313448 A    
C62   H38   1.115560 S    
C66   O34   1.218282 D    
O1    C3    1.326803 A    
C22   C66   1.517996 S    
O29   C61   1.412386 S    
C24   C70   1.531485 S    
C61   H37   1.100502 S    
C41   C43   1.441932 A    
C70   H52   1.085329 S    
V2    O20   1.735819 S    
C64   H45   1.105032 S    
C14   C18   1.611473 S    
O16   V4    2.015036 S    
C45   C47   1.407974 A    
C10   H4    1.103295 S    
C5    C37   1.504494 S    
C12   H6    1.110695 S    
C31   H19   1.077129 S    
C63   H43   1.109152 S    
C61   H36   1.111460 S    
C2    C19   1.547533 S    
C11   H7    1.086608 S    
C16   C24   1.595545 S    
O5    V1    2.018552 S    
C15   C17   1.578781 S    
O6    V2    2.018555 S    
O31   C63   1.408104 S    
O10   C6    1.320455 A    
O18   C8    1.312498 A    
C66   H48   1.086181 S    
O2    V4    2.019181 S    
C45   O27   1.397767 S    
C68   O36   1.216902 D    
C67   H49   1.069048 S    
V3    O19   2.190969 S    
O27   C59   1.412383 S    
V4    O20   2.190980 S    
C11   C19   1.547847 S    
O15   V3    2.015039 S    
C16   C18   1.578779 S    
C9    H1    1.075720 S    
C56   O24   1.222336 D    
O14   V2    2.189521 S    
C23   C69   1.531486 S    
C54   H24   1.080590 S    
O2    C4    1.326790 A    
C59   H30   1.105641 S    
C41   C51   1.424753 A    
C47   H21   1.080764 S    
C63   H41   1.098928 S    
O4    V2    2.017204 S    
C40   C46   1.437524 A    
C16   H10   1.116706 S    
C13   C21   1.595377 S    
C30   C32   1.384014 A    
C30   H18   1.079058 S    
C9    C17   1.546179 S    
C14   C22   1.595376 S    
C29   H17   1.079053 S    
C49   C51   1.396026 A    
C26   C36   1.447542 A    
O32   C64   1.408103 S    
C46   C48   1.407974 A    
C32   C34   1.410168 A    
C1    C20   1.547531 S    
O28   C60   1.412373 S    
O12   V4    2.008855 S    
C7    C17   1.545937 S    
O17   C7    1.312499 A    
