data_mof_unit_36121.cif
_audit_creation_date              2012-12-10T20:37:25-0500
_audit_creation_method            fapswitch 2.2
_symmetry_space_group_name_H-M    P1
_symmetry_Int_Tables_number       1
_space_group_crystal_system       triclinic
_cell_length_a                    15.71972
_cell_length_b                    10.67936
_cell_length_c                    9.853864
_cell_angle_alpha                 90.007807
_cell_angle_beta                  90.190397
_cell_angle_gamma                 90.004717
_cell_volume                      1654.22352782

loop_
_atom_site_label
_atom_site_type_symbol
_atom_type_description
_atom_site_fract_x
_atom_site_fract_y
_atom_site_fract_z
_atom_type_partial_charge
C1    C     C_R   0.502214 0.259917 0.500036 0.871046
C2    C     C_3   0.083075 0.494207 0.497761 0.126538
C3    C     C_3   0.973640 0.559031 0.603161 0.570633
C4    C     C_3   0.917236 0.493661 0.498965 0.100722
C5    C     C_3   0.028239 0.613482 0.488188 -0.313611
C6    C     C_3   0.971077 0.546155 0.382062 -0.235100
C7    C     C_1   0.173866 0.495622 0.498054 -0.046127
C8    C     C_1   0.826378 0.495648 0.500436 -0.011337
C9    C     C_R   0.513972 0.063885 0.623304 0.145845
C10   C     C_R   0.515036 0.128516 0.500670 -0.104741
C11   C     C_R   0.532009 0.064732 0.379308 -0.228425
C12   C     C_R   0.337921 0.499547 0.499725 0.904868
C13   C     C_R   0.532302 0.935289 0.379367 -0.226745
C14   C     C_R   0.515470 0.871466 0.500738 -0.102623
C15   C     C_R   0.514235 0.936175 0.623356 0.131688
C16   C     C_3   0.452646 0.928831 0.738427 -0.480106
C17   C     C_3   0.452241 0.070784 0.738212 -0.493158
C18   C     C_R   0.457349 0.409025 0.071127 0.214031
C19   C     C_R   0.548065 0.582912 0.072273 -0.137246
C20   C     C_R   0.548078 0.582915 0.928225 -0.124776
C21   C     C_R   0.457245 0.409249 0.928359 0.169932
C22   C     C_3   0.364063 0.383442 0.921387 -0.515214
C23   C     C_R   0.502459 0.740069 0.500017 0.877939
C24   C     C_3   0.363911 0.383568 0.075984 -0.066451
C25   C     C_R   0.662143 0.499847 0.500238 0.901063
C26   C     C_3   0.971901 0.374545 0.507819 -0.232416
C27   C     C_3   0.027347 0.428084 0.392531 0.286677
C28   C     C_1   0.249100 0.497462 0.498910 -0.203684
C29   C     C_1   0.751079 0.497751 0.500690 -0.176152
C30   C     C_3   0.029178 0.440986 0.614610 -0.299085
H1    H     H_    0.482003 0.888097 0.831253 0.202927
H2    H     H_    0.389970 0.111593 0.707619 0.197269
H3    H     H_    0.481183 0.112177 0.831044 0.205249
H4    H     H_    0.585519 0.651458 0.126916 0.147732
H5    H     H_    0.585525 0.651477 0.874004 0.150638
H6    H     H_    0.327546 0.462784 0.877137 0.200095
H7    H     H_    0.350302 0.291015 0.874273 0.205067
H8    H     H_    0.326844 0.462249 0.120295 0.188323
H9    H     H_    0.946960 0.277462 0.514057 0.153555
H10   H     H_    0.945128 0.587282 0.287096 0.156834
H11   H     H_    0.052940 0.710698 0.481944 0.147217
H12   H     H_    0.054906 0.399452 0.709482 0.145104
H13   H     H_    0.539306 0.113720 0.283768 0.174033
H14   H     H_    0.539840 0.886284 0.283880 0.167193
H15   H     H_    0.390572 0.887064 0.708275 0.202789
N1    N     N_R   0.499430 0.499140 0.142800 -0.121476
N2    N     N_R   0.499430 0.499180 0.857150 -0.104609
O1    O     O_R   0.500010 0.316790 0.614690 -0.613107
O2    O     O_R   0.500000 0.316760 0.385350 -0.624664
O3    O     O_R   0.376780 0.500010 0.614650 -0.617739
O4    O     O_R   0.376770 0.499970 0.385310 -0.617038
O5    O     O_R   0.500000 0.683240 0.614650 -0.620728
O6    O     O_R   0.499990 0.683210 0.385310 -0.626546
O7    O     O_R   0.623230 0.500030 0.614690 -0.607493
O8    O     O_R   0.623220 0.499990 0.385350 -0.615622
Zn1   Zn    Zn3+2 0.500010 0.500020 0.653130 0.947942
Zn2   Zn    Zn3+2 0.499990 0.499980 0.346870 0.941853
C31   C     C_3   0.060321 0.352909 0.272634 -0.932967
H16   H     H_    0.005928 0.318769 0.210841 0.241607
H17   H     H_    0.101797 0.412636 0.208779 0.246213
H18   H     H_    0.097652 0.271673 0.310042 0.243101
C32   C     C_3   0.343164 0.256246 0.138876 -0.853736
H19   H     H_    0.384081 0.181074 0.096210 0.236353
H20   H     H_    0.352996 0.260294 0.250360 0.259855
H21   H     H_    0.275480 0.232814 0.118724 0.241465
O9    O     O_3   0.939623 0.627194 0.713032 -0.645185
C33   C     C_3   0.005606 0.677983 0.794291 0.072097
H22   H     H_    0.993371 0.779894 0.805746 0.161864
H23   H     H_    0.070681 0.668768 0.750212 0.122895
C34   C     C_3   0.004253 0.617082 0.934808 -0.330494
H24   H     H_    0.941111 0.632633 0.982396 0.230439
H25   H     H_    0.014461 0.514560 0.924714 0.217110
C35   C     C_3   0.073363 0.671614 0.026622 -0.981445
H26   H     H_    0.137290 0.653157 0.983242 0.264417
H27   H     H_    0.070010 0.627533 0.128369 0.271824
H28   H     H_    0.064367 0.774191 0.038504 0.265806

loop_
_geom_bond_atom_site_label_1
_geom_bond_atom_site_label_2
_ccdc_geom_bond_type
C18   C21   A    
C35   H26   S    
C2    C7    S    
C4    C8    S    
C19   N1    A    
C16   H1    S    
C26   C27   S    
C12   C28   S    
C18   C24   S    
C8    C29   T    
C5    C6    S    
C26   H9    S    
C31   H17   S    
C15   C16   S    
O2    Zn2   S    
C32   H20   S    
C20   H5    S    
C19   C20   A    
C16   C17   S    
C24   H8    S    
C11   H13   S    
C34   H24   S    
O4    Zn2   S    
C9    C10   A    
C31   H18   S    
O9    C33   S    
C13   C14   A    
C35   H27   S    
C17   H3    S    
C18   N1    A    
C23   O6    A    
C25   C29   S    
O7    Zn1   S    
C33   H22   S    
C25   O7    A    
C4    C6    S    
O6    Zn2   S    
C31   H16   S    
C22   H7    S    
C27   C31   S    
O3    Zn1   S    
C7    C28   T    
C33   H23   S    
C14   C23   S    
C3    C30   S    
C32   H19   S    
C4    C26   S    
C6    C27   S    
C34   C35   S    
C2    C27   S    
C9    C17   S    
C26   C30   S    
O8    Zn2   S    
N1    Zn2   S    
C35   H28   S    
C6    H10   S    
C2    C5    S    
C3    C4    S    
C12   O4    A    
O1    Zn1   S    
C5    H11   S    
C24   C32   S    
C32   H21   S    
C1    C10   S    
C25   O8    A    
C3    C5    S    
C19   H4    S    
C16   H15   S    
C12   O3    A    
C1    O1    A    
C22   H6    S    
C2    C30   S    
C33   C34   S    
C9    C15   A    
C11   C13   A    
C23   O5    A    
C22   C24   S    
C20   N2    A    
C10   C11   A    
C3    O9    S    
C17   H2    S    
C14   C15   A    
C30   H12   S    
C34   H25   S    
C21   C22   S    
C1    O2    A    
C13   H14   S    
O5    Zn1   S    
N2    Zn1   S    
C21   N2    A    
