data_mof_unit_60652.cif
_audit_creation_date              2012-12-10T18:54:03-0500
_audit_creation_method            fapswitch 2.2
_symmetry_space_group_name_H-M    P1
_symmetry_Int_Tables_number       1
_space_group_crystal_system       triclinic
_cell_length_a                    19.35369
_cell_length_b                    19.446936
_cell_length_c                    19.490296
_cell_angle_alpha                 84.795551
_cell_angle_beta                  95.072733
_cell_angle_gamma                 90.192136
_cell_volume                      7276.62663943

loop_
_atom_site_label
_atom_site_type_symbol
_atom_type_description
_atom_site_fract_x
_atom_site_fract_y
_atom_site_fract_z
_atom_type_partial_charge
C1    C     C_R   0.311673 0.492136 0.492222 0.561630
C2    C     C_2   0.485230 0.983011 0.479540 -0.101138
C3    C     C_2   0.525063 0.017325 0.524599 -0.097395
C4    C     C_R   0.687985 0.508541 0.506703 0.523640
C5    C     C_R   0.514278 0.236511 0.514469 0.049156
C6    C     C_R   0.762869 0.516152 0.504778 0.060551
C7    C     C_R   0.792944 0.517578 0.441499 0.085010
C8    C     C_R   0.864703 0.522520 0.441043 -0.136754
C9    C     C_R   0.906792 0.524087 0.502992 0.045957
C10   C     C_R   0.877003 0.526163 0.566016 0.108870
C11   C     C_R   0.804683 0.522603 0.566332 -0.136316
C12   C     C_R   0.482816 0.907277 0.484728 0.015397
C13   C     C_R   0.130135 0.470576 0.544908 -0.146335
C14   C     C_R   0.202022 0.477205 0.549072 0.050485
C15   C     C_R   0.197376 0.489410 0.422818 0.096856
C16   C     C_R   0.508096 0.492233 0.688766 0.501226
C17   C     C_R   0.124955 0.482332 0.419134 0.114997
C18   C     C_R   0.091636 0.473167 0.480649 0.051090
C19   C     C_2   0.982240 0.522985 0.501431 -0.112453
C20   C     C_2   0.016069 0.470148 0.478865 0.076487
C21   C     C_R   0.235957 0.486908 0.487925 0.088528
C22   C     C_R   0.493553 0.516062 0.236259 0.093381
C23   C     C_R   0.467889 0.874040 0.424474 -0.123875
C24   C     C_R   0.501354 0.457259 0.200694 0.056950
C25   C     C_R   0.509245 0.465058 0.130217 -0.137457
C26   C     C_R   0.509253 0.530825 0.094353 0.004129
C27   C     C_R   0.501588 0.590067 0.129540 0.112475
C28   C     C_R   0.491957 0.508166 0.311334 0.564841
C29   C     C_R   0.493199 0.582617 0.200664 0.106118
C30   C     C_R   0.516395 0.552445 0.866388 -0.136920
C31   C     C_R   0.524536 0.550822 0.796505 -0.137212
C32   C     C_R   0.482460 0.433103 0.801361 -0.100621
C33   C     C_R   0.475214 0.433634 0.872059 0.113670
C34   C     C_R   0.469248 0.802283 0.427403 -0.151464
C35   C     C_R   0.491862 0.494078 0.904827 0.072870
C36   C     C_2   0.517657 0.536716 0.020042 -0.154334
C37   C     C_2   0.481712 0.495484 0.978650 -0.124308
C38   C     C_R   0.506723 0.491557 0.763524 0.017425
C39   C     C_R   0.508846 0.311850 0.509135 0.510912
C40   C     C_R   0.491003 0.688060 0.492204 0.529865
C41   C     C_R   0.485716 0.763060 0.490695 0.080860
C42   C     C_R   0.497341 0.796110 0.552017 0.096656
C43   C     C_R   0.495224 0.867975 0.548693 -0.102305
C44   C     C_R   0.535224 0.132874 0.458510 0.101051
C45   C     C_R   0.530252 0.204560 0.456134 -0.145672
C46   C     C_R   0.505364 0.196250 0.577069 0.095797
C47   C     C_R   0.510729 0.124354 0.579224 -0.129030
C48   C     C_R   0.524070 0.092709 0.520168 0.052681
H1    H     H_    0.781098 0.522601 0.614738 0.118043
H2    H     H_    0.471441 0.769713 0.649081 0.218957
H3    H     H_    0.503366 0.092743 0.626745 0.101135
H4    H     H_    0.766195 0.472825 0.353485 0.230969
H5    H     H_    0.760381 0.559937 0.345648 0.222207
H6    H     H_    0.221421 0.515472 0.641795 0.225819
H7    H     H_    0.230634 0.428916 0.643417 0.240744
H8    H     H_    0.212713 0.541860 0.330929 0.255999
H9    H     H_    0.220461 0.454955 0.332555 0.245703
H10   H     H_    0.949758 0.421857 0.411838 0.224281
H11   H     H_    0.950983 0.389269 0.495911 0.242247
H12   H     H_    0.011455 0.565406 0.522298 0.132103
H13   H     H_    0.947576 0.483365 0.639684 0.226628
H14   H     H_    0.890162 0.534271 0.670577 0.227262
H15   H     H_    0.104054 0.464051 0.592063 0.122259
H16   H     H_    0.887691 0.524552 0.392177 0.106386
H17   H     H_    0.049513 0.525701 0.350118 0.230372
H18   H     H_    0.059930 0.439331 0.347984 0.253106
H19   H     H_    0.547601 0.364947 0.229874 0.234180
H20   H     H_    0.460616 0.361538 0.212245 0.223697
H21   H     H_    0.542146 0.596868 0.767696 0.142396
H22   H     H_    0.445096 0.459237 0.000836 0.162043
H23   H     H_    0.538212 0.235247 0.408231 0.135329
H24   H     H_    0.549161 0.666008 0.073351 0.225355
H25   H     H_    0.462303 0.660501 0.053204 0.238166
H26   H     H_    0.531058 0.673079 0.231585 0.241257
H27   H     H_    0.443668 0.670967 0.215109 0.253947
H28   H     H_    0.554430 0.574010 0.000365 0.121025
H29   H     H_    0.516282 0.419361 0.103564 0.118291
H30   H     H_    0.537384 0.254258 0.654325 0.220489
H31   H     H_    0.483024 0.191142 0.678537 0.217050
H32   H     H_    0.492499 0.353508 0.944690 0.222242
H33   H     H_    0.437110 0.334682 0.878014 0.228458
H34   H     H_    0.468933 0.387086 0.775769 0.130210
H35   H     H_    0.555829 0.990457 0.568028 0.106433
H36   H     H_    0.457004 0.903682 0.374899 0.117745
H37   H     H_    0.515766 0.115883 0.357978 0.222066
H38   H     H_    0.600795 0.120611 0.385460 0.235104
H39   H     H_    0.527425 0.600309 0.889300 0.105899
H40   H     H_    0.459413 0.777454 0.379951 0.133966
H41   H     H_    0.454821 0.011389 0.436611 0.145805
H42   H     H_    0.502826 0.892464 0.596458 0.097490
H43   H     H_    0.557664 0.771966 0.640864 0.229317
N1    N     N_3   0.509818 0.756890 0.617840 -0.605069
N2    N     N_3   0.487003 0.642599 0.237523 -0.601750
N3    N     N_3   0.492190 0.228398 0.638250 -0.588810
N4    N     N_3   0.450945 0.373174 0.910725 -0.645527
N5    N     N_3   0.552922 0.101089 0.398863 -0.632508
N6    N     N_3   0.750657 0.515417 0.377540 -0.598186
N7    N     N_3   0.240366 0.475938 0.615558 -0.600633
N8    N     N_3   0.232177 0.497504 0.360581 -0.595616
N9    N     N_3   0.981615 0.409107 0.457226 -0.623606
N10   N     N_3   0.920435 0.530082 0.629279 -0.630892
N11   N     N_3   0.086152 0.485953 0.352681 -0.641389
N12   N     N_3   0.500807 0.389371 0.236117 -0.612586
N13   N     N_3   0.501426 0.657969 0.093949 -0.646286
O1    O     O_3   0.500000 0.500000 0.500000 -0.465656
O2    O     O_R   0.467830 0.341070 0.546160 -0.508876
O3    O     O_R   0.450560 0.655630 0.450550 -0.552220
O4    O     O_R   0.545840 0.347670 0.467560 -0.555601
O5    O     O_R   0.535760 0.655640 0.535740 -0.505714
O6    O     O_R   0.545870 0.536170 0.656040 -0.543099
O7    O     O_R   0.450550 0.545430 0.340370 -0.518624
O8    O     O_R   0.347960 0.451240 0.536460 -0.513140
O9    O     O_R   0.655630 0.467150 0.467130 -0.510226
O10   O     O_R   0.340780 0.536140 0.450970 -0.522195
O11   O     O_R   0.655640 0.545460 0.545430 -0.555479
O12   O     O_R   0.467850 0.451260 0.656340 -0.539887
O13   O     O_R   0.535740 0.467130 0.347260 -0.513638
Zn1   Zn    Zn3+2 0.558310 0.558310 0.558290 0.946207
Zn2   Zn    Zn3+2 0.446830 0.436990 0.558720 0.962982
Zn3   Zn    Zn3+2 0.558290 0.446420 0.446420 0.955027
Zn4   Zn    Zn3+2 0.436570 0.558290 0.436570 0.964844

loop_
_geom_bond_atom_site_label_1
_geom_bond_atom_site_label_2
_ccdc_geom_bond_type
C39   O2    A    
C1    C21   S    
C22   C29   A    
O2    Zn2   S    
C45   H23   S    
C41   C42   A    
C3    C48   S    
C4    O11   A    
C19   C20   D    
H20   N12   S    
C2    C12   S    
O6    Zn1   S    
H19   N12   S    
C7    C8    A    
C27   N13   S    
C12   C23   A    
C26   C27   A    
C13   C18   A    
C25   H29   S    
C14   C21   A    
C36   C37   D    
C35   C37   S    
C12   C43   A    
C28   O13   A    
C1    O8    A    
C30   C31   A    
H33   N4    S    
H37   N5    S    
C27   C29   A    
H9    N8    S    
C16   O12   A    
H4    N6    S    
O4    Zn3   S    
C36   H28   S    
O10   Zn4   S    
C9    C19   S    
H25   N13   S    
C8    C9    A    
C13   H15   S    
O1    Zn3   S    
C32   C38   A    
C9    C10   A    
C18   C20   S    
H14   N10   S    
C23   C34   A    
C22   C28   S    
C13   C14   A    
H11   N9    S    
H26   N2    S    
C34   C41   A    
H17   N11   S    
C33   N4    S    
O5    Zn1   S    
C14   N7    S    
C28   O7    A    
C39   O4    A    
C43   H42   S    
C23   H36   S    
C16   O6    A    
C4    O9    A    
H10   N9    S    
C24   C25   A    
H31   N3    S    
C4    C6    S    
O13   Zn3   S    
C6    C11   A    
H18   N11   S    
C47   H3    S    
H24   N13   S    
H5    N6    S    
C25   C26   A    
C5    C45   A    
C2    H41   S    
H13   N10   S    
C17   N11   S    
C11   H1    S    
O9    Zn3   S    
C47   C48   A    
C46   N3    S    
C31   H21   S    
O11   Zn1   S    
C17   C18   A    
O1    Zn4   S    
C34   H40   S    
H32   N4    S    
C6    C7    A    
H38   N5    S    
O7    Zn4   S    
C8    H16   S    
C40   O3    A    
C30   C35   A    
C26   C36   S    
C40   C41   S    
C5    C39   S    
C3    H35   S    
C22   C24   A    
O1    Zn1   S    
C1    O10   A    
O3    Zn4   S    
H43   N1    S    
C44   C45   A    
H27   N2    S    
H2    N1    S    
C15   C17   A    
C46   C47   A    
C44   N5    S    
C7    N6    S    
C10   N10   S    
O1    Zn2   S    
C15   N8    S    
O8    Zn2   S    
C31   C38   A    
C40   O5    A    
C19   H12   S    
C32   H34   S    
C5    C46   A    
O12   Zn2   S    
C24   N12   S    
C32   C33   A    
C2    C3    D    
C20   N9    S    
C29   N2    S    
H30   N3    S    
H7    N7    S    
C33   C35   A    
C42   N1    S    
C10   C11   A    
C15   C21   A    
C42   C43   A    
H6    N7    S    
H8    N8    S    
C30   H39   S    
C37   H22   S    
C44   C48   A    
C16   C38   S    
