data_mof_unit_58741.cif
_audit_creation_date              2012-12-10T18:19:08-0500
_audit_creation_method            fapswitch 2.2
_symmetry_space_group_name_H-M    P1
_symmetry_Int_Tables_number       1
_space_group_crystal_system       triclinic
_cell_length_a                    14.902119
_cell_length_b                    14.185374
_cell_length_c                    11.499143
_cell_angle_alpha                 90.311528
_cell_angle_beta                  90.040723
_cell_angle_gamma                 89.869099
_cell_volume                      2430.78548024

loop_
_atom_site_label
_atom_site_type_symbol
_atom_type_description
_atom_site_fract_x
_atom_site_fract_y
_atom_site_fract_z
_atom_type_partial_charge
C1    C     C_R   0.327183 0.500052 0.498753 0.938543
C2    C     C_R   0.672713 0.499586 0.501722 0.922432
C3    C     C_R   0.905448 0.455593 0.408769 0.021184
C4    C     C_R   0.094355 0.521790 0.605128 0.050923
C5    C     C_R   0.954688 0.550087 0.705890 -0.332058
C6    C     C_R   0.044755 0.421062 0.310952 -0.309140
C7    C     C_R   0.048793 0.550713 0.706561 0.480887
C8    C     C_R   0.951667 0.419707 0.311476 0.491475
C9    C     C_R   0.578487 0.799568 0.480158 0.445049
C10   C     C_R   0.428280 0.201556 0.546477 0.453929
C11   C     C_R   0.421563 0.800890 0.517507 0.460975
C12   C     C_R   0.571046 0.200485 0.453034 0.455002
C13   C     C_R   0.423164 0.900520 0.532305 -0.072313
C14   C     C_R   0.575788 0.100835 0.462877 -0.069311
C15   C     C_R   0.577820 0.899963 0.470823 -0.085712
C16   C     C_R   0.424933 0.101473 0.541120 -0.065825
C17   C     C_R   0.500860 0.950444 0.503264 0.013073
C18   C     C_R   0.500776 0.051017 0.503301 0.007756
C19   C     C_R   0.346977 0.951734 0.568628 -0.182729
C20   C     C_R   0.652456 0.049596 0.429284 -0.184948
C21   C     C_R   0.653218 0.950945 0.432318 -0.177982
C22   C     C_R   0.347862 0.050545 0.573014 -0.182208
C23   C     C_R   0.502632 0.499678 0.282216 0.900501
C24   C     C_R   0.499686 0.500151 0.717890 0.874607
C25   C     C_1   0.506312 0.498803 0.161726 -0.196337
C26   C     C_1   0.501485 0.500051 0.838408 -0.190151
C27   C     C_1   0.506740 0.498588 0.059370 -0.013224
C28   C     C_1   0.504013 0.499219 0.940693 -0.015447
C29   C     C_R   0.812674 0.462966 0.407786 -0.298312
C30   C     C_R   0.187434 0.525239 0.600181 -0.286719
C31   C     C_R   0.767985 0.496778 0.505364 -0.169037
C32   C     C_R   0.231664 0.499445 0.498566 -0.179273
C33   C     C_R   0.813185 0.519878 0.608067 0.409002
C34   C     C_R   0.185773 0.470765 0.398641 0.454504
C35   C     C_R   0.906922 0.518239 0.608491 -0.011419
C36   C     C_R   0.092626 0.459295 0.404815 -0.050566
C37   C     C_R   0.953076 0.486214 0.508573 -0.042966
C38   C     C_R   0.046699 0.488183 0.506706 -0.045713
H1    H     H_    0.774393 0.442842 0.331337 0.183541
H2    H     H_    0.226410 0.547772 0.675013 0.201218
H3    H     H_    0.918525 0.577059 0.780312 0.194817
H4    H     H_    0.078942 0.392365 0.235812 0.182400
H5    H     H_    0.286106 0.915527 0.593407 0.180189
H6    H     H_    0.712371 0.085523 0.400458 0.170117
H7    H     H_    0.713076 0.914930 0.403020 0.167594
H8    H     H_    0.287072 0.086757 0.598982 0.174895
N1    N     N_R   0.500000 0.750030 0.500000 -0.188321
N2    N     N_R   0.500000 0.249970 0.500000 -0.194447
O1    O     O_R   0.367850 0.580280 0.500030 -0.600524
O2    O     O_R   0.632150 0.419720 0.499970 -0.594277
O3    O     O_R   0.632150 0.580280 0.499970 -0.559963
O4    O     O_R   0.367850 0.419720 0.500030 -0.554716
O5    O     O_R   0.500010 0.580270 0.334450 -0.618204
O6    O     O_R   0.499990 0.419730 0.665550 -0.656346
O7    O     O_R   0.499990 0.580270 0.665550 -0.595383
O8    O     O_R   0.500010 0.419730 0.334450 -0.625828
Zn1   Zn    Zn3+2 0.500000 0.607200 0.500000 1.000601
Zn2   Zn    Zn3+2 0.500000 0.392800 0.500000 0.984014
O9    O     O_3   0.765903 0.549887 0.705088 -0.645248
C39   C     C_3   0.751366 0.472190 0.779166 0.067074
H9    H     H_    0.809098 0.421875 0.781403 0.137885
H10   H     H_    0.690486 0.433414 0.750361 0.159779
C40   C     C_3   0.736926 0.508283 0.902535 -0.807186
H11   H     H_    0.683076 0.562421 0.903919 0.268246
H12   H     H_    0.717813 0.449069 0.960184 0.211719
H13   H     H_    0.799674 0.540626 0.935817 0.246063
O10   O     O_3   0.233152 0.457188 0.295798 -0.613226
C41   C     C_3   0.209751 0.528419 0.214817 0.054850
H14   H     H_    0.179751 0.592855 0.255232 0.121997
H15   H     H_    0.161512 0.499474 0.150947 0.153609
C42   C     C_3   0.291780 0.558410 0.146962 -0.832210
H16   H     H_    0.321098 0.496278 0.101801 0.267134
H17   H     H_    0.272485 0.611609 0.080935 0.215597
H18   H     H_    0.341572 0.590300 0.206818 0.247578
O11   O     O_3   0.097865 0.589186 0.798546 -0.649592
C43   C     C_3   0.065599 0.561806 0.909262 0.071337
H19   H     H_    0.124107 0.537061 0.960349 0.154988
H20   H     H_    0.017984 0.501233 0.907040 0.130732
C44   C     C_3   0.024643 0.647276 0.972125 -0.358518
H21   H     H_    0.078379 0.699368 0.991190 0.230103
H22   H     H_    0.974331 0.682093 0.915399 0.225830
C45   C     C_3   0.979137 0.619451 0.085757 -0.930122
H23   H     H_    0.926055 0.566248 0.069361 0.287070
H24   H     H_    0.947832 0.682626 0.126367 0.263599
H25   H     H_    0.028764 0.590117 0.147551 0.255377
O12   O     O_3   0.907210 0.393369 0.210778 -0.665560
C46   C     C_3   0.878207 0.298832 0.219264 0.049080
H26   H     H_    0.820434 0.291015 0.159200 0.180820
H27   H     H_    0.853416 0.280290 0.307815 0.149688
C47   C     C_3   0.952182 0.230234 0.180541 -0.358592
H28   H     H_    0.978717 0.252157 0.094531 0.232863
H29   H     H_    0.008036 0.231521 0.244519 0.219074
C48   C     C_3   0.916856 0.129588 0.171171 -0.960998
H30   H     H_    0.889494 0.106336 0.256147 0.259653
H31   H     H_    0.972389 0.081408 0.145767 0.268962
H32   H     H_    0.863384 0.125163 0.104015 0.267700
O13   O     O_3   0.658223 0.751807 0.462465 -0.609692
C49   C     C_3   0.715474 0.765305 0.559984 0.098233
H33   H     H_    0.700719 0.710852 0.626226 0.207311
H34   H     H_    0.707353 0.835262 0.603587 0.112917
C50   C     C_3   0.813300 0.756330 0.520934 -0.323080
H35   H     H_    0.825213 0.685228 0.483539 0.237837
H36   H     H_    0.827575 0.808431 0.451711 0.207693
C51   C     C_3   0.877844 0.773466 0.621932 -0.933883
H37   H     H_    0.873747 0.848128 0.651076 0.256419
H38   H     H_    0.947636 0.758270 0.593556 0.271310
H39   H     H_    0.861141 0.727178 0.696263 0.284346
O14   O     O_3   0.356039 0.250318 0.592673 -0.619493
C52   C     C_3   0.371753 0.271776 0.711580 0.159726
H40   H     H_    0.353969 0.347127 0.724964 0.177428
H41   H     H_    0.442932 0.262325 0.740117 0.123391
C53   C     C_3   0.310816 0.213374 0.790230 -0.435286
H42   H     H_    0.240564 0.217019 0.757964 0.239223
H43   H     H_    0.333237 0.138704 0.789165 0.223363
C54   C     C_3   0.313788 0.249403 0.915607 -0.926220
H44   H     H_    0.289260 0.323354 0.920484 0.262388
H45   H     H_    0.270119 0.204912 0.970898 0.270261
H46   H     H_    0.383442 0.246090 0.949930 0.263493
O15   O     O_3   0.339069 0.756690 0.515630 -0.617512
C55   C     C_3   0.309632 0.746997 0.398428 0.142724
H47   H     H_    0.260520 0.688383 0.396034 0.176489
H48   H     H_    0.365119 0.726847 0.338018 0.133068
C56   C     C_3   0.261191 0.835374 0.353971 -0.426185
H49   H     H_    0.209287 0.857754 0.417767 0.237510
H50   H     H_    0.310130 0.893451 0.342510 0.230015
C57   C     C_3   0.215885 0.816855 0.236948 -0.950670
H51   H     H_    0.265803 0.791605 0.172115 0.267946
H52   H     H_    0.185173 0.883120 0.204613 0.272128
H53   H     H_    0.162076 0.763431 0.246335 0.260753
O16   O     O_3   0.638040 0.247603 0.394108 -0.632207
C58   C     C_3   0.612076 0.260065 0.276306 0.136225
H54   H     H_    0.640394 0.328432 0.247359 0.164964
H55   H     H_    0.537922 0.263771 0.263281 0.150708
C59   C     C_3   0.649242 0.181755 0.197573 -0.445862
H56   H     H_    0.721150 0.169598 0.217220 0.230004
H57   H     H_    0.612047 0.115355 0.213469 0.234020
C60   C     C_3   0.638907 0.206940 0.069283 -0.952860
H58   H     H_    0.676188 0.272570 0.049201 0.256300
H59   H     H_    0.566919 0.217133 0.047358 0.268090
H60   H     H_    0.666217 0.148900 0.014550 0.269684

loop_
_geom_bond_atom_site_label_1
_geom_bond_atom_site_label_2
_ccdc_geom_bond_type
C46   H26   S    
C40   H12   S    
C48   H30   S    
C14   C18   A    
C10   O14   S    
C43   C44   S    
C12   N2    A    
C58   C59   S    
C11   O15   S    
C59   C60   S    
C51   H38   S    
O13   C49   S    
C56   H49   S    
C24   O7    A    
C60   H59   S    
C57   H51   S    
C12   O16   S    
C39   C40   S    
C35   C37   A    
C24   C26   S    
C1    O4    A    
C52   H41   S    
C56   H50   S    
C24   O6    A    
C54   H44   S    
C49   H33   S    
O1    Zn1   S    
O14   C52   S    
C53   C54   S    
C39   H10   S    
C3    C29   A    
C51   H37   S    
C2    O2    A    
C42   H18   S    
C11   N1    A    
C55   H48   S    
C41   H14   S    
C54   H45   S    
C57   H52   S    
C31   C33   A    
O3    Zn1   S    
C8    O12   S    
C55   C56   S    
C40   H13   S    
O9    C39   S    
C33   O9    S    
C4    C7    A    
C53   H43   S    
C53   H42   S    
C20   H6    S    
C19   H5    S    
C23   O5    A    
C21   H7    S    
O8    Zn2   S    
C60   H60   S    
C13   C19   A    
O10   C41   S    
O2    Zn2   S    
C50   H35   S    
C14   C20   A    
C23   O8    A    
C19   C22   A    
C43   H19   S    
C3    C8    A    
C52   C53   S    
C5    C7    A    
O5    Zn1   S    
O12   C46   S    
C56   C57   S    
C7    O11   S    
C57   H53   S    
C1    C32   S    
C40   H11   S    
C16   C22   A    
C2    C31   S    
C32   C34   A    
O11   C43   S    
C59   H57   S    
C37   C38   A    
N1    Zn1   S    
C47   H29   S    
C54   H46   S    
C29   H1    S    
C17   C18   A    
C30   H2    S    
C16   C18   A    
O4    Zn2   S    
C41   H15   S    
C22   H8    S    
C12   C14   A    
C9    N1    A    
C48   H32   S    
C45   H24   S    
O7    Zn1   S    
C10   N2    A    
C58   H54   S    
C49   C50   S    
C55   H47   S    
C47   C48   S    
C42   H17   S    
O6    Zn2   S    
C15   C17   A    
C5    H3    S    
C9    O13   S    
C43   H20   S    
C58   H55   S    
C34   O10   S    
C44   C45   S    
C6    C8    A    
O15   C55   S    
C44   H22   S    
N2    Zn2   S    
C59   H56   S    
C25   C27   T    
C45   H25   S    
C60   H58   S    
C26   C28   T    
C13   C17   A    
C46   H27   S    
O16   C58   S    
C9    C15   A    
C42   H16   S    
C29   C31   A    
C10   C16   A    
C52   H40   S    
C30   C32   A    
C11   C13   A    
C47   H28   S    
C48   H31   S    
C41   C42   S    
C5    C35   A    
C36   C38   A    
C33   C35   A    
C6    C36   A    
C34   C36   A    
C23   C25   S    
C49   H34   S    
C2    O3    A    
C44   H21   S    
C15   C21   A    
C20   C21   A    
C3    C37   A    
C50   H36   S    
C45   H23   S    
C6    H4    S    
C46   C47   S    
C27   C28   S    
C39   H9    S    
C50   C51   S    
C4    C38   A    
C1    O1    A    
C51   H39   S    
C4    C30   A    
