data_mof_unit_27186.cif
_audit_creation_date              2012-12-10T16:51:17-0500
_audit_creation_method            fapswitch 2.2
_symmetry_space_group_name_H-M    P1
_symmetry_Int_Tables_number       1
_space_group_crystal_system       triclinic
_cell_length_a                    27.791705
_cell_length_b                    8.742001
_cell_length_c                    7.581573
_cell_angle_alpha                 103.3194
_cell_angle_beta                  94.44075
_cell_angle_gamma                 95.660043
_cell_volume                      1774.13049873

loop_
_atom_site_label
_atom_site_type_symbol
_atom_type_description
_atom_site_fract_x
_atom_site_fract_y
_atom_site_fract_z
_atom_type_partial_charge
C1    C     C_R   0.497697 0.200402 0.454690 0.826205
C2    C     C_R   0.503118 0.799570 0.545046 0.871654
C3    C     C_R   0.102307 0.505023 0.504932 -0.041926
C4    C     C_R   0.897895 0.501175 0.495872 -0.041885
C5    C     C_R   0.124834 0.376973 0.542584 -0.017921
C6    C     C_R   0.875355 0.629212 0.458232 -0.017922
C7    C     C_R   0.096538 0.248631 0.577785 -0.156013
C8    C     C_R   0.903653 0.757607 0.423135 -0.156023
C9    C     C_R   0.131224 0.633904 0.469223 -0.019282
C10   C     C_R   0.868987 0.372236 0.531483 -0.019447
C11   C     C_R   0.354850 0.502425 0.503718 -0.033748
C12   C     C_R   0.645196 0.499155 0.496382 -0.030353
C13   C     C_R   0.971201 0.371540 0.536180 0.044420
C14   C     C_R   0.029006 0.634706 0.464683 0.044382
C15   C     C_R   0.977732 0.633692 0.462274 0.046057
C16   C     C_R   0.022471 0.372571 0.538633 0.046087
C17   C     C_R   0.949175 0.502129 0.498080 0.067783
C18   C     C_R   0.051029 0.504114 0.502785 0.067780
C19   C     C_R   0.940843 0.243878 0.570659 -0.215128
C20   C     C_R   0.059368 0.762326 0.430126 -0.215168
C21   C     C_R   0.890896 0.244618 0.568318 -0.143972
C22   C     C_R   0.109317 0.761534 0.432388 -0.143870
C23   C     C_R   0.407717 0.500084 0.501302 0.773478
C24   C     C_R   0.592269 0.499529 0.498617 0.761976
C25   C     C_R   0.046496 0.246096 0.575937 -0.212029
C26   C     C_R   0.953702 0.760182 0.425033 -0.211990
C27   C     C_2   0.487528 0.033343 0.442047 -0.047987
C28   C     C_2   0.514497 0.966230 0.556196 -0.021632
C29   C     C_R   0.175450 0.380027 0.543490 0.534503
C30   C     C_R   0.824728 0.626061 0.457221 0.534397
C31   C     C_R   0.181708 0.632073 0.471065 0.537827
C32   C     C_R   0.818504 0.373969 0.529528 0.537972
C33   C     C_R   0.284022 0.536225 0.670943 -0.098541
C34   C     C_R   0.716153 0.468410 0.329406 -0.101479
C35   C     C_R   0.334133 0.535335 0.669720 -0.228073
C36   C     C_R   0.665977 0.467366 0.330452 -0.221230
C37   C     C_R   0.324543 0.472896 0.339122 -0.218993
C38   C     C_R   0.675531 0.530418 0.661088 -0.220090
C39   C     C_R   0.274508 0.474874 0.340784 -0.105075
C40   C     C_R   0.725632 0.530437 0.659597 -0.101972
C41   C     C_R   0.254130 0.505848 0.506541 0.363053
C42   C     C_R   0.746051 0.499858 0.493909 0.362751
Cu1   Cu    Cu3+1 0.505380 0.517380 0.684380 0.917894
Cu2   Cu    Cu3+1 0.494620 0.482620 0.315620 0.922337
H1    H     H_    0.339379 0.447781 0.208962 0.157369
H2    H     H_    0.660659 0.555262 0.791188 0.156556
H3    H     H_    0.251478 0.451513 0.213313 0.142092
H4    H     H_    0.748673 0.554699 0.787137 0.141581
H5    H     H_    0.112986 0.148684 0.607098 0.183596
H6    H     H_    0.887199 0.857554 0.393853 0.183541
H7    H     H_    0.643580 0.440409 0.201557 0.145507
H8    H     H_    0.356519 0.561596 0.798553 0.145059
H9    H     H_    0.731824 0.443775 0.200898 0.138193
H10   H     H_    0.268391 0.561235 0.799517 0.137944
H11   H     H_    0.869449 0.143929 0.595907 0.196304
H12   H     H_    0.130768 0.862183 0.404726 0.196380
H13   H     H_    0.954217 0.140390 0.600520 0.137805
H14   H     H_    0.045991 0.865802 0.400232 0.137844
H15   H     H_    0.027944 0.142167 0.604797 0.134126
H16   H     H_    0.972260 0.864147 0.396268 0.134105
N1    N     N_R   0.202650 0.506244 0.507673 -0.471081
N2    N     N_R   0.797544 0.499771 0.492942 -0.471107
N3    N     N_2   0.486510 0.456430 0.038510 -0.075214
N4    N     N_2   0.513490 0.543570 0.961490 -0.077006
O1    O     O_R   0.503500 0.286120 0.619780 -0.611106
O2    O     O_R   0.496500 0.713880 0.380220 -0.608552
O3    O     O_R   0.494410 0.256780 0.308360 -0.577833
O4    O     O_R   0.505590 0.743220 0.691640 -0.582014
O5    O     O_R   0.434810 0.514700 0.655690 -0.620070
O6    O     O_R   0.565190 0.485300 0.344310 -0.615194
O7    O     O_R   0.425720 0.485350 0.344280 -0.584150
O8    O     O_R   0.574280 0.514650 0.655720 -0.592755
O9    O     O_2   0.197313 0.257464 0.578509 -0.526919
O10   O     O_2   0.802842 0.748567 0.422172 -0.526867
O11   O     O_2   0.790516 0.250788 0.563230 -0.522748
O12   O     O_2   0.209710 0.755159 0.437232 -0.523266
C43   C     C_3   0.441093 0.370257 0.939987 -0.038072
C44   C     C_3   0.426434 0.216572 0.994485 -0.859115
H17   H     H_    0.413137 0.238907 0.130178 0.270393
H18   H     H_    0.395696 0.146814 0.897550 0.206837
H19   H     H_    0.457076 0.143549 0.987475 0.257732
H20   H     H_    0.411561 0.446972 0.961664 0.145402
H21   H     H_    0.444098 0.326523 0.796418 0.218765
C45   C     C_3   0.558743 0.631467 0.059663 -0.046793
C46   C     C_3   0.572185 0.786790 0.006523 -0.843684
H22   H     H_    0.584631 0.767402 0.869372 0.279763
H23   H     H_    0.541116 0.858072 0.017326 0.252813
H24   H     H_    0.603128 0.856933 0.101995 0.204139
H25   H     H_    0.556055 0.673335 0.203705 0.218918
H26   H     H_    0.588725 0.556766 0.036029 0.146865
C47   C     C_3   0.439335 0.953483 0.332517 -0.440714
C48   C     C_3   0.399880 0.927605 0.456097 -0.793852
H27   H     H_    0.409828 0.846812 0.542458 0.240109
H28   H     H_    0.393911 0.042711 0.545283 0.241706
H29   H     H_    0.365282 0.874217 0.371280 0.258407
H30   H     H_    0.425425 0.029218 0.246803 0.204789
H31   H     H_    0.443303 0.841860 0.233431 0.242857
C49   C     C_3   0.562971 0.043843 0.665460 -0.449778
C50   C     C_3   0.605761 0.965395 0.584796 -0.834155
H32   H     H_    0.640278 0.024744 0.666279 0.265858
H33   H     H_    0.602554 0.838352 0.586321 0.235682
H34   H     H_    0.607292 0.976518 0.442304 0.252557
H35   H     H_    0.571549 0.170975 0.671160 0.243460
H36   H     H_    0.562110 0.034275 0.808622 0.218188

loop_
_geom_bond_atom_site_label_1
_geom_bond_atom_site_label_2
_ccdc_geom_bond_type
Cu1   O8    S    
C8    C26   A    
C14   C18   A    
Cu2   O2    S    
C34   C42   A    
C41   N1    S    
C32   O11   S    
C24   O6    A    
C39   C41   A    
C46   H22   S    
C19   H13   S    
Cu2   O7    S    
C39   H3    S    
C19   C21   A    
C2    O4    A    
C30   O10   S    
C44   H18   S    
C9    C22   A    
C29   O9    S    
C43   H21   S    
C49   H35   S    
C33   H10   S    
C3    C18   A    
C40   H4    S    
C11   C37   A    
C31   N1    A    
N4    C45   S    
C1    O3    A    
C47   H30   S    
Cu1   O4    S    
C1    O1    A    
Cu2   O6    S    
C12   C36   A    
C42   N2    S    
C40   C42   A    
Cu2   N3    S    
C45   H26   S    
Cu1   N4    S    
C5    C29   A    
C46   H23   S    
C10   C21   A    
C29   N1    A    
C13   C19   A    
C14   C20   A    
C45   C46   S    
C7    H5    S    
C4    C6    A    
C47   C48   S    
C5    C7    A    
C44   H17   S    
C15   C26   A    
C6    C8    A    
C2    O2    A    
C43   C44   S    
C23   O5    A    
C48   H29   S    
Cu1   Cu2   S    
C3    C9    A    
C23   O7    A    
C50   H32   S    
Cu1   O1    S    
C48   H28   S    
C47   H31   S    
C27   C47   S    
C36   H7    S    
C4    C17   A    
C6    C30   A    
C20   C22   A    
C30   N2    A    
C45   H25   S    
C20   H14   S    
C8    H6    S    
C35   H8    S    
C24   O8    A    
C21   H11   S    
N3    C43   S    
C46   H24   S    
C28   C49   S    
C16   C25   A    
C15   C17   A    
C50   H33   S    
C4    C10   A    
C3    C5    A    
C22   H12   S    
C12   C24   S    
C7    C25   A    
C13   C17   A    
C33   C41   A    
C11   C35   A    
C32   N2    A    
C37   C39   A    
C38   C40   A    
C44   H19   S    
C31   O12   S    
C26   H16   S    
C43   H20   S    
C49   H36   S    
C11   C23   S    
C48   H27   S    
C33   C35   A    
C34   C36   A    
C12   C38   A    
C38   H2    S    
C9    C31   A    
N3    N4    D    
C10   C32   A    
C50   H34   S    
C34   H9    S    
C16   C18   A    
C49   C50   S    
C13   C16   A    
C27   C28   D    
C1    C27   S    
C14   C15   A    
Cu2   O3    S    
C2    C28   S    
C25   H15   S    
Cu1   O5    S    
C37   H1    S    
