data_mof_unit_53393.cif
_audit_creation_date              2012-10-26T20:17:39-0400
_audit_creation_method            fapswitch 2.2
_symmetry_space_group_name_H-M    P1
_symmetry_Int_Tables_number       1
_space_group_crystal_system       triclinic
_cell_length_a                    27.78354
_cell_length_b                    8.680301
_cell_length_c                    7.448293
_cell_angle_alpha                 102.96397
_cell_angle_beta                  94.820787
_cell_angle_gamma                 93.214672
_cell_volume                      1739.1223936

loop_
_atom_site_label
_atom_site_type_symbol
_atom_type_description
_atom_site_fract_x
_atom_site_fract_y
_atom_site_fract_z
_atom_type_partial_charge
C1    C     C_R   0.498502 0.199613 0.453131 0.555018
C2    C     C_R   0.867450 0.373344 0.440595 0.006434
C3    C     C_R   0.354383 0.489591 0.502605 -0.022290
C4    C     C_R   0.645617 0.510409 0.497395 -0.022290
C5    C     C_R   0.968954 0.356957 0.436147 0.035473
C6    C     C_R   0.031046 0.643043 0.563853 0.035473
C7    C     C_R   0.979814 0.648443 0.547349 0.007023
C8    C     C_R   0.020186 0.351558 0.452651 0.007023
C9    C     C_R   0.949222 0.505983 0.494699 0.012125
C10   C     C_R   0.050778 0.494017 0.505301 0.012125
C11   C     C_R   0.935938 0.221691 0.355983 0.052208
C12   C     C_R   0.501498 0.800387 0.546869 0.555018
C13   C     C_R   0.064062 0.778309 0.644017 0.052208
C14   C     C_R   0.886629 0.229867 0.371069 -0.049907
C15   C     C_R   0.113371 0.770133 0.628931 -0.049907
C16   C     C_R   0.407429 0.497406 0.501017 0.558005
C17   C     C_R   0.592571 0.502594 0.498982 0.558005
C18   C     C_R   0.042019 0.207353 0.434357 -0.083745
C19   C     C_R   0.957981 0.792648 0.565643 -0.083745
C20   C     C_2   0.497815 0.031661 0.426778 -0.145743
C21   C     C_2   0.502185 0.968339 0.573222 -0.145743
C22   C     C_R   0.173177 0.337743 0.456791 0.453334
C23   C     C_R   0.101834 0.486420 0.507105 -0.079883
C24   C     C_R   0.826823 0.662257 0.543208 0.453333
C25   C     C_R   0.182605 0.619566 0.553819 0.450933
C26   C     C_R   0.817394 0.380434 0.446181 0.450933
C27   C     C_R   0.282774 0.501202 0.672253 0.309691
C28   C     C_R   0.717226 0.498798 0.327747 0.309690
C29   C     C_R   0.333405 0.508516 0.670634 -0.135457
C30   C     C_R   0.666595 0.491484 0.329366 -0.135457
C31   C     C_R   0.324277 0.460711 0.335434 -0.151825
C32   C     C_R   0.675723 0.539289 0.664566 -0.151825
C33   C     C_R   0.274123 0.452807 0.336281 -0.100917
C34   C     C_R   0.898166 0.513580 0.492895 -0.079882
C35   C     C_R   0.725877 0.547193 0.663719 -0.100917
C36   C     C_R   0.253313 0.473978 0.503734 0.276037
C37   C     C_R   0.746687 0.526022 0.496265 0.276037
C38   C     C_R   0.122369 0.338898 0.459891 0.068788
C39   C     C_R   0.877631 0.661102 0.540109 0.068788
C40   C     C_R   0.091998 0.198049 0.426946 0.286648
C41   C     C_R   0.908002 0.801952 0.573054 0.286648
C42   C     C_R   0.132549 0.626656 0.559405 0.006434
Cu1   Cu    Cu3+1 0.505380 0.517380 0.684380 0.967792
Cu2   Cu    Cu3+1 0.494620 0.482620 0.315620 0.967792
H1    H     H_    0.339433 0.444637 0.203791 0.139462
H2    H     H_    0.137365 0.875923 0.684892 0.221874
H3    H     H_    0.020884 0.100538 0.436475 0.136018
H4    H     H_    0.979116 0.899463 0.563525 0.136018
H5    H     H_    0.493722 0.959807 0.285758 0.136581
H6    H     H_    0.506278 0.040193 0.714242 0.136581
H7    H     H_    0.084982 0.966710 0.362734 0.334421
H8    H     H_    0.915018 0.033290 0.637266 0.334420
H9    H     H_    0.713198 0.458322 0.059347 0.312520
H10   H     H_    0.286802 0.541677 0.940653 0.312519
H11   H     H_    0.660567 0.555363 0.796209 0.139462
H12   H     H_    0.461921 0.376739 0.948121 0.239170
H13   H     H_    0.538079 0.623261 0.051879 0.239170
H14   H     H_    0.251273 0.432538 0.206806 0.164568
H15   H     H_    0.748727 0.567462 0.793194 0.164568
H16   H     H_    0.643753 0.470164 0.199679 0.118263
H17   H     H_    0.356247 0.529835 0.800321 0.118263
H18   H     H_    0.862635 0.124077 0.315108 0.221874
I1    I     I_    0.949494 0.011020 0.160510 -0.336913
I2    I     I_    0.050506 0.988980 0.839490 -0.336913
N1    N     N_R   0.201779 0.476837 0.503075 -0.390739
N2    N     N_R   0.798221 0.523164 0.496925 -0.390739
N3    N     N_2   0.486510 0.456430 0.038510 -0.258463
N4    N     N_2   0.513490 0.543570 0.961490 -0.258463
O1    O     O_R   0.503500 0.286120 0.619780 -0.504428
O2    O     O_2   0.805940 0.800302 0.590557 -0.378493
O3    O     O_2   0.787908 0.245581 0.400597 -0.430941
O4    O     O_2   0.212092 0.754419 0.599404 -0.430941
O5    O     O_3   0.111516 0.052463 0.394041 -0.612882
O6    O     O_3   0.888484 0.947537 0.605959 -0.612882
O7    O     O_3   0.738824 0.478652 0.164629 -0.657579
O8    O     O_3   0.261176 0.521348 0.835371 -0.657579
O9    O     O_R   0.496500 0.713880 0.380220 -0.504428
O10   O     O_R   0.494410 0.256780 0.308360 -0.494884
O11   O     O_R   0.505590 0.743220 0.691640 -0.494884
O12   O     O_R   0.434810 0.514700 0.655690 -0.506814
O13   O     O_R   0.565190 0.485300 0.344310 -0.506814
O14   O     O_R   0.425720 0.485350 0.344280 -0.500482
O15   O     O_R   0.574280 0.514650 0.655720 -0.500483
O16   O     O_2   0.194060 0.199698 0.409443 -0.378493

loop_
_geom_bond_atom_site_label_1
_geom_bond_atom_site_label_2
_ccdc_geom_bond_type
C33   H14   S    
C1    O10   A    
C27   C29   A    
Cu1   O15   S    
C18   H3    S    
C24   C39   A    
C24   O2    S    
C39   C41   A    
C23   C42   A    
Cu2   O9    S    
C35   C37   A    
C5    C11   A    
C11   I1    S    
C11   C14   A    
Cu1   O11   S    
C14   H18   S    
C12   O11   A    
C33   C36   A    
C40   O5    S    
C35   H15   S    
C3    C29   A    
C18   C40   A    
C41   O6    S    
Cu1   N4    S    
C30   H16   S    
C31   C33   A    
C32   H11   S    
C24   N2    A    
C2    C34   A    
Cu1   O1    S    
C37   N2    S    
C26   O3    S    
H9    O7    S    
C21   H6    S    
C29   H17   S    
N3    N4    D    
C26   N2    A    
C32   C35   A    
C25   N1    A    
Cu2   O13   S    
C36   N1    S    
Cu1   O12   S    
C12   C21   S    
C1    O1    A    
C34   C39   A    
C16   O12   A    
C22   O16   S    
Cu1   Cu2   S    
C22   N1    A    
C5    C9    A    
C20   H5    S    
C12   O9    A    
C16   O14   A    
C2    C26   A    
C25   O4    S    
C3    C31   A    
C4    C32   A    
H10   O8    S    
C4    C17   S    
C7    C19   A    
C13   C15   A    
C9    C34   A    
C10   C23   A    
H13   N4    S    
C27   O8    S    
H12   N3    S    
C7    C9    A    
C1    C20   S    
C19   H4    S    
H7    O5    S    
C15   C42   A    
C25   C42   A    
C6    C10   A    
C5    C8    A    
C6    C7    A    
C27   C36   A    
C23   C38   A    
Cu2   O14   S    
C28   C30   A    
C6    C13   A    
C38   C40   A    
C13   I2    S    
C28   C37   A    
Cu2   O10   S    
C17   O13   A    
C2    C14   A    
C8    C18   A    
C20   C21   D    
C8    C10   A    
C31   H1    S    
Cu2   N3    S    
H8    O6    S    
C15   H2    S    
C17   O15   A    
C28   O7    S    
C4    C30   A    
C3    C16   S    
C19   C41   A    
C22   C38   A    
