data_mof_unit_47035.cif
_audit_creation_date              2012-12-10T19:46:22-0500
_audit_creation_method            fapswitch 2.2
_symmetry_space_group_name_H-M    P1
_symmetry_Int_Tables_number       1
_space_group_crystal_system       triclinic
_cell_length_a                    10.886734
_cell_length_b                    10.860367
_cell_length_c                    10.420186
_cell_angle_alpha                 90.271397
_cell_angle_beta                  90.550971
_cell_angle_gamma                 89.790615
_cell_volume                      1231.94069971

loop_
_atom_site_label
_atom_site_type_symbol
_atom_type_description
_atom_site_fract_x
_atom_site_fract_y
_atom_site_fract_z
_atom_type_partial_charge
C1    C     C_R   0.495070 0.261537 0.499295 0.794281
C2    C     C_R   0.504931 0.738462 0.500705 0.794296
C3    C     C_R   0.872116 0.499416 0.502155 -0.174409
C4    C     C_R   0.127885 0.500590 0.497843 -0.174399
C5    C     C_R   0.938899 0.441147 0.602169 -0.185752
C6    C     C_R   0.061104 0.558872 0.397838 -0.185737
C7    C     C_R   0.267674 0.223375 0.139432 -0.124392
C8    C     C_R   0.732391 0.776523 0.860447 -0.124315
C9    C     C_R   0.309504 0.173316 0.255333 -0.113714
C10   C     C_R   0.690522 0.826600 0.744571 -0.113572
C11   C     C_R   0.425513 0.116545 0.262611 0.127041
C12   C     C_R   0.574551 0.883454 0.737368 0.127005
C13   C     C_R   0.498560 0.109925 0.152372 -0.158540
C14   C     C_R   0.501588 0.890148 0.847663 -0.158642
C15   C     C_R   0.456533 0.160704 0.036837 -0.153374
C16   C     C_R   0.543657 0.839357 0.963175 -0.153357
C17   C     C_R   0.341157 0.217260 0.030327 -0.120268
C18   C     C_R   0.658991 0.782710 0.969606 -0.120266
C19   C     C_R   0.478924 0.932951 0.387624 -0.249720
C20   C     C_R   0.521078 0.067048 0.612375 -0.249730
C21   C     C_R   0.507812 0.872100 0.502051 -0.074709
C22   C     C_R   0.492194 0.127900 0.497947 -0.074702
C23   C     C_R   0.261539 0.500924 0.499171 0.872651
C24   C     C_R   0.738461 0.499079 0.500829 0.872591
C25   C     C_R   0.531733 0.939974 0.615653 -0.004158
C26   C     C_R   0.468285 0.060026 0.384342 -0.004196
C27   C     C_1   0.500020 0.500010 0.071923 0.096928
C28   C     C_1   0.499981 0.499991 0.928077 0.096873
C29   C     C_R   0.230050 0.783360 0.185524 -0.139725
C30   C     C_R   0.769891 0.216804 0.814604 -0.139711
C31   C     C_R   0.178600 0.729908 0.294415 -0.136029
C32   C     C_R   0.821284 0.270228 0.705667 -0.135839
C33   C     C_R   0.123375 0.613497 0.285524 0.148265
C34   C     C_R   0.876649 0.386576 0.714527 0.148330
C35   C     C_R   0.120640 0.551366 0.166989 -0.109650
C36   C     C_R   0.879579 0.448673 0.833081 -0.109742
C37   C     C_R   0.174050 0.604172 0.059046 -0.155912
C38   C     C_R   0.826229 0.395897 0.941072 -0.155951
C39   C     C_R   0.228472 0.720242 0.068243 -0.119962
C40   C     C_R   0.771670 0.279888 0.931903 -0.119976
C41   C     C_R   0.932341 0.560578 0.402076 0.355795
C42   C     C_R   0.067660 0.439419 0.597912 0.355753
Cu1   Cu    Cu3+1 0.500000 0.500000 0.625300 1.004605
Cu2   Cu    Cu3+1 0.500000 0.500000 0.374700 1.004633
H1    H     H_    0.268334 0.761726 0.984185 0.129988
H2    H     H_    0.731859 0.238422 0.015998 0.129993
H3    H     H_    0.513113 0.155755 0.952160 0.133299
H4    H     H_    0.487142 0.844363 0.047896 0.133326
H5    H     H_    0.269842 0.874326 0.191467 0.128098
H6    H     H_    0.729998 0.125880 0.808685 0.128038
H7    H     H_    0.179835 0.779732 0.384701 0.112035
H8    H     H_    0.819900 0.220425 0.615368 0.111966
H9    H     H_    0.075994 0.462803 0.158220 0.117217
H10   H     H_    0.924343 0.537181 0.841827 0.117277
H11   H     H_    0.171998 0.555744 0.967993 0.150006
H12   H     H_    0.828441 0.444295 0.032140 0.150034
H13   H     H_    0.308654 0.256204 0.940732 0.149708
H14   H     H_    0.691525 0.743752 0.059182 0.149700
H15   H     H_    0.251514 0.178143 0.339119 0.110761
H16   H     H_    0.748449 0.821713 0.660741 0.110740
N1    N     N_1   0.500010 0.499990 0.186410 -0.132432
N2    N     N_1   0.499990 0.500010 0.813590 -0.132447
O1    O     O_R   0.499990 0.319650 0.605810 -0.578526
O2    O     O_R   0.500010 0.680350 0.394190 -0.578499
O3    O     O_R   0.499990 0.319640 0.394190 -0.577923
O4    O     O_R   0.500010 0.680360 0.605810 -0.577930
O5    O     O_R   0.319640 0.500010 0.605810 -0.528942
O6    O     O_R   0.680360 0.499990 0.394190 -0.528927
O7    O     O_R   0.319650 0.500010 0.394190 -0.584800
O8    O     O_R   0.680350 0.499990 0.605810 -0.584812
H17   H     H_    0.587867 0.065728 0.156085 0.128423
H18   H     H_    0.412313 0.934410 0.844010 0.128464
H19   H     H_    0.460897 0.881097 0.300482 0.156137
H20   H     H_    0.539101 0.118902 0.699517 0.156102
O9    O     O_3   0.861946 0.623452 0.311792 -0.735787
H21   H     H_    0.912170 0.684086 0.265404 0.322780
O10   O     O_3   0.138049 0.376520 0.688180 -0.735768
H22   H     H_    0.087834 0.315797 0.734456 0.322775
H23   H     H_    0.177971 0.266167 0.133983 0.120664
H24   H     H_    0.822060 0.733656 0.865831 0.120663

loop_
_geom_bond_atom_site_label_1
_geom_bond_atom_site_label_2
_ccdc_geom_bond_type
C30   C32   A    
C5    C42   A    
C35   H9    S    
C23   O7    A    
C15   H3    S    
Cu1   Cu2   S    
C16   H4    S    
C3    C24   S    
Cu1   O1    S    
C29   H5    S    
O10   H22   S    
Cu2   O2    S    
C40   H2    S    
C19   C21   A    
C20   C25   A    
C15   C17   A    
C23   O5    A    
C19   C26   A    
C32   H8    S    
C21   C25   A    
C27   N1    T    
C18   H14   S    
C7    C17   A    
C6    C41   A    
C1    O3    A    
C31   C33   A    
C39   H1    S    
C30   H6    S    
C1    C22   S    
Cu2   O3    S    
C1    O1    A    
C2    O2    A    
C24   O8    A    
C19   H19   S    
C4    C6    A    
C4    C23   S    
C13   H17   S    
C11   C26   S    
C3    C5    A    
C8    C18   A    
C9    H15   S    
C32   C34   A    
C10   H16   S    
O9    H21   S    
C41   O9    S    
C29   C31   A    
C5    C34   S    
C29   C39   A    
C2    C21   S    
C20   H20   S    
Cu2   O7    S    
C9    C11   A    
C10   C12   A    
Cu1   O5    S    
C20   C22   A    
Cu1   O8    S    
C13   C15   A    
C14   C16   A    
Cu2   O6    S    
C7    H23   S    
C7    C9    A    
C30   C40   A    
C3    C41   A    
C35   C37   A    
C14   H18   S    
C8    C10   A    
C31   H7    S    
C2    O4    A    
Cu2   N1    S    
C6    C33   S    
C12   C25   S    
C36   C38   A    
C12   C14   A    
C37   C39   A    
C38   C40   A    
C11   C13   A    
C4    C42   A    
Cu1   O4    S    
C33   C35   A    
C34   C36   A    
C36   H10   S    
C24   O6    A    
C37   H11   S    
C38   H12   S    
C42   O10   S    
C16   C18   A    
C22   C26   A    
C27   C28   S    
C8    H24   S    
Cu1   N2    S    
C17   H13   S    
C28   N2    T    
