data_mof_unit_56790.cif
_audit_creation_date              2012-12-11T14:36:24-0500
_audit_creation_method            fapswitch 2.2
_symmetry_space_group_name_H-M    P1
_symmetry_Int_Tables_number       1
_space_group_crystal_system       triclinic
_cell_length_a                    13.510175
_cell_length_b                    13.530027
_cell_length_c                    27.453367
_cell_angle_alpha                 90.723048
_cell_angle_beta                  89.762043
_cell_angle_gamma                 60.195743
_cell_volume                      4353.84730798

loop_
_atom_site_label
_atom_site_type_symbol
_atom_type_description
_atom_site_fract_x
_atom_site_fract_y
_atom_site_fract_z
_atom_type_partial_charge
C1    C     C_R   0.620174 0.101920 0.569931 0.542317
C2    C     C_1   0.652990 0.693128 0.656072 -0.057728
C3    C     C_3   0.126118 0.966038 0.102563 -0.236964
C4    C     C_3   0.286209 0.858476 0.385755 -0.283093
C5    C     C_3   0.106861 0.868120 0.208585 -0.326326
C6    C     C_3   0.178485 0.487638 0.329526 -0.336822
C7    C     C_3   0.310292 0.440685 0.191730 -0.321615
C8    C     C_3   0.375232 0.738259 0.759342 -0.323427
C9    C     C_3   0.857752 0.978000 0.381089 -0.377717
C10   C     C_3   0.088426 0.148151 0.739555 -0.097132
C11   C     C_R   0.599812 0.778694 0.568347 0.546607
C12   C     C_3   0.174486 0.062652 0.776154 -0.103215
C13   C     C_1   0.102203 0.198578 0.902858 -0.018150
C14   C     C_1   0.232311 0.137280 0.618249 -0.012408
C15   C     C_3   0.072166 0.248472 0.772778 -0.094861
C16   C     C_3   0.158423 0.162967 0.808601 0.048940
C17   C     C_3   0.170849 0.252755 0.746016 -0.092898
C18   C     C_3   0.186770 0.152593 0.713507 0.053495
C19   C     C_1   0.633330 0.725724 0.614787 -0.016811
C20   C     C_3   0.256798 0.167465 0.782568 -0.100847
C21   C     C_3   0.273344 0.067035 0.749234 -0.103107
C22   C     C_1   0.133594 0.177307 0.860990 -0.061716
C23   C     C_R   0.278125 0.121716 0.569818 0.543626
C24   C     C_1   0.206767 0.145760 0.660796 -0.054489
C25   C     C_3   0.570583 0.280466 0.743412 0.170212
C26   C     C_3   0.559404 0.203129 0.781129 -0.057301
C27   C     C_1   0.693345 0.209937 0.902415 -0.012524
C28   C     C_1   0.635737 0.137515 0.617300 -0.015075
C29   C     C_3   0.672883 0.275715 0.770165 -0.105089
C30   C     C_3   0.750716 0.543074 0.765306 -0.092047
C31   C     C_3   0.663973 0.195103 0.807210 0.018472
C32   C     C_3   0.754648 0.169955 0.738188 -0.140264
C33   C     C_3   0.650740 0.177782 0.711552 0.067810
C34   C     C_3   0.746277 0.089969 0.776147 -0.100999
C35   C     C_R   0.623831 0.100390 0.431651 0.543261
C36   C     C_3   0.641970 0.099455 0.749253 0.012558
C37   C     C_1   0.676451 0.202140 0.859876 -0.059486
C38   C     C_1   0.643733 0.160217 0.659151 -0.045659
C39   C     C_R   0.731567 0.719493 0.359016 -0.126781
C40   C     C_R   0.742128 0.701613 0.308745 0.012922
C41   C     C_3   0.682962 0.638922 0.803563 0.030663
C42   C     C_R   0.753159 0.677156 0.206940 0.016608
C43   C     C_R   0.830820 0.699693 0.231359 -0.136547
C44   C     C_R   0.823140 0.714984 0.281909 -0.140703
C45   C     C_R   0.762396 0.655812 0.156654 -0.141401
C46   C     C_R   0.682518 0.634353 0.133482 -0.003914
C47   C     C_R   0.603398 0.774399 0.430970 0.549066
C48   C     C_R   0.578893 0.673682 0.361367 -0.143044
C49   C     C_R   0.583849 0.661984 0.311072 0.013851
C50   C     C_R   0.665052 0.677122 0.284548 0.065719
C51   C     C_R   0.503400 0.643853 0.286721 -0.136202
C52   C     C_3   0.639760 0.584251 0.735149 -0.094794
C53   C     C_R   0.502140 0.642961 0.236184 -0.138472
C54   C     C_R   0.584046 0.655144 0.209760 0.008692
C55   C     C_R   0.667303 0.670209 0.233733 0.065534
C56   C     C_R   0.587793 0.645444 0.159667 -0.127687
C57   C     C_R   0.644498 0.713290 0.384668 -0.002734
C58   C     C_R   0.198293 0.059276 0.361729 0.133870
C59   C     C_R   0.274746 0.121454 0.432156 0.545679
C60   C     C_R   0.182358 0.069608 0.310850 0.017583
C61   C     C_R   0.156854 0.090362 0.207960 0.051139
C62   C     C_R   0.186512 0.985925 0.230971 0.131880
C63   C     C_3   0.667211 0.667310 0.708012 0.033155
C64   C     C_R   0.195850 0.978135 0.281639 -0.108765
C65   C     C_R   0.143139 0.105071 0.156535 0.139688
C66   C     C_R   0.095532 0.216342 0.137795 0.020197
C67   C     C_R   0.167563 0.251728 0.366557 -0.143586
C68   C     C_R   0.139396 0.267637 0.317476 0.040729
C69   C     C_R   0.153613 0.173834 0.288678 -0.007852
C70   C     C_R   0.101419 0.374511 0.296379 0.152087
C71   C     C_3   0.775410 0.627340 0.737817 0.172007
C72   C     C_R   0.079148 0.386955 0.246685 -0.114961
C73   C     C_R   0.099001 0.293103 0.217521 -0.026405
C74   C     C_3   0.574814 0.678832 0.773704 0.170878
C75   C     C_R   0.136436 0.185504 0.237981 -0.004856
C76   C     C_R   0.077246 0.307724 0.168288 -0.165276
C77   C     C_R   0.206453 0.145766 0.387689 -0.017512
C78   C     C_R   0.561731 0.235398 0.362831 -0.146073
C79   C     C_R   0.565657 0.252204 0.312856 -0.017138
C80   C     C_R   0.570133 0.279809 0.211304 0.043221
C81   C     C_R   0.480626 0.364763 0.240209 0.148383
C82   C     C_R   0.480598 0.350748 0.290871 -0.117841
C83   C     C_3   0.710249 0.721917 0.776367 -0.125313
C84   C     C_R   0.585920 0.297012 0.161996 -0.131310
C85   C     C_3   0.599492 0.762687 0.746360 -0.122521
C86   C     C_R   0.676057 0.210091 0.134674 -0.019853
C87   C     C_R   0.747117 0.061927 0.357009 -0.002594
C88   C     C_R   0.741738 0.068365 0.305900 0.041363
C89   C     C_R   0.652078 0.165514 0.283986 0.038806
C90   C     C_R   0.821813 0.978527 0.276079 -0.122456
C91   C     C_R   0.814219 0.985799 0.225757 -0.136222
C92   C     C_R   0.734116 0.087051 0.204317 0.014347
C93   C     C_R   0.651303 0.177274 0.233173 0.031568
C94   C     C_R   0.741742 0.102128 0.154903 -0.131552
C95   C     C_1   0.699529 0.601504 0.899057 -0.013329
C96   C     C_1   0.691110 0.622458 0.856293 -0.055243
C97   C     C_R   0.648422 0.137048 0.384736 0.006583
C98   C     C_R   0.050203 0.235798 0.950077 0.547830
C99   C     C_R   0.712139 0.561870 0.947966 0.544533
C100  C     C_R   0.722742 0.225734 0.950817 0.545418
C101  C     C_R   0.047563 0.245506 0.088679 0.568681
C102  C     C_R   0.707170 0.575226 0.086377 0.545913
C103  C     C_R   0.717849 0.233827 0.089248 0.546486
C104  C     C_3   0.399068 0.462259 0.760698 -0.315519
C105  C     C_3   0.622351 0.000771 0.737881 -0.414810
C106  C     C_3   0.973650 0.574301 0.751658 -0.313426
Cr1   Cr    Cr6+3 0.417550 0.169090 0.500530 1.022555
Cr2   Cr    Cr6+3 0.669180 0.913420 0.499920 1.016377
Cr3   Cr    Cr6+3 0.413260 0.917540 0.499520 1.002956
Cr4   Cr    Cr6+3 0.909170 0.177380 0.020380 1.002120
Cr5   Cr    Cr6+3 0.912710 0.429210 0.018220 1.016346
Cr6   Cr    Cr6+3 0.657170 0.432570 0.019030 1.020909
H1    H     H_    0.741434 0.775734 0.793651 0.101691
H2    H     H_    0.784437 0.747698 0.377254 0.126512
H3    H     H_    0.896764 0.706083 0.211439 0.093205
H4    H     H_    0.881915 0.735001 0.300213 0.089319
H5    H     H_    0.523306 0.632586 0.141992 0.138187
H6    H     H_    0.438744 0.630584 0.217556 0.120652
H7    H     H_    0.439625 0.633801 0.306665 0.092702
H8    H     H_    0.514871 0.664652 0.381637 0.113811
H9    H     H_    0.535820 0.851230 0.737632 0.096363
H10   H     H_    0.216006 0.897836 0.297391 0.133670
H11   H     H_    0.041669 0.392968 0.153977 0.136698
H12   H     H_    0.326050 0.174368 0.800978 0.099228
H13   H     H_    0.048533 0.469913 0.230685 0.102442
H14   H     H_    0.164927 0.320460 0.388196 0.171847
H15   H     H_    0.533921 0.379755 0.145972 0.154521
H16   H     H_    0.488307 0.296194 0.384172 0.121298
H17   H     H_    0.413939 0.417181 0.313149 0.086505
H18   H     H_    0.808649 0.032936 0.133566 0.122402
H19   H     H_    0.874740 0.914097 0.203596 0.089531
H20   H     H_    0.889395 0.901170 0.291243 0.098547
H21   H     H_    0.610316 0.528616 0.718211 0.098940
H22   H     H_    0.810975 0.453076 0.773478 0.092439
H23   H     H_    0.169572 0.330567 0.732882 0.114523
H24   H     H_    0.176424 0.984467 0.789277 0.102166
H25   H     H_    0.019463 0.140820 0.721113 0.098168
H26   H     H_    0.356294 0.993714 0.738098 0.093607
H27   H     H_    0.500734 0.420612 0.698205 0.244714
H28   H     H_    0.327746 0.535785 0.742479 0.134632
H29   H     H_    0.444816 0.493399 0.784308 0.169484
H30   H     H_    0.361987 0.421148 0.783417 0.148801
H31   H     H_    0.608737 0.968235 0.772635 0.121750
H32   H     H_    0.545237 0.030495 0.715136 0.137499
H33   H     H_    0.697421 0.932173 0.718100 0.139939
H34   H     H_    0.990172 0.322592 0.784275 0.099740
H35   H     H_    0.878701 0.657196 0.691107 0.252604
H36   H     H_    0.056097 0.543894 0.732107 0.139827
H37   H     H_    0.982264 0.506816 0.776721 0.152987
H38   H     H_    0.954171 0.652166 0.773138 0.131621
H39   H     H_    0.277721 0.948964 0.131407 0.263875
H40   H     H_    0.163935 0.874107 0.110440 0.131108
H41   H     H_    0.125314 0.973502 0.062352 0.154384
H42   H     H_    0.037146 0.012333 0.116991 0.171754
H43   H     H_    0.148818 0.997408 0.420845 0.250969
H44   H     H_    0.314366 0.829155 0.423312 0.174254
H45   H     H_    0.480023 0.216183 0.799070 0.091176
H46   H     H_    0.358040 0.854574 0.364349 0.168567
H47   H     H_    0.260648 0.799434 0.369175 0.107438
H48   H     H_    0.278177 0.816787 0.211517 0.243262
H49   H     H_    0.121669 0.795482 0.184433 0.124165
H50   H     H_    0.027546 0.944937 0.197282 0.165921
H51   H     H_    0.097021 0.847072 0.246657 0.129138
H52   H     H_    0.008795 0.544049 0.316236 0.255795
H53   H     H_    0.198921 0.510421 0.293641 0.134964
H54   H     H_    0.253630 0.409448 0.343044 0.158915
H55   H     H_    0.158165 0.558338 0.355848 0.135520
H56   H     H_    0.818557 0.010127 0.790121 0.108812
H57   H     H_    0.346628 0.530773 0.242868 0.232300
H58   H     H_    0.271556 0.403589 0.215879 0.154542
H59   H     H_    0.354153 0.380855 0.160764 0.160892
H60   H     H_    0.241332 0.521600 0.176870 0.128005
H61   H     H_    0.441140 0.765140 0.823214 0.253662
H62   H     H_    0.355740 0.818542 0.741172 0.139028
H63   H     H_    0.401048 0.669917 0.731237 0.153509
H64   H     H_    0.297035 0.750217 0.778148 0.134627
H65   H     H_    0.866303 0.892036 0.381534 0.132506
H66   H     H_    0.931780 0.973351 0.361198 0.125597
H67   H     H_    0.834066 0.156359 0.720104 0.101157
H68   H     H_    0.863036 0.006224 0.418647 0.153063
H69   H     H_    0.683806 0.349836 0.779334 0.109089
H70   H     H_    0.834300 0.649604 0.136325 0.111859
N1    N     N_2   0.476029 0.382850 0.724301 -0.516999
N2    N     N_2   0.884747 0.599480 0.716746 -0.508588
N3    N     N_2   0.195349 0.010101 0.123296 -0.504803
N4    N     N_2   0.189238 0.972708 0.387298 -0.524449
N5    N     N_2   0.201738 0.888692 0.204308 -0.519929
N6    N     N_2   0.081435 0.470621 0.325425 -0.530049
N7    N     N_2   0.389059 0.462955 0.218839 -0.540492
N8    N     N_2   0.464886 0.707850 0.794447 -0.516838
O1    O     O_R   0.301710 0.195650 0.554160 -0.503660
O2    O     O_R   0.635520 0.542770 0.964420 -0.505521
O3    O     O_R   0.665950 0.325030 0.970100 -0.494257
O4    O     O_R   0.522390 0.158990 0.550460 -0.492810
O5    O     O_R   0.816620 0.158530 0.074540 -0.532740
O6    O     O_R   0.004460 0.188870 0.069750 -0.493569
O7    O     O_R   0.025800 0.341780 0.072300 -0.529348
O8    O     O_R   0.807650 0.528950 0.067500 -0.502110
O9    O     O_R   0.633420 0.550490 0.071810 -0.523872
O10   O     O_R   0.664000 0.332180 0.069640 -0.500217
O11   O     O_3   0.826350 0.346390 0.019210 -0.244560
O12   O     O_R   0.658900 0.818120 0.449760 -0.500488
O13   O     O_R   0.694390 0.003530 0.554040 -0.511370
O14   O     O_R   0.657700 0.819660 0.549320 -0.494385
O15   O     O_R   0.501930 0.803280 0.552920 -0.511082
O16   O     O_R   0.318170 0.023580 0.549580 -0.500277
O17   O     O_R   0.303010 0.193990 0.446760 -0.524478
O18   O     O_R   0.523600 0.157450 0.450900 -0.501313
O19   O     O_R   0.695690 0.001860 0.446640 -0.519780
O20   O     O_R   0.503220 0.801620 0.445520 -0.538012
O21   O     O_R   0.319370 0.022040 0.450020 -0.489984
O22   O     O_3   0.499990 0.000010 0.499990 -0.241771
O23   O     O_R   0.818720 0.150820 0.967160 -0.511011
O24   O     O_R   0.006410 0.181720 0.970200 -0.497730
O25   O     O_R   0.027890 0.334070 0.964920 -0.507718
O26   O     O_R   0.809600 0.521790 0.967960 -0.497397

loop_
_geom_bond_atom_site_label_1
_geom_bond_atom_site_label_2
_ccdc_geom_bond_type
H35   N2    S    
C84   C86   A    
C98   O25   A    
C6    H54   S    
C106  H38   S    
C7    H59   S    
C58   N4    S    
C18   C21   S    
C56   H5    S    
C83   H1    S    
C95   C96   T    
C67   C77   A    
H57   N7    S    
C80   C84   A    
C78   H16   S    
C59   C77   S    
C105  H32   S    
C23   O1    A    
C30   C71   S    
C8    H63   S    
H27   N1    S    
C48   C57   A    
C48   H8    S    
C53   C54   A    
C61   C75   A    
C46   C102  S    
C11   C19   S    
C3    H40   S    
C94   H18   S    
C29   H69   S    
Cr4   O11   S    
C18   C24   S    
C5    H51   S    
C10   C18   S    
Cr4   O24   S    
Cr5   O25   S    
C29   C32   S    
C52   C74   S    
C10   C15   S    
C102  O8    A    
Cr5   O8    S    
C99   O2    A    
C95   C99   S    
C4    H47   S    
C91   H19   S    
C99   O26   A    
C14   C24   T    
C15   C16   S    
C39   C57   A    
C6    N6    S    
H61   N8    S    
C3    H41   S    
C17   C20   S    
C106  H36   S    
C26   H45   S    
H39   N3    S    
C4    N4    S    
C13   C98   S    
C62   C64   A    
C86   C94   A    
C58   C77   A    
C43   H3    S    
C41   C74   S    
C74   N8    S    
C4    H46   S    
C12   C16   S    
C8    N8    S    
C68   C69   A    
C30   H22   S    
C17   H23   S    
C1    C28   S    
Cr2   O12   S    
C32   H67   S    
C85   H9    S    
C10   H25   S    
Cr3   O22   S    
Cr6   O9    S    
Cr1   O17   S    
C101  O6    A    
C70   N6    S    
C103  O10   A    
C90   H20   S    
C84   H15   S    
C98   O24   A    
C6    H53   S    
C105  H33   S    
C26   C31   S    
C106  H37   S    
C7    H60   S    
C63   C85   S    
C52   H21   S    
C73   C75   A    
C66   C101  S    
Cr5   O11   S    
C61   C62   A    
C103  O5    A    
Cr6   O11   S    
C34   H56   S    
C86   C103  S    
C3    N3    S    
Cr2   O22   S    
C59   O21   A    
C45   H70   S    
C81   C82   A    
C71   C83   S    
C25   C29   S    
C27   C100  S    
C65   N3    S    
C100  O23   A    
C79   C89   A    
C67   C68   A    
C15   H34   S    
Cr4   O23   S    
Cr5   O26   S    
C67   H14   S    
C39   C40   A    
C35   C97   S    
C53   H6    S    
C72   C73   A    
Cr1   O22   S    
C49   C51   A    
C25   C26   S    
C45   C46   A    
C12   C21   S    
C52   C63   S    
C3    H42   S    
C31   C37   S    
C47   O12   A    
C51   C53   A    
C42   C45   A    
C32   C34   S    
C14   C23   S    
C43   C44   A    
C36   C105  S    
C42   C55   A    
Cr6   O2    S    
C35   O18   A    
C51   H7    S    
C28   C38   T    
C16   C20   S    
C39   H2    S    
C66   C76   A    
C78   C97   A    
C92   C94   A    
C17   C18   S    
C31   C34   S    
C30   C41   S    
C20   C21   S    
C82   H17   S    
Cr3   O15   S    
C81   N7    S    
Cr1   O18   S    
C9    H68   S    
C10   C12   S    
C26   C36   S    
C48   C49   A    
C4    H44   S    
C63   C71   S    
C49   C50   A    
C23   O16   A    
Cr4   O6    S    
C73   C76   A    
C104  H30   S    
C7    H58   S    
C104  H28   S    
C42   C43   A    
C5    N5    S    
C46   C56   A    
Cr3   O20   S    
C1    O13   A    
C91   C92   A    
C9    H65   S    
C2    C63   S    
C8    H62   S    
C59   O17   A    
C54   C55   A    
C15   C17   S    
C33   C36   S    
C6    H55   S    
C16   C22   S    
C83   C85   S    
C2    C19   T    
C78   C79   A    
C76   H11   S    
C71   N2    S    
Cr2   O19   S    
C33   C38   S    
C88   C90   A    
C80   C81   A    
H52   N6    S    
H43   N4    S    
C105  H31   S    
C79   C82   A    
C21   H26   S    
C8    H64   S    
C54   C56   A    
Cr2   O13   S    
C50   C55   A    
C72   H13   S    
C60   C64   A    
C5    H50   S    
C100  O3    A    
C1    O4    A    
C35   O19   A    
C29   C31   S    
Cr3   O21   S    
C102  O9    A    
C32   C33   S    
C90   C91   A    
C9    C87   S    
C30   C52   S    
C60   C69   A    
C27   C37   T    
C64   H10   S    
C92   C93   A    
C34   C36   S    
C13   C22   T    
C69   C75   A    
C101  O7    A    
C11   O14   A    
C74   C85   S    
C89   C93   A    
Cr3   O16   S    
Cr6   O3    S    
C20   H12   S    
C25   C33   S    
C41   C96   S    
C61   C65   A    
C40   C50   A    
C40   C44   A    
C104  N1    S    
C88   C89   A    
C44   H4    S    
C87   C88   A    
Cr2   O14   S    
C65   C66   A    
C12   H24   S    
C47   O20   A    
Cr1   O1    S    
Cr4   O5    S    
C68   C70   A    
C104  H29   S    
C7    N7    S    
C70   C72   A    
C11   O15   A    
H48   N5    S    
C80   C93   A    
C106  N2    S    
C58   C60   A    
C47   C57   S    
Cr6   O10   S    
Cr1   O4    S    
Cr5   O7    S    
C9    H66   S    
C25   N1    S    
C5    H49   S    
C62   N5    S    
C87   C97   A    
C41   C83   S    
