data_mof_unit_41708.cif
_audit_creation_date              2012-12-10T17:48:18-0500
_audit_creation_method            fapswitch 2.2
_symmetry_space_group_name_H-M    P1
_symmetry_Int_Tables_number       1
_space_group_crystal_system       triclinic
_cell_length_a                    13.900606
_cell_length_b                    14.708906
_cell_length_c                    14.879595
_cell_angle_alpha                 115.422618
_cell_angle_beta                  106.62481
_cell_angle_gamma                 71.937746
_cell_volume                      2570.50893137

loop_
_atom_site_label
_atom_site_type_symbol
_atom_type_description
_atom_site_fract_x
_atom_site_fract_y
_atom_site_fract_z
_atom_type_partial_charge
C1    C     C_R   0.514768 0.119110 0.687693 0.848254
C2    C     C_R   0.481664 0.881193 0.312025 0.861113
C3    C     C_R   0.517253 0.360273 0.922843 -0.078302
C4    C     C_R   0.485458 0.642086 0.074340 -0.025439
C5    C     C_R   0.574217 0.318780 0.997978 -0.029399
C6    C     C_R   0.476058 0.681942 0.000167 -0.013486
C7    C     C_R   0.500631 0.467758 0.947342 0.038857
C8    C     C_R   0.513459 0.534304 0.049325 0.003522
C9    C     C_R   0.564702 0.492347 0.123664 -0.216613
C10   C     C_R   0.481629 0.509193 0.872849 -0.164319
C11   C     C_R   0.596066 0.386161 0.099641 0.401336
C12   C     C_R   0.469176 0.614921 0.897615 0.370184
C13   C     C_R   0.306063 0.314674 0.357774 -0.229463
C14   C     C_R   0.697943 0.680379 0.633612 -0.218992
C15   C     C_R   0.344010 0.222732 0.373811 0.123692
C16   C     C_R   0.659685 0.773281 0.619656 0.090804
C17   C     C_R   0.493051 0.280928 0.481487 0.157642
C18   C     C_R   0.503697 0.722474 0.524149 0.195544
C19   C     C_R   0.463054 0.372552 0.460852 0.009444
C20   C     C_R   0.536556 0.627075 0.538445 0.049188
C21   C     C_R   0.363456 0.391516 0.404795 0.101875
C22   C     C_R   0.638469 0.605465 0.589579 0.103967
C23   C     C_R   0.687109 0.987502 0.505401 0.800187
C24   C     C_R   0.312927 0.012863 0.495140 0.880710
C25   C     C_R   0.523920 0.448828 0.500149 -0.099211
C26   C     C_R   0.475849 0.550193 0.497901 -0.011895
C27   C     C_R   0.368800 0.571532 0.456961 0.535221
C28   C     C_R   0.630270 0.427476 0.542727 0.451418
C29   C     C_R   0.317397 0.489611 0.404083 -0.238431
C30   C     C_R   0.683777 0.507374 0.590586 -0.246059
C31   C     C_1   0.207253 0.016614 0.487049 -0.045748
C32   C     C_1   0.792802 0.985294 0.515530 -0.096145
C33   C     C_2   0.013854 0.013767 0.469246 0.256790
C34   C     C_2   0.985597 0.992246 0.536522 0.245709
C35   C     C_1   0.880998 0.987167 0.525239 0.073895
C36   C     C_1   0.118846 0.016664 0.479095 0.081511
C37   C     C_R   0.526903 0.186793 0.795232 -0.131088
C38   C     C_R   0.473694 0.813972 0.204119 -0.154790
C39   C     C_R   0.609643 0.211308 0.968462 -0.082854
C40   C     C_R   0.475607 0.787013 0.031857 -0.086248
C41   C     C_R   0.590895 0.146976 0.867408 -0.242332
C42   C     C_R   0.480108 0.850743 0.133716 -0.238140
C43   C     C_R   0.479606 0.292472 0.825821 0.288220
C44   C     C_R   0.464257 0.711429 0.170808 0.384595
Cu1   Cu    Cu3+1 0.526370 0.916390 0.524860 1.023920
Cu2   Cu    Cu3+1 0.473630 0.083610 0.475140 1.025276
H1    H     H_    0.230514 0.327257 0.312342 0.157792
H2    H     H_    0.775340 0.665508 0.674979 0.160013
H3    H     H_    0.486373 0.929589 0.156945 0.196633
H4    H     H_    0.625970 0.065512 0.845881 0.184897
H5    H     H_    0.656500 0.176017 0.021567 0.219521
H6    H     H_    0.477343 0.819731 0.979909 0.215739
H7    H     H_    0.588146 0.542833 0.200029 0.232043
H8    H     H_    0.483908 0.458033 0.795463 0.171631
H9    H     H_    0.236971 0.503922 0.370133 0.142158
H10   H     H_    0.764702 0.490941 0.622327 0.161108
H11   H     H_    0.432608 0.741488 0.477012 0.210225
H12   H     H_    0.558387 0.268386 0.537693 0.152787
H13   H     H_    0.707031 0.829623 0.650655 0.143444
H14   H     H_    0.298761 0.164315 0.339758 0.143388
N1    N     N_R   0.433980 0.209250 0.437830 -0.199730
N2    N     N_R   0.566020 0.790750 0.562170 -0.218658
O1    O     O_R   0.534760 0.019630 0.662610 -0.586382
O2    O     O_R   0.465240 0.980370 0.337390 -0.595027
O3    O     O_R   0.490220 0.160840 0.620610 -0.552499
O4    O     O_R   0.509780 0.839160 0.379390 -0.538542
O5    O     O_R   0.663260 0.919400 0.523940 -0.591972
O6    O     O_R   0.336740 0.080600 0.476060 -0.564866
O7    O     O_R   0.618720 0.060610 0.481950 -0.572640
O8    O     O_R   0.381280 0.939390 0.518050 -0.565045
S1    S     S_3+6 0.072761 0.973086 0.643155 0.024494
O9    O     O_2   0.159109 0.882262 0.608759 -0.246385
O10   O     O_2   0.116016 0.067747 0.707041 -0.257180
O11   O     O_3   0.011621 0.951031 0.711947 -0.514047
H15   H     H_    0.065262 0.940097 0.768909 0.399091
S2    S     S_3+6 0.925775 0.036387 0.364559 0.031850
O12   O     O_2   0.881941 0.942482 0.298418 -0.278562
O13   O     O_2   0.839991 0.126795 0.401763 -0.240452
O14   O     O_3   0.985950 0.061628 0.297311 -0.496599
H16   H     H_    0.931261 0.077001 0.242977 0.401394
O15   O     O_3   0.313136 0.673305 0.485315 -0.565017
C45   C     C_3   0.232033 0.691535 0.408116 -0.133161
H17   H     H_    0.160805 0.676579 0.413681 0.171403
H18   H     H_    0.251169 0.645662 0.331086 0.187665
H19   H     H_    0.216183 0.774089 0.419598 0.213967
O16   O     O_3   0.684979 0.326101 0.522247 -0.550659
C46   C     C_3   0.746758 0.311993 0.611048 -0.248532
H20   H     H_    0.708972 0.357948 0.678672 0.123044
H21   H     H_    0.823022 0.329584 0.624937 0.197680
H22   H     H_    0.760564 0.229588 0.599436 0.196928
S3    S     S_3+6 0.660163 0.341795 0.199717 0.021065
O17   O     O_2   0.604161 0.269483 0.200174 -0.266942
O18   O     O_2   0.768199 0.285577 0.183897 -0.279060
O19   O     O_3   0.663893 0.441149 0.312027 -0.520763
H23   H     H_    0.703971 0.409636 0.362168 0.395002
S4    S     S_3+6 0.437534 0.660262 0.797647 0.039684
O20   O     O_2   0.354795 0.757166 0.819083 -0.201984
O21   O     O_2   0.531297 0.683024 0.787603 -0.326449
O22   O     O_3   0.393584 0.571756 0.688271 -0.451601
H24   H     H_    0.454665 0.515867 0.670446 0.320956
S5    S     S_3+6 0.389024 0.680597 0.228410 -0.018072
O23   O     O_2   0.457423 0.633077 0.302309 -0.364015
O24   O     O_2   0.316852 0.776287 0.283172 -0.310241
O25   O     O_3   0.318727 0.596913 0.138862 -0.500470
H25   H     H_    0.346851 0.531471 0.150559 0.360903
S6    S     S_3+6 0.354721 0.331362 0.759343 0.043219
O26   O     O_2   0.363349 0.352951 0.672286 -0.256459
O27   O     O_2   0.296993 0.246503 0.718296 -0.267844
O28   O     O_3   0.287066 0.438122 0.836869 -0.454215
H26   H     H_    0.281624 0.418315 0.890717 0.360424

loop_
_geom_bond_atom_site_label_1
_geom_bond_atom_site_label_2
_ccdc_geom_bond_type
C7    C10   A    
C39   H5    S    
C46   H20   S    
C21   C29   A    
S5    O23   D    
C27   C29   A    
C15   H14   S    
C23   O7    A    
S2    O14   S    
C4    C8    A    
O15   C45   S    
C24   O8    A    
C7    C8    A    
C39   C41   A    
Cu1   Cu2   S    
C25   C28   A    
C38   C44   A    
C3    C43   A    
C26   C27   A    
C20   C26   A    
C19   C21   A    
S2    O13   D    
C5    C11   A    
C3    C7    A    
C6    C12   A    
S6    O26   D    
S4    O22   S    
Cu1   N2    S    
C33   C36   S    
C34   C35   S    
C23   O5    A    
Cu2   O7    S    
C33   S2    S    
C17   N1    A    
C8    C9    A    
S4    O21   D    
Cu1   O5    S    
C1    O3    A    
C18   C20   A    
C1    C37   S    
C17   H12   S    
C40   C42   A    
S5    O24   D    
C16   N2    A    
C19   C25   A    
C1    O1    A    
O25   H25   S    
C2    O2    A    
O11   H15   S    
Cu2   N1    S    
C32   C35   T    
C27   O15   S    
S2    O12   D    
Cu2   O3    S    
C4    C6    A    
S3    O17   D    
S1    O10   D    
O16   C46   S    
C18   N2    A    
C14   H2    S    
C4    C44   A    
C3    C5    A    
C25   C26   A    
C40   H6    S    
C30   H10   S    
Cu1   O1    S    
Cu2   O2    S    
C16   H13   S    
C37   C43   A    
Cu2   O6    S    
S3    O18   D    
C2    C38   S    
C18   H11   S    
O22   H24   S    
S4    O20   D    
C33   C34   D    
C15   N1    A    
C13   C21   A    
C9    C11   A    
C10   C12   A    
C20   C22   A    
S5    O25   S    
C45   H18   S    
C13   C15   A    
C28   O16   S    
C14   C16   A    
C9    H7    S    
C41   H4    S    
C13   H1    S    
C22   C30   A    
Cu1   O8    S    
C2    O4    A    
S1    O11   S    
C44   S5    S    
C38   C42   A    
C45   H19   S    
C29   H9    S    
C23   C32   S    
C14   C22   A    
C5    C39   A    
C24   C31   S    
S1    O9    D    
O28   H26   S    
S3    O19   S    
S6    O27   D    
C28   C30   A    
C17   C19   A    
C6    C40   A    
C37   C41   A    
O19   H23   S    
C10   H8    S    
C24   O6    A    
C42   H3    S    
O14   H16   S    
C11   S3    S    
C45   H17   S    
C46   H22   S    
Cu1   O4    S    
C46   H21   S    
C31   C36   T    
C12   S4    S    
C34   S1    S    
C43   S6    S    
S6    O28   S    
