data_mof_unit_6469.cif
_audit_creation_date              2013-03-05T16:31:42-0500
_audit_creation_method            fapswitch 2.2
_symmetry_space_group_name_H-M    P1
_symmetry_Int_Tables_number       1
_space_group_crystal_system       triclinic
_cell_length_a                    14.225067
_cell_length_b                    15.007998
_cell_length_c                    15.449532
_cell_angle_alpha                 89.22462
_cell_angle_beta                  67.759074
_cell_angle_gamma                 89.52864
_cell_volume                      3052.62713545

loop_
_atom_site_label
_atom_site_type_symbol
_atom_site_description
_atom_site_fract_x
_atom_site_fract_y
_atom_site_fract_z
_atom_type_partial_charge
O1    O     O_R   0.420530 0.630930 0.499990 -0.550939
O2    O     O_R   0.579470 0.369070 0.500010 -0.507814
O3    O     O_R   0.579480 0.630940 0.499990 -0.646289
O4    O     O_R   0.420520 0.369060 0.500010 -0.635437
C1    C     C_R   0.501402 0.671902 0.497247 0.954624
C2    C     C_R   0.498054 0.327109 0.505914 0.918695
O5    O     O_R   0.375120 0.499990 0.632240 -0.561739
O6    O     O_R   0.624880 0.500010 0.367760 -0.572890
O7    O     O_R   0.534080 0.500000 0.632240 -0.630660
O8    O     O_R   0.465920 0.500000 0.367760 -0.639729
C3    C     C_R   0.436427 0.499520 0.676331 0.895854
C4    C     C_R   0.562997 0.504132 0.323311 0.881173
Zn1   Zn    Zn3+2 0.393860 0.499990 0.500000 0.991888
Zn2   Zn    Zn3+2 0.606140 0.500010 0.500000 1.018159
C5    C     C_R   0.396458 0.486556 0.777971 -0.117733
C6    C     C_R   0.601510 0.504920 0.220116 -0.179568
C7    C     C_R   0.283695 0.402030 0.913794 0.164742
C8    C     C_R   0.740698 0.469191 0.072453 0.166720
C9    C     C_R   0.311529 0.432641 0.820718 -0.204419
C10   C     C_R   0.703987 0.486880 0.168878 -0.207366
C11   C     C_R   0.454204 0.513873 0.828259 0.107777
C12   C     C_R   0.533617 0.511942 0.173383 0.111279
C13   C     C_R   0.443007 0.466918 0.911209 0.028290
C14   C     C_R   0.565593 0.478507 0.081838 0.035539
C15   C     C_R   0.349590 0.421814 0.961974 -0.033758
C16   C     C_R   0.671002 0.473051 0.026044 -0.025781
C17   C     C_R   0.520905 0.466795 0.946817 0.010744
C18   C     C_R   0.494720 0.455800 0.042543 0.011493
C19   C     C_R   0.400630 0.418190 0.096260 -0.220234
C20   C     C_R   0.624497 0.471756 0.889186 -0.221109
C21   C     C_R   0.329442 0.398596 0.057447 0.349092
C22   C     C_R   0.699592 0.472799 0.927122 0.355475
H1    H     H_    0.755171 0.485390 0.205358 0.223023
H2    H     H_    0.268425 0.414149 0.779396 0.184332
H3    H     H_    0.384442 0.398718 0.168193 0.181024
H4    H     H_    0.648219 0.469220 0.813958 0.178857
C23   C     C_R   0.454197 0.906893 0.569121 -0.264945
C24   C     C_R   0.585215 0.093264 0.520662 -0.273771
H5    H     H_    0.403395 0.944722 0.627770 0.190594
H6    H     H_    0.643663 0.058392 0.536984 0.183755
C25   C     C_R   0.447627 0.815639 0.571233 0.362990
C26   C     C_R   0.578472 0.184499 0.527726 0.392862
C27   C     C_R   0.507198 0.767694 0.492288 -0.183005
C28   C     C_R   0.496574 0.229374 0.515000 -0.198619
C29   C     C_R   0.583794 0.810319 0.414909 0.067208
C30   C     C_R   0.414903 0.178329 0.509438 0.061058
C31   C     C_R   0.599600 0.902671 0.419768 0.156657
C32   C     C_R   0.434126 0.088551 0.481600 0.143675
C33   C     C_R   0.526116 0.950318 0.492775 0.013333
C34   C     C_R   0.518812 0.046384 0.491715 0.042152
C35   C     C_R   0.863579 0.517725 0.578179 -0.278458
C36   C     C_R   0.121343 0.430668 0.462299 -0.284049
H7    H     H_    0.872889 0.527779 0.643584 0.212051
H8    H     H_    0.096779 0.371651 0.437589 0.177254
C37   C     C_R   0.765372 0.522835 0.577297 -0.037503
C38   C     C_R   0.221780 0.433877 0.457539 -0.090505
H9    H     H_    0.702858 0.541103 0.640212 0.147630
H10   H     H_    0.274499 0.381937 0.421821 0.153123
N1    N     N_R   0.747530 0.500020 0.500000 -0.115930
N2    N     N_R   0.252470 0.499980 0.500000 -0.131004
C39   C     C_R   0.826660 0.469893 0.422914 0.481903
C40   C     C_R   0.185739 0.566631 0.544176 0.463944
C41   C     C_R   0.929322 0.480185 0.414084 -0.005518
C42   C     C_R   0.090050 0.575531 0.535142 0.019292
C43   C     C_R   0.948499 0.500830 0.495640 0.094222
C44   C     C_R   0.054364 0.503016 0.497498 0.100642
Cl1   Cl    Cl    0.215912 0.352962 0.138682 -0.724365
Cl2   Cl    Cl    0.824510 0.489792 0.845552 -0.693901
Cl3   Cl    Cl    0.799894 0.401394 0.343788 -0.630468
Cl4   Cl    Cl    0.214507 0.635196 0.621812 -0.527092
C45   C     C_3   0.014573 0.471167 0.317901 -0.324646
C46   C     C_3   0.074645 0.557351 0.284344 -0.856227
H11   H     H_    0.022377 0.613776 0.287833 0.251265
H12   H     H_    0.120509 0.572677 0.326326 0.268625
H13   H     H_    0.127875 0.549958 0.210549 0.278951
H14   H     H_    0.066316 0.415669 0.316756 0.254912
H15   H     H_    0.984548 0.454729 0.263588 0.251684
C47   C     C_3   0.031173 0.663310 0.561310 -0.348893
C48   C     C_3   0.021575 0.710257 0.476631 -0.880073
H16   H     H_    0.097411 0.717019 0.419329 0.263688
H17   H     H_    0.970010 0.673603 0.451170 0.268040
H18   H     H_    0.989213 0.777964 0.496709 0.258795
H19   H     H_    0.955283 0.653849 0.616799 0.219393
H20   H     H_    0.069268 0.711416 0.590771 0.259720
C49   C     C_3   0.435265 0.567489 0.214398 -0.361373
C50   C     C_3   0.423795 0.637934 0.146385 -0.881675
H21   H     H_    0.497368 0.671629 0.107911 0.266525
H22   H     H_    0.394928 0.607808 0.096242 0.269252
H23   H     H_    0.367470 0.689027 0.185837 0.253424
H24   H     H_    0.366663 0.525126 0.241442 0.215057
H25   H     H_    0.434181 0.606166 0.274765 0.222037
C51   C     C_3   0.511424 0.602588 0.802002 -0.378536
C52   C     C_3   0.471567 0.669866 0.881016 -0.782035
H26   H     H_    0.387421 0.674537 0.906940 0.276824
H27   H     H_    0.495082 0.650390 0.939282 0.249932
H28   H     H_    0.503959 0.736606 0.855021 0.259052
H29   H     H_    0.594092 0.595062 0.781971 0.194971
H30   H     H_    0.501449 0.634073 0.740575 0.238314
C53   C     C_3   0.190188 0.343138 0.957286 -0.326876
C54   C     C_3   0.139830 0.309935 0.892189 -0.930953
H31   H     H_    0.106591 0.366159 0.865651 0.284920
H32   H     H_    0.195948 0.272797 0.833927 0.269440
H33   H     H_    0.077941 0.262787 0.930670 0.266760
H34   H     H_    0.212996 0.281930 0.985663 0.260043
H35   H     H_    0.131925 0.380649 0.014173 0.254746
C55   C     C_3   0.848770 0.433973 0.024705 -0.359013
C56   C     C_3   0.891102 0.384647 0.089733 -0.840037
H36   H     H_    0.915446 0.432632 0.131150 0.271298
H37   H     H_    0.833937 0.337773 0.136941 0.294450
H38   H     H_    0.958381 0.345102 0.047822 0.260827
H39   H     H_    0.849923 0.384010 0.971973 0.253897
H40   H     H_    0.900424 0.489797 0.989393 0.255879
Cl5   Cl    Cl    0.367879 0.763970 0.676104 -0.570255
Cl6   Cl    Cl    0.670117 0.235955 0.562120 -0.554922
C57   C     C_3   0.639123 0.758897 0.325193 -0.411071
C58   C     C_3   0.570042 0.748287 0.270980 -0.880007
H41   H     H_    0.604797 0.701001 0.212789 0.261989
H42   H     H_    0.494720 0.723437 0.318001 0.255962
H43   H     H_    0.558689 0.813216 0.241179 0.262589
H44   H     H_    0.709310 0.791406 0.277522 0.223253
H45   H     H_    0.663965 0.692440 0.340582 0.215746
C59   C     C_3   0.305704 0.213306 0.548557 -0.362660
C60   C     C_3   0.274272 0.245204 0.649064 -0.834197
H46   H     H_    0.281169 0.189237 0.694166 0.254156
H47   H     H_    0.321261 0.301337 0.655202 0.257718
H48   H     H_    0.193856 0.267877 0.675025 0.255628
H49   H     H_    0.294324 0.265598 0.502796 0.221273
H50   H     H_    0.249216 0.161223 0.554231 0.197922
C61   C     C_3   0.695275 0.948874 0.352894 -0.391405
C62   C     C_3   0.682017 0.991337 0.268033 -0.827830
H51   H     H_    0.653095 0.942417 0.231157 0.259149
H52   H     H_    0.629425 0.048998 0.289842 0.267649
H53   H     H_    0.756557 0.016192 0.218537 0.258323
H54   H     H_    0.720087 0.001109 0.389309 0.216248
H55   H     H_    0.760994 0.902546 0.330120 0.192713
C63   C     C_3   0.363778 0.037447 0.445071 -0.406549
C64   C     C_3   0.417620 0.003978 0.345405 -0.843806
H56   H     H_    0.460084 0.059036 0.298544 0.260698
H57   H     H_    0.469049 0.947778 0.342886 0.276763
H58   H     H_    0.360390 0.978992 0.318809 0.252642
H59   H     H_    0.327470 0.980821 0.492612 0.224790
H60   H     H_    0.302052 0.079755 0.440134 0.206582

loop_
_geom_bond_atom_site_label_1
_geom_bond_atom_site_label_2
_geom_bond_distance
_ccdc_geom_bond_type
C15   C21   1.430716 A    
C24   H6    1.084784 S    
C41   C43   1.424850 A    
C16   C22   1.425039 A    
C52   H26   1.111110 S    
C57   H45   1.107961 S    
C37   N1    1.360045 A    
C56   H37   1.111144 S    
C8    C16   1.427020 A    
C49   H25   1.100281 S    
C51   H30   1.110298 S    
C60   H46   1.111405 S    
C31   C33   1.411829 A    
Zn1   N2    2.011283 S    
C55   H40   1.110761 S    
C49   C50   1.531463 S    
O5    C3    1.293867 A    
Zn2   N1    2.011283 S    
C64   H57   1.103319 S    
C31   C61   1.527160 S    
O1    C1    1.295143 A    
C19   C21   1.393145 A    
C18   C19   1.399159 A    
C14   C16   1.421112 A    
C24   C26   1.374740 A    
C45   H14   1.102853 S    
C50   H22   1.107488 S    
C60   H47   1.106742 S    
C55   C56   1.533117 S    
C57   C58   1.523742 S    
C61   H55   1.108197 S    
C59   H49   1.100660 S    
C58   H41   1.109638 S    
C40   Cl4   1.754121 S    
N2    C40   1.371093 A    
C35   C43   1.409702 A    
C12   C49   1.542031 S    
O4    Zn1   1.998202 S    
C39   C41   1.423896 A    
C54   H31   1.111084 S    
C40   C42   1.424939 A    
C5    C9    1.395742 A    
C3    C5    1.464454 S    
C47   H19   1.104148 S    
C26   Cl6   1.769265 S    
C4    C6    1.476650 S    
C28   C30   1.426879 A    
C63   H60   1.104620 S    
C56   H36   1.110097 S    
C13   C17   1.411363 A    
C8    C10   1.407824 A    
C6    C10   1.396678 A    
C22   Cl2   1.764765 S    
C32   C34   1.415421 A    
C53   H34   1.110490 S    
C1    C27   1.440034 S    
C52   H27   1.107642 S    
C2    C28   1.471180 S    
C17   C20   1.405915 A    
C23   C25   1.372585 A    
C25   C27   1.398126 A    
O2    C2    1.294876 A    
C26   C28   1.416475 A    
C46   H13   1.110869 S    
C36   H8    1.080538 S    
C51   H29   1.102129 S    
C55   H39   1.110168 S    
C29   C31   1.413499 A    
C53   H35   1.109303 S    
C64   H58   1.111139 S    
C30   C32   1.412736 A    
N1    C39   1.371574 A    
C46   H12   1.107278 S    
C48   H17   1.107388 S    
C47   C48   1.528156 S    
C46   H11   1.110577 S    
C60   H48   1.111391 S    
O6    Zn2   1.957758 S    
O8    Zn1   1.907728 S    
C54   H33   1.109891 S    
C48   H16   1.110936 S    
C35   H7    1.080336 S    
C42   C44   1.424795 A    
C62   H52   1.108389 S    
O7    Zn2   1.907728 S    
C8    C55   1.525008 S    
C63   H59   1.109779 S    
C23   C33   1.392586 A    
C29   C57   1.526230 S    
C53   C54   1.528965 S    
C5    C11   1.394182 A    
O6    C4    1.306096 A    
C54   H32   1.104735 S    
C9    H2    1.079106 S    
C37   H9    1.076860 S    
C7    C53   1.525992 S    
O3    Zn2   1.998202 S    
O8    C4    1.290261 A    
C58   H42   1.106734 S    
C10   H1    1.076248 S    
O4    C2    1.297818 A    
C41   C45   1.528299 S    
C43   C44   1.517656 S    
C52   H28   1.110635 S    
O7    C3    1.295157 A    
C56   H38   1.104257 S    
C12   C14   1.409771 A    
C62   H53   1.110484 S    
O1    Zn1   2.004484 S    
C45   H15   1.107257 S    
C36   C44   1.410403 A    
C61   C62   1.524188 S    
C39   Cl3   1.757576 S    
C6    C12   1.410413 A    
C50   H21   1.110865 S    
C42   C47   1.529827 S    
C32   C63   1.536225 S    
C14   C18   1.405598 A    
C25   Cl5   1.761364 S    
C63   C64   1.526993 S    
O3    C1    1.279444 A    
C50   H23   1.111007 S    
C48   H18   1.110609 S    
C49   H24   1.107019 S    
C57   H44   1.104057 S    
C24   C34   1.387982 A    
C64   H56   1.110307 S    
C19   H3    1.082628 S    
C58   H43   1.108687 S    
C20   H4    1.081760 S    
C7    C15   1.435141 A    
C11   C13   1.409668 A    
C62   H51   1.107529 S    
C45   C46   1.528612 S    
C27   C29   1.424885 A    
C20   C22   1.399756 A    
C51   C52   1.526810 S    
C7    C9    1.410562 A    
C38   H10   1.078564 S    
C35   C37   1.403670 A    
C13   C15   1.432025 A    
C59   H50   1.104327 S    
O2    Zn2   2.004481 S    
C21   Cl1   1.764336 S    
C61   H54   1.105656 S    
C47   H20   1.106403 S    
O5    Zn1   1.957757 S    
C38   N2    1.358926 A    
C23   H5    1.084936 S    
C33   C34   1.444950 S    
C17   C18   1.389449 A    
C30   C59   1.529131 S    
C59   C60   1.526849 S    
C36   C38   1.403733 A    
C11   C51   1.533966 S    
