data_mof_unit_57790.cif
_audit_creation_date              2012-12-11T17:35:18-0500
_audit_creation_method            fapswitch 2.2
_symmetry_space_group_name_H-M    P1
_symmetry_Int_Tables_number       1
_space_group_crystal_system       triclinic
_cell_length_a                    24.112136
_cell_length_b                    7.116495
_cell_length_c                    22.479374
_cell_angle_alpha                 90.000262
_cell_angle_beta                  99.558775
_cell_angle_gamma                 89.999372
_cell_volume                      3803.76739863

loop_
_atom_site_label
_atom_site_type_symbol
_atom_type_description
_atom_site_fract_x
_atom_site_fract_y
_atom_site_fract_z
_atom_type_partial_charge
O1    O     O_R   0.801940 0.607920 0.199180 -0.508264
O2    O     O_R   0.198060 0.392080 0.800820 -0.516606
O3    O     O_R   0.698060 0.107920 0.300820 -0.508260
O4    O     O_R   0.301940 0.892080 0.699180 -0.516609
O5    O     O_R   0.687840 0.274940 0.181980 -0.523358
O6    O     O_R   0.312160 0.725060 0.818020 -0.508632
O7    O     O_R   0.812160 0.774940 0.318020 -0.523358
O8    O     O_R   0.187840 0.225060 0.681980 -0.508696
C1    C     C_R   0.668827 0.446671 0.165276 0.811402
C2    C     C_R   0.331515 0.553334 0.834647 0.805317
C3    C     C_R   0.831174 0.946670 0.334723 0.811403
C4    C     C_R   0.168482 0.053335 0.665356 0.805346
O9    O     O_R   0.800890 0.278000 0.191820 -0.515348
O10   O     O_R   0.199110 0.722000 0.808180 -0.517068
O11   O     O_R   0.699110 0.778000 0.308180 -0.515350
O12   O     O_R   0.300890 0.222000 0.691820 -0.517082
O13   O     O_R   0.811910 0.110860 0.310720 -0.518161
O14   O     O_R   0.188090 0.889140 0.689280 -0.519158
O15   O     O_R   0.688090 0.610860 0.189280 -0.518167
O16   O     O_R   0.311910 0.389140 0.810720 -0.519197
C5    C     C_R   0.817770 0.447699 0.177410 0.837059
C6    C     C_R   0.181272 0.552615 0.821208 0.838561
C7    C     C_R   0.682230 0.947701 0.322590 0.837071
C8    C     C_R   0.318725 0.052613 0.678789 0.838510
O17   O     O_3   0.753490 0.442410 0.289000 -0.351709
O18   O     O_3   0.246510 0.557590 0.711000 -0.351150
O19   O     O_3   0.746510 0.942410 0.211000 -0.351709
O20   O     O_3   0.253490 0.057590 0.789000 -0.351128
V1    V     V_3+5 0.749350 0.166330 0.242770 1.789460
V2    V     V_3+5 0.250650 0.833670 0.757230 1.793914
V3    V     V_3+5 0.750650 0.666330 0.257230 1.789457
V4    V     V_3+5 0.249350 0.333670 0.742770 1.793793
C9    C     C_R   0.398855 0.141528 0.546999 0.397548
C10   C     C_R   0.601585 0.828599 0.452352 0.405643
C11   C     C_R   0.101130 0.641554 0.952985 0.397598
C12   C     C_R   0.898416 0.328591 0.047648 0.405653
C13   C     C_R   0.360741 0.164896 0.588085 0.265988
C14   C     C_R   0.639894 0.817582 0.411266 0.305521
C15   C     C_R   0.139245 0.664916 0.911902 0.265987
C16   C     C_R   0.860108 0.317571 0.088735 0.305538
C17   C     C_R   0.361201 0.038196 0.637003 -0.317628
C18   C     C_R   0.641983 0.960864 0.367432 -0.332791
C19   C     C_R   0.138791 0.538203 0.862989 -0.317645
C20   C     C_R   0.858016 0.460861 0.132566 -0.332804
C21   C     C_R   0.402134 0.892049 0.644624 0.348749
C22   C     C_R   0.605497 0.118870 0.368034 0.357230
C23   C     C_R   0.097862 0.392046 0.855371 0.348755
C24   C     C_R   0.894495 0.618879 0.131959 0.357221
C25   C     C_R   0.441176 0.874684 0.604784 0.349407
C26   C     C_R   0.566397 0.125882 0.408182 0.342618
C27   C     C_R   0.058818 0.374688 0.895209 0.349399
C28   C     C_R   0.933587 0.625907 0.091804 0.342637
C29   C     C_R   0.440533 0.001520 0.556921 -0.212179
C30   C     C_R   0.562862 0.978440 0.448728 -0.242556
C31   C     C_R   0.059456 0.501536 0.943068 -0.212135
C32   C     C_R   0.937130 0.478453 0.051264 -0.242565
C33   C     C_1   0.483382 0.990231 0.518396 0.180171
C34   C     C_1   0.519494 0.982468 0.486802 0.158285
C35   C     C_1   0.016609 0.490247 0.981595 0.180167
C36   C     C_1   0.980497 0.482484 0.013189 0.158337
C37   C     C_R   0.924023 0.827959 0.389771 0.385587
C38   C     C_R   0.073646 0.169023 0.611574 0.422398
C39   C     C_R   0.575980 0.327949 0.110236 0.385513
C40   C     C_R   0.426343 0.669019 0.888438 0.422384
C41   C     C_R   0.878668 0.954667 0.386836 -0.243443
C42   C     C_R   0.118925 0.040863 0.615197 -0.257865
C43   C     C_R   0.621331 0.454665 0.113167 -0.243410
C44   C     C_R   0.381063 0.540868 0.884814 -0.257489
C45   C     C_R   0.877528 0.083272 0.434577 0.332461
C46   C     C_R   0.115515 0.892082 0.572884 0.358969
C47   C     C_R   0.622464 0.583282 0.065429 0.332408
C48   C     C_R   0.384462 0.392125 0.927141 0.359086
C49   C     C_R   0.924389 0.096953 0.482654 -0.022999
C50   C     C_R   0.065569 0.862831 0.529930 -0.067175
C51   C     C_R   0.575600 0.596960 0.017355 -0.023081
C52   C     C_R   0.434403 0.362900 0.970108 -0.067253
C53   C     C_R   0.970780 0.972333 0.483491 -0.093619
C54   C     C_R   0.019710 0.989712 0.528540 -0.109004
C55   C     C_R   0.529211 0.472335 0.016522 -0.093606
C56   C     C_R   0.480276 0.489718 0.971476 -0.108709
C57   C     C_R   0.967699 0.826458 0.440397 -0.096525
C58   C     C_R   0.022288 0.132726 0.572576 -0.050564
C59   C     C_R   0.532297 0.326462 0.059618 -0.096741
C60   C     C_R   0.477701 0.632712 0.927434 -0.050650
C61   C     C_R   0.925310 0.223191 0.531837 0.381641
C62   C     C_R   0.058387 0.703786 0.491047 0.396151
C63   C     C_R   0.574676 0.723192 0.968171 0.381543
C64   C     C_R   0.441565 0.203973 0.009043 0.396184
C65   C     C_R   0.972312 0.229649 0.578142 0.334297
C66   C     C_R   0.007883 0.680559 0.450192 0.297949
C67   C     C_R   0.527676 0.729628 0.921865 0.334163
C68   C     C_R   0.492086 0.180647 0.049855 0.298067
O21   O     O_3   0.397661 0.263109 0.498610 -0.513005
C69   C     C_3   0.352836 0.214435 0.451926 0.162168
H1    H     H_    0.337596 0.346153 0.428137 0.167220
H2    H     H_    0.315912 0.151338 0.468570 0.119849
C70   C     C_3   0.373035 0.080814 0.406569 -0.337684
H3    H     H_    0.409577 0.143766 0.389674 0.260128
H4    H     H_    0.386357 0.945344 0.429016 0.201476
C71   C     C_3   0.326484 0.041906 0.353194 -0.792553
H5    H     H_    0.289941 0.974571 0.368907 0.228951
H6    H     H_    0.342446 0.945537 0.321048 0.251895
H7    H     H_    0.312640 0.174762 0.329307 0.236960
O22   O     O_3   0.599373 0.682061 0.492584 -0.505376
C72   C     C_3   0.621553 0.739168 0.552234 0.171019
H8    H     H_    0.599005 0.658806 0.583094 0.211386
H9    H     H_    0.615033 0.890971 0.561287 0.097301
C73   C     C_3   0.684140 0.691556 0.567912 -0.341950
H10   H     H_    0.690673 0.541149 0.557660 0.247723
H11   H     H_    0.708121 0.779725 0.540290 0.219523
C74   C     C_3   0.706390 0.727644 0.634546 -0.785813
H12   H     H_    0.701865 0.878598 0.645375 0.246519
H13   H     H_    0.751569 0.689338 0.644919 0.239088
H14   H     H_    0.683079 0.641123 0.663314 0.256382
O23   O     O_3   0.102336 0.763103 0.001384 -0.513026
C75   C     C_3   0.147184 0.714434 0.048045 0.162066
H15   H     H_    0.162560 0.846228 0.071699 0.167314
H16   H     H_    0.184026 0.650734 0.031402 0.119607
C76   C     C_3   0.126938 0.581522 0.093562 -0.337224
H17   H     H_    0.090521 0.645169 0.110510 0.260235
H18   H     H_    0.113414 0.446050 0.071233 0.201558
C77   C     C_3   0.173542 0.542419 0.146869 -0.793090
H19   H     H_    0.209937 0.474247 0.131112 0.228968
H20   H     H_    0.157529 0.446716 0.179161 0.252002
H21   H     H_    0.187623 0.675308 0.170604 0.236951
O24   O     O_3   0.900635 0.182044 0.007420 -0.505359
C78   C     C_3   0.878443 0.239118 0.947769 0.171021
H22   H     H_    0.901000 0.158797 0.916909 0.211409
H23   H     H_    0.884939 0.390933 0.938712 0.097239
C79   C     C_3   0.815863 0.191410 0.932100 -0.341939
H24   H     H_    0.809346 0.041036 0.942405 0.247801
H25   H     H_    0.791870 0.279662 0.959687 0.219457
C80   C     C_3   0.793617 0.227248 0.865450 -0.785770
H26   H     H_    0.798160 0.378141 0.854555 0.246521
H27   H     H_    0.748433 0.188997 0.855095 0.239082
H28   H     H_    0.816918 0.140539 0.836719 0.256366
Cl1   Cl    Cl    0.312517 0.354086 0.575928 -0.578283
Cl2   Cl    Cl    0.686872 0.624667 0.419119 -0.542094
Cl3   Cl    Cl    0.187471 0.854093 0.924066 -0.578318
Cl4   Cl    Cl    0.813136 0.124645 0.080886 -0.542118
Cl5   Cl    Cl    0.408143 0.732650 0.705909 -0.454550
Cl6   Cl    Cl    0.605969 0.312095 0.318552 -0.439476
Cl7   Cl    Cl    0.091863 0.232616 0.794094 -0.454546
Cl8   Cl    Cl    0.894029 0.812089 0.181449 -0.439495
Cl9   Cl    Cl    0.491007 0.690285 0.614708 -0.521422
Cl10  Cl    Cl    0.521405 0.322944 0.407999 -0.495619
Cl11  Cl    Cl    0.008994 0.190272 0.885290 -0.521420
Cl12  Cl    Cl    0.978558 0.823013 0.091966 -0.495705
Cl13  Cl    Cl    0.930956 0.696742 0.324404 -0.497477
Cl14  Cl    Cl    0.084551 0.392034 0.647106 -0.479621
Cl15  Cl    Cl    0.569061 0.196728 0.175607 -0.497497
Cl16  Cl    Cl    0.415440 0.892046 0.852916 -0.479745
Cl17  Cl    Cl    0.815030 0.216874 0.433455 -0.591657
Cl18  Cl    Cl    0.178046 0.763063 0.569611 -0.596043
Cl19  Cl    Cl    0.684959 0.716895 0.066548 -0.591696
Cl20  Cl    Cl    0.321932 0.263059 0.930381 -0.595722
O25   O     O_3   0.876912 0.314737 0.541108 -0.526085
C81   C     C_3   0.882195 0.510726 0.532951 0.215904
H29   H     H_    0.874676 0.544417 0.483943 0.165629
H30   H     H_    0.924418 0.566401 0.552949 0.126547
C82   C     C_3   0.837875 0.608332 0.563306 -0.304478
H31   H     H_    0.795547 0.554490 0.543608 0.240456
H32   H     H_    0.845747 0.575025 0.612295 0.234913
C83   C     C_3   0.838922 0.820495 0.555286 -0.750737
H33   H     H_    0.881488 0.876277 0.572803 0.245555
H34   H     H_    0.808458 0.887564 0.580630 0.254538
H35   H     H_    0.826728 0.855795 0.506875 0.249959
O26   O     O_3   0.095029 0.552796 0.501201 -0.515745
C84   C     C_3   0.124551 0.531142 0.452136 0.180508
H36   H     H_    0.153548 0.651762 0.450123 0.141044
H37   H     H_    0.095967 0.522853 0.407987 0.151802
C85   C     C_3   0.158664 0.349299 0.461299 -0.219102
H38   H     H_    0.187697 0.354998 0.505184 0.258522
H39   H     H_    0.129582 0.228599 0.462591 0.205334
C86   C     C_3   0.192817 0.318071 0.410790 -0.835896
H40   H     H_    0.164656 0.312857 0.366382 0.245107
H41   H     H_    0.215633 0.182397 0.418058 0.234889
H42   H     H_    0.223976 0.432890 0.410468 0.239873
O27   O     O_3   0.623073 0.814733 0.958897 -0.526065
C87   C     C_3   0.617789 0.010721 0.967053 0.215833
H43   H     H_    0.625292 0.044411 0.016061 0.165550
H44   H     H_    0.575572 0.066405 0.947038 0.126525
C88   C     C_3   0.662124 0.108310 0.936718 -0.304419
H45   H     H_    0.704447 0.054439 0.956427 0.240483
H46   H     H_    0.654265 0.075016 0.887727 0.234880
C89   C     C_3   0.661086 0.320469 0.944744 -0.750719
H47   H     H_    0.618526 0.376283 0.927216 0.245570
H48   H     H_    0.691564 0.387523 0.919416 0.254522
H49   H     H_    0.673268 0.355749 0.993159 0.249950
O28   O     O_3   0.404817 0.053232 0.999075 -0.515655
C90   C     C_3   0.375335 0.032548 0.048211 0.180432
H50   H     H_    0.346499 0.153659 0.050168 0.140688
H51   H     H_    0.403973 0.024235 0.092327 0.151829
C91   C     C_3   0.340985 0.851166 0.039262 -0.219128
H52   H     H_    0.311902 0.856857 0.995410 0.258793
H53   H     H_    0.369900 0.729970 0.038029 0.205468
C92   C     C_3   0.306874 0.821090 0.089871 -0.836423
H54   H     H_    0.335084 0.815945 0.134248 0.245194
H55   H     H_    0.283882 0.685705 0.082772 0.234749
H56   H     H_    0.275868 0.936419 0.090134 0.239873
Cl21  Cl    Cl    0.961356 0.322202 0.648616 -0.491367
Cl22  Cl    Cl    0.990542 0.449517 0.423873 -0.612605
Cl23  Cl    Cl    0.538632 0.822152 0.851388 -0.491338
Cl24  Cl    Cl    0.509351 0.949581 0.076203 -0.612145

loop_
_geom_bond_atom_site_label_1
_geom_bond_atom_site_label_2
_ccdc_geom_bond_type
O17   V3    S    
C65   Cl21  S    
C90   H51   S    
O1    C5    A    
O21   C69   S    
C48   Cl20  S    
C80   H26   S    
C31   C35   S    
O19   V1    S    
O13   V1    S    
C84   H36   S    
O3    C7    A    
C74   H12   S    
C56   C60   A    
O15   V3    S    
C82   C83   S    
C78   H23   S    
C82   H31   S    
O4    V2    S    
C22   Cl6   S    
C53   C54   A    
C73   H10   S    
O7    C3    A    
C59   C68   A    
C72   H9    S    
O24   C78   S    
C7    C18   S    
C40   Cl16  S    
C40   C44   A    
O9    V1    S    
C83   H33   S    
C14   C18   A    
C63   C67   A    
C88   H46   S    
C30   C34   S    
C11   C15   A    
O4    C8    A    
C25   C29   A    
C91   C92   S    
O23   C75   S    
C23   Cl7   S    
O1    V3    S    
C75   H15   S    
C24   Cl8   S    
O2    V4    S    
C18   C22   A    
O3    V1    S    
C49   C53   A    
C40   C60   A    
C81   C82   S    
C82   H32   S    
C1    O15   A    
O25   C81   S    
C64   C68   A    
C2    O16   A    
O20   V2    S    
C55   C59   A    
C46   C50   A    
C80   H28   S    
C45   C49   A    
O14   V2    S    
C60   C67   A    
C27   Cl11  S    
C19   C23   A    
C52   C64   A    
C16   C20   A    
C27   C31   A    
C68   Cl24  S    
C85   C86   S    
C44   C48   A    
C26   Cl10  S    
O11   C7    A    
C91   H52   S    
C38   C58   A    
C35   C36   T    
O12   C8    A    
C13   Cl1   S    
C81   H30   S    
C8    C17   S    
C84   H37   S    
C92   H54   S    
C61   O25   S    
O10   V2    S    
O22   C72   S    
C70   H4    S    
C87   H44   S    
C70   H3    S    
C86   H42   S    
O5    V1    S    
C76   H18   S    
C9    C29   A    
C64   O28   S    
C72   C73   S    
C39   C43   A    
O7    V3    S    
C38   C42   A    
C11   C31   A    
C90   H50   S    
O8    V4    S    
C12   C16   A    
C62   O26   S    
C86   H41   S    
C75   H16   S    
C62   C66   A    
C88   C89   S    
C29   C33   S    
O18   V4    S    
C15   C19   A    
C69   C70   S    
C4    C42   S    
C71   H7    S    
C9    C13   A    
C55   C56   A    
C39   C59   A    
C46   Cl18  S    
C92   H56   S    
C79   H25   S    
C88   H45   S    
C1    C43   S    
O28   C90   S    
O5    C1    A    
C12   C32   A    
C37   C41   A    
C5    C20   S    
C15   Cl3   S    
C54   C58   A    
C86   H40   S    
C21   C25   A    
O8    C4    A    
C47   Cl19  S    
C71   H6    S    
C91   H53   S    
C14   Cl2   S    
C25   Cl9   S    
C48   C52   A    
C74   H13   S    
C73   C74   S    
C26   C30   A    
C50   C62   A    
C69   H2    S    
C58   C65   A    
C39   Cl15  S    
C21   Cl5   S    
C57   C66   A    
C51   C63   A    
O26   C84   S    
O6    V2    S    
C10   C30   A    
C81   H29   S    
C84   C85   S    
C79   C80   S    
C51   C55   A    
C77   H20   S    
C78   H22   S    
C70   C71   S    
C85   H38   S    
C45   Cl17  S    
O16   V4    S    
C76   C77   S    
C3    O13   A    
C61   C65   A    
C38   Cl14  S    
C10   C14   A    
C3    C41   S    
C83   H35   S    
C12   O24   S    
C52   C56   A    
C9    O21   S    
O6    C2    A    
C23   C27   A    
C76   H17   S    
C87   C88   S    
O11   V3    S    
C2    C44   S    
O12   V4    S    
C72   H8    S    
C22   C26   A    
C75   C76   S    
O10   C6    A    
C77   H21   S    
C92   H55   S    
C79   H24   S    
C77   H19   S    
C78   C79   S    
C49   C61   A    
C37   C57   A    
O2    C6    A    
O9    C5    A    
C47   C51   A    
C33   C34   T    
C42   C46   A    
C37   Cl13  S    
C89   H49   S    
C41   C45   A    
C16   Cl4   S    
C83   H34   S    
C71   H5    S    
C85   H39   S    
C73   H11   S    
C74   H14   S    
C43   C47   A    
C13   C17   A    
C69   H1    S    
C10   O22   S    
C90   C91   S    
C63   O27   S    
O27   C87   S    
C20   C24   A    
C24   C28   A    
C32   C36   S    
C11   O23   S    
C28   Cl12  S    
C53   C57   A    
C50   C54   A    
C4    O14   A    
C80   H27   S    
C17   C21   A    
C89   H47   S    
C89   H48   S    
C6    C19   S    
C67   Cl23  S    
C87   H43   S    
C28   C32   A    
C66   Cl22  S    
