data_mof_unit_14706.cif
_audit_creation_date              2012-12-11T18:09:20-0500
_audit_creation_method            fapswitch 2.2
_symmetry_space_group_name_H-M    P1
_symmetry_Int_Tables_number       1
_space_group_crystal_system       triclinic
_cell_length_a                    8.273246
_cell_length_b                    12.852699
_cell_length_c                    18.938399
_cell_angle_alpha                 99.542797
_cell_angle_beta                  90.751828
_cell_angle_gamma                 98.896423
_cell_volume                      1960.47555437

loop_
_atom_site_label
_atom_site_type_symbol
_atom_type_description
_atom_site_fract_x
_atom_site_fract_y
_atom_site_fract_z
_atom_type_partial_charge
Ba1   Ba    Ba6+2 0.853180 0.547790 0.465300 1.720417
Ba2   Ba    Ba6+2 0.336650 0.452300 0.534710 1.728842
C1    C     C_3   0.741080 0.763195 0.145273 -0.306221
C2    C     C_R   0.014680 0.543951 0.727334 0.062569
C3    C     C_R   0.845659 0.408042 0.810168 -0.163749
C4    C     C_3   0.293492 0.841685 0.288608 0.413336
C5    C     C_R   0.779840 0.417975 0.744010 -0.011394
C6    C     C_R   0.341908 0.581440 0.185035 -0.160034
C7    C     C_R   0.400928 0.579754 0.254306 -0.006728
C8    C     C_R   0.135089 0.432644 0.197060 -0.155718
C9    C     C_R   0.167150 0.455555 0.271980 -0.001994
C10   C     C_R   0.972717 0.486217 0.845707 -0.010092
C11   C     C_R   0.873059 0.476478 0.699909 -0.233719
C12   C     C_3   0.742391 0.748486 0.223332 0.314603
C13   C     C_R   0.208398 0.504553 0.152484 0.028588
C14   C     C_R   0.298263 0.531923 0.299828 -0.114223
C15   C     C_R   0.752109 0.415743 0.963675 0.000612
C16   C     C_3   0.294328 0.835242 0.207669 -0.231126
C17   C     C_R   0.651547 0.372429 0.013315 0.444615
C18   C     C_R   0.703482 0.395166 0.085042 -0.152613
C19   C     C_R   0.858056 0.452443 0.104458 -0.122530
C20   C     C_R   0.977453 0.468763 0.052795 0.032114
C21   C     C_R   0.920489 0.456701 0.979134 0.001466
C22   C     C_R   0.147534 0.498755 0.073945 0.010674
C23   C     C_3   0.411827 0.246181 0.316634 0.692505
C24   C     C_R   0.257648 0.521090 0.018691 0.065894
C25   C     C_R   0.199705 0.514346 0.946051 0.039803
C26   C     C_R   0.030102 0.486121 0.924524 0.016476
C27   C     C_R   0.428989 0.547060 0.032621 -0.044798
C28   C     C_3   0.260275 0.788884 0.624234 0.296950
C29   C     C_R   0.533806 0.586435 0.983188 -0.088380
C30   C     C_R   0.479194 0.574915 0.913110 -0.043161
C31   C     C_R   0.318212 0.529565 0.894550 -0.044405
C32   C     C_R   0.764791 0.181802 0.529323 -0.239925
C33   C     C_R   0.430135 0.810394 0.474096 -0.269695
C34   C     C_3   0.426137 0.221135 0.235550 0.272462
C35   C     C_R   0.397428 0.986228 0.454091 -0.104750
C36   C     C_R   0.335594 0.877927 0.449008 -0.056018
C37   C     C_R   0.578135 0.850861 0.512261 0.057488
C38   C     C_R   0.640980 0.962528 0.520654 -0.041421
C39   C     C_R   0.550915 0.030038 0.488568 -0.040911
C40   C     C_3   0.218043 0.899208 0.621229 -0.358455
C41   C     C_R   0.616543 0.139597 0.492160 0.022238
C42   C     C_R   0.853940 0.117689 0.561445 0.016357
C43   C     C_R   0.791851 0.008677 0.557921 -0.063155
C44   C     C_3   0.882404 0.217655 0.265046 0.273112
C45   C     C_3   0.011284 0.163943 0.731565 0.582346
C46   C     C_3   0.951494 0.137505 0.211514 0.293187
C47   C     C_3   0.724823 0.701229 0.678628 0.306038
C48   C     C_3   0.749577 0.734262 0.759424 -0.383736
C49   C     C_3   0.099034 0.195745 0.806408 0.357122
C50   C     C_3   0.531880 0.171086 0.695212 0.340059
C51   C     C_3   0.517206 0.071719 0.729905 -0.291800
C52   C     C_R   0.047778 0.561518 0.802579 -0.153801
H1    H     H_    0.846144 0.802256 0.253273 0.206566
H2    H     H_    0.619928 0.634965 0.667569 0.075550
H3    H     H_    0.718005 0.844606 0.140676 0.130504
H4    H     H_    0.861494 0.794980 0.772363 0.136715
H5    H     H_    0.762931 0.663853 0.784493 0.054707
H6    H     H_    0.642095 0.768379 0.781985 0.130772
H7    H     H_    0.628781 0.771512 0.247708 -0.054898
H8    H     H_    0.642234 0.705814 0.114778 0.070164
H9    H     H_    0.282903 0.219976 0.329254 0.042387
H10   H     H_    0.344035 0.265331 0.209244 -0.042911
H11   H     H_    0.553629 0.248146 0.221143 0.041605
H12   H     H_    0.195309 0.939960 0.675481 0.132510
H13   H     H_    0.859321 0.749288 0.121287 0.147559
H14   H     H_    0.416145 0.822395 0.187976 0.005165
H15   H     H_    0.938594 0.227496 0.724503 -0.057731
H16   H     H_    0.135260 0.283953 0.818218 -0.020806
H17   H     H_    0.213189 0.160520 0.806249 0.074647
H18   H     H_    0.662889 0.192199 0.683188 -0.060298
H19   H     H_    0.457722 0.152269 0.644060 0.064532
H20   H     H_    0.600055 0.086724 0.778043 0.202236
H21   H     H_    0.551355 0.004090 0.691632 0.085392
H22   H     H_    0.355314 0.776994 0.303001 -0.135520
H23   H     H_    0.319575 0.948901 0.598851 0.059381
H24   H     H_    0.390690 0.050093 0.746774 0.108333
H25   H     H_    0.139804 0.628278 0.825459 0.068492
H26   H     H_    0.793416 0.339763 0.832607 0.139737
H27   H     H_    0.402708 0.641834 0.157598 0.049173
H28   H     H_    0.047041 0.363899 0.174592 0.046440
H29   H     H_    0.830442 0.473698 0.645275 0.056538
H30   H     H_    0.334102 0.543856 0.356096 0.051672
H31   H     H_    0.688332 0.422593 0.915736 0.076705
H32   H     H_    0.620525 0.374727 0.126104 0.077436
H33   H     H_    0.364961 0.920252 0.312563 0.041878
H34   H     H_    0.106625 0.892302 0.586866 0.125912
H35   H     H_    0.881648 0.482114 0.160665 0.148677
H36   H     H_    0.488267 0.531415 0.079421 0.062590
H37   H     H_    0.662547 0.613234 0.997052 0.060703
H38   H     H_    0.564812 0.592993 0.872503 0.086008
H39   H     H_    0.287811 0.503712 0.839335 0.127237
H40   H     H_    0.324259 0.034508 0.429969 0.127231
H41   H     H_    0.863692 0.961092 0.583181 0.103082
H42   H     H_    0.815274 0.264970 0.530368 0.055795
H43   H     H_    0.384001 0.725637 0.466584 0.051927
H44   H     H_    0.199082 0.769627 0.180740 0.115865
H45   H     H_    0.851730 0.279402 0.234825 -0.066464
H46   H     H_    0.274144 0.911809 0.192933 0.212374
H47   H     H_    0.392587 0.796795 0.637081 0.023524
H48   H     H_    0.229067 0.738661 0.570833 0.021848
H49   H     H_    0.699519 0.982652 0.249762 0.304567
H50   H     H_    0.387490 0.378922 0.377820 0.279759
H51   H     H_    0.393419 0.100586 0.158603 0.305277
H52   H     H_    0.973457 0.010053 0.728287 0.306901
H53   H     H_    0.877729 0.985434 0.854819 0.351420
H54   H     H_    0.438816 0.297626 0.033192 0.309905
H55   H     H_    0.765052 0.179845 0.283310 0.103001
H56   H     H_    0.869001 0.114592 0.162795 -0.010407
H57   H     H_    0.074110 0.171918 0.195811 0.028324
H58   H     H_    0.836647 0.673628 0.656420 0.016134
O1    O     O_2   0.875110 0.423180 0.326290 -0.421376
O2    O     O_2   0.183112 0.125645 0.545773 -0.472201
O3    O     O_3   0.132539 0.155602 0.680198 -0.635027
O4    O     O_3   0.123410 0.433040 0.414950 -0.490304
O5    O     O_3   0.577950 0.634370 0.536140 -0.499372
O6    O     O_2   0.341900 0.231310 0.465740 -0.470695
O7    O     O_3   0.515702 0.189769 0.349623 -0.634707
O8    O     O_2   0.464037 0.459954 0.755670 -0.502783
O9    O     O_3   0.473205 0.253158 0.741678 -0.574913
O10   O     O_3   0.661010 0.625070 0.369680 -0.450466
O11   O     O_2   0.643018 0.467096 0.261806 -0.441491
O12   O     O_3   0.694124 0.789573 0.649219 -0.633956
O13   O     O_3   0.991929 0.253442 0.325426 -0.606577
O14   O     O_3   0.767866 0.644410 0.226811 -0.613190
O15   O     O_2   0.847800 0.768730 0.534310 -0.479091
O16   O     O_3   0.082250 0.684470 0.405440 -0.479149
O17   O     O_2   0.993102 0.875629 0.435400 -0.442293
O18   O     O_2   0.998037 0.937516 0.189643 -0.354776
O19   O     O_2   0.099870 0.044628 0.305408 -0.250477
O20   O     O_3   0.785825 0.984195 0.286847 -0.541650
O21   O     O_3   0.457227 0.356488 0.337955 -0.749395
O22   O     O_3   0.383448 0.111282 0.211379 -0.730226
O23   O     O_3   0.131641 0.832494 0.312149 -0.531268
O24   O     O_3   0.905005 0.066232 0.725507 -0.756077
O25   O     O_2   0.063163 0.214224 0.948440 -0.250916
O26   O     O_2   0.810309 0.173534 0.874407 -0.328809
O27   O     O_3   0.984624 0.022014 0.877425 -0.496550
O28   O     O_3   0.495899 0.320464 0.991254 -0.686519
O29   O     O_2   0.314600 0.576860 0.673750 -0.478432
O30   O     O_3   0.066300 0.567050 0.585060 -0.495638
O31   O     O_3   0.528700 0.375020 0.630330 -0.478749
O32   O     O_3   0.175116 0.747576 0.679349 -0.632130
O33   O     O_3   0.611760 0.365720 0.463870 -0.438436
O34   O     O_3   0.107460 0.315620 0.594570 -0.466368
P1    P     P_3+3 0.042930 0.392230 0.337410 0.987848
P2    P     P_3+3 0.672230 0.754900 0.555730 0.960461
P3    P     P_3+3 0.135725 0.820522 0.403098 1.036078
P4    P     P_3+3 0.146790 0.607860 0.662600 0.975323
P5    P     P_3+3 0.063565 0.177694 0.596853 0.989650
P6    P     P_3+3 0.618078 0.584923 0.277498 0.995253
P7    P     P_3+3 0.523829 0.229550 0.442955 1.000257
P8    P     P_3+3 0.562794 0.375343 0.719919 0.959542
S1    S     S_3+6 0.963732 0.022296 0.249196 -0.079524
S2    S     S_3+6 0.983638 0.153206 0.878892 -0.062023

loop_
_geom_bond_atom_site_label_1
_geom_bond_atom_site_label_2
_ccdc_geom_bond_type
Ba2   P4    S    
C46   H56   S    
C44   H45   S    
C7    P6    S    
C45   O24   S    
C44   O13   S    
Ba1   O33   S    
C51   H20   S    
Ba1   O16   S    
C9    P1    S    
Ba2   O6    S    
C19   H35   S    
C25   C31   A    
Ba2   O33   S    
C45   O3    S    
O9    P8    S    
O12   P2    S    
C24   C25   A    
C4    O23   S    
Ba1   O1    S    
C10   C26   S    
O5    P2    S    
C15   H31   S    
C48   H5    S    
C7    C14   A    
C32   H42   S    
C33   H43   S    
C8    C13   A    
O14   P6    S    
C14   H30   S    
O20   S1    S    
C28   O32   S    
O6    P7    D    
Ba1   Ba2   S    
C23   H9    S    
C2    C11   A    
Ba1   O10   S    
C45   H15   S    
O32   P4    S    
Ba1   O30   S    
Ba2   O4    S    
C17   C18   A    
C17   O28   S    
C18   H32   S    
C37   P2    S    
O18   S1    D    
Ba1   O4    S    
C23   O21   S    
H49   O20   S    
C36   P3    S    
O15   P2    D    
O33   P7    S    
H52   O24   S    
C12   H1    S    
O7    P7    S    
C19   C20   A    
H53   O27   S    
Ba2   O31   S    
C39   C41   A    
C51   H21   S    
C49   H17   S    
O2    P5    D    
C23   O7    S    
C27   H36   S    
Ba2   O5    S    
O29   P4    D    
C38   C43   A    
C4    C16   S    
C44   C46   S    
C49   S2    S    
C42   P5    S    
H50   O21   S    
C32   C41   A    
C6    H27   S    
C48   H4    S    
C33   C36   A    
C32   C42   A    
C3    C10   A    
C50   H19   S    
O13   P1    S    
C37   C38   A    
C3    C5    A    
C34   H11   S    
C6    C7    A    
O31   P8    S    
C45   C49   S    
O23   P3    S    
C47   O12   S    
C16   H46   S    
C4    H33   S    
O25   S2    D    
C31   H39   S    
O10   P6    S    
C33   C37   A    
O17   P3    D    
C35   C36   A    
C50   H18   S    
C50   O9    S    
C29   C30   A    
C28   H48   S    
O8    P8    D    
C15   C21   A    
C21   C26   A    
C3    H26   S    
Ba1   O5    S    
C1    C12   S    
C40   H23   S    
C47   H58   S    
C1    H3    S    
C38   C39   A    
C49   H16   S    
C46   S1    S    
C6    C13   A    
C29   H37   S    
Ba2   O30   S    
C20   C22   A    
Ba1   P1    S    
C40   H34   S    
C43   H41   S    
C50   C51   S    
H54   O28   S    
C52   H25   S    
C1    H8    S    
O26   S2    D    
O11   P6    D    
C13   C22   S    
C2    C52   A    
C1    H13   S    
C42   C43   A    
Ba1   O15   S    
C22   C24   A    
C34   O22   S    
O4    P1    S    
C4    H22   S    
Ba2   O34   S    
C47   H2    S    
C2    P4    S    
C11   H29   S    
C12   O14   S    
C48   H6    S    
C30   C31   A    
O1    P1    D    
O19   S1    D    
C51   H24   S    
C27   C29   A    
C41   P7    S    
C12   H7    S    
O30   P4    S    
C30   H38   S    
C5    P8    S    
O27   S2    S    
C28   H47   S    
C15   C17   A    
C8    H28   S    
C35   H40   S    
C35   C39   A    
C9    C14   A    
C8    C9    A    
C23   C34   S    
O34   P5    S    
O16   P3    S    
C5    C11   A    
C46   H57   S    
C18   C19   A    
C24   C27   A    
C47   C48   S    
C44   H55   S    
O3    P5    S    
C25   C26   A    
C40   H12   S    
Ba2   O29   S    
C20   C21   A    
C28   C40   S    
Ba1   P2    S    
C16   H44   S    
C34   H10   S    
C16   H14   S    
C10   C52   A    
H51   O22   S    
