data_mof_unit_62978.cif
_audit_creation_date              2012-10-26T20:41:31-0400
_audit_creation_method            fapswitch 2.2
_symmetry_space_group_name_H-M    P1
_symmetry_Int_Tables_number       1
_space_group_crystal_system       triclinic
_cell_length_a                    11.713183
_cell_length_b                    10.474776
_cell_length_c                    10.668773
_cell_angle_alpha                 89.473141
_cell_angle_beta                  90.029561
_cell_angle_gamma                 90.130797
_cell_volume                      1308.92451445

loop_
_atom_site_label
_atom_site_type_symbol
_atom_type_description
_atom_site_fract_x
_atom_site_fract_y
_atom_site_fract_z
_atom_type_partial_charge
C1    C     C_R   0.283357 0.499888 0.499958 0.558814
C2    C     C_3   0.414634 0.422085 0.041568 0.029771
C3    C     C_3   0.400395 0.540308 0.955582 0.234105
C4    C     C_3   0.598691 0.459263 0.044448 0.234903
C5    C     C_3   0.502575 0.497098 0.877408 -0.022436
C6    C     C_3   0.496607 0.502498 0.122640 -0.021889
C7    C     C_1   0.161988 0.499729 0.499889 0.012068
C8    C     C_1   0.838012 0.500285 0.499911 0.013470
C9    C     C_1   0.059732 0.499872 0.499854 -0.023315
C10   C     C_1   0.940268 0.500152 0.499862 -0.022749
C11   C     C_3   0.211110 0.599778 0.982688 0.005363
C12   C     C_R   0.716643 0.500115 0.499980 0.559781
C13   C     C_3   0.129949 0.702686 0.935592 -0.339538
C14   C     C_3   0.779858 0.373585 0.015985 0.024094
C15   C     C_3   0.900294 0.410644 0.055251 -0.356012
C16   C     C_R   0.497962 0.500762 0.258803 0.599631
C17   C     C_R   0.501782 0.499187 0.741219 0.598320
C18   C     C_1   0.499997 0.072080 0.499999 0.159191
C19   C     C_1   0.499999 0.927920 0.500000 0.158413
C20   C     C_3   0.480872 0.621183 0.037124 0.070828
C21   C     C_3   0.518351 0.378069 0.962906 0.056301
C22   C     C_3   0.584237 0.577267 0.958608 0.045446
Cu1   Cu    Cu3+1 0.500000 0.625300 0.500000 1.085968
Cu2   Cu    Cu3+1 0.500000 0.374700 0.500000 1.085592
H1    H     H_    0.241119 0.627182 0.077943 0.148783
H2    H     H_    0.909154 0.516216 0.055630 0.171550
H3    H     H_    0.162495 0.508978 0.989739 0.162080
H4    H     H_    0.095339 0.676348 0.842345 0.173102
H5    H     H_    0.057868 0.713121 0.002277 0.119003
H6    H     H_    0.175738 0.795359 0.927436 0.196986
H7    H     H_    0.765909 0.408955 0.918281 0.141295
H8    H     H_    0.773925 0.267801 0.016142 0.183067
H9    H     H_    0.918860 0.372690 0.150649 0.178064
H10   H     H_    0.963117 0.370640 0.988390 0.119087
I1    I     I_    0.449362 0.814559 0.091640 -0.218411
I2    I     I_    0.544716 0.184539 0.904946 -0.235875
I3    I     I_    0.718097 0.698980 0.889722 -0.312357
I4    I     I_    0.286118 0.296147 0.116162 -0.323005
N1    N     N_1   0.500000 0.186410 0.500000 -0.170172
N2    N     N_1   0.500000 0.813590 0.500000 -0.171099
O1    O     O_R   0.337200 0.605810 0.499990 -0.492387
O2    O     O_3   0.701352 0.422155 0.103863 -0.530188
O3    O     O_R   0.662800 0.394190 0.500010 -0.492185
O4    O     O_R   0.662800 0.605810 0.500010 -0.485577
O5    O     O_R   0.337200 0.394190 0.499990 -0.484939
O6    O     O_R   0.499970 0.605800 0.316850 -0.488535
O7    O     O_R   0.500030 0.394200 0.683150 -0.488484
O8    O     O_R   0.500030 0.605800 0.683150 -0.458745
O9    O     O_R   0.499970 0.394200 0.316850 -0.459282
O10   O     O_3   0.300689 0.585663 0.895540 -0.527899

loop_
_geom_bond_atom_site_label_1
_geom_bond_atom_site_label_2
_ccdc_geom_bond_type
C18   N1    T    
C13   H4    S    
C22   I3    S    
C8    C12   S    
C4    C22   S    
C9    C10   S    
C2    I4    S    
C15   H10   S    
Cu1   O1    S    
C17   O8    A    
C11   H3    S    
C14   H7    S    
C14   O2    S    
C2    C21   S    
C2    C3    S    
C5    C21   S    
C3    C20   S    
C12   O4    A    
C11   O10   S    
C21   I2    S    
C4    C21   S    
C11   C13   S    
C1    O5    A    
C2    C6    S    
C4    O2    S    
Cu2   O5    S    
C5    C22   S    
C1    O1    A    
C3    O10   S    
C20   C22   S    
C20   I1    S    
C12   O3    A    
C5    C17   S    
C19   N2    T    
C11   H1    S    
Cu1   Cu2   S    
C6    C16   S    
Cu1   N2    S    
C7    C9    T    
C13   H6    S    
Cu2   N1    S    
C6    C20   S    
C16   O9    A    
C4    C6    S    
C18   C19   S    
C16   O6    A    
Cu2   O9    S    
Cu1   O6    S    
Cu2   O3    S    
C14   C15   S    
C15   H2    S    
Cu1   O8    S    
C1    C7    S    
Cu2   O7    S    
C15   H9    S    
C8    C10   T    
Cu1   O4    S    
C17   O7    A    
C13   H5    S    
C14   H8    S    
C3    C5    S    
