data_mof_unit_65205.cif
_audit_creation_date              2012-12-10T19:42:24-0500
_audit_creation_method            fapswitch 2.2
_symmetry_space_group_name_H-M    P1
_symmetry_Int_Tables_number       1
_space_group_crystal_system       triclinic
_cell_length_a                    23.464033
_cell_length_b                    22.515931
_cell_length_c                    27.756124
_cell_angle_alpha                 90.099821
_cell_angle_beta                  89.972413
_cell_angle_gamma                 90.249237
_cell_volume                      14663.8014649

loop_
_atom_site_label
_atom_site_type_symbol
_atom_type_description
_atom_site_fract_x
_atom_site_fract_y
_atom_site_fract_z
_atom_type_partial_charge
C1    C     C_R   0.389044 0.499842 0.499935 0.952884
C2    C     C_R   0.590053 0.555585 0.898340 0.660571
C3    C     C_R   0.548414 0.512766 0.126787 -0.000913
C4    C     C_R   0.452720 0.478667 0.873081 0.000267
C5    C     C_R   0.499592 0.499923 0.352898 -0.475996
C6    C     C_R   0.499324 0.500417 0.646976 -0.465118
C7    C     C_R   0.448670 0.486034 0.974471 0.155744
C8    C     C_R   0.547730 0.520568 0.025383 0.155860
C9    C     C_R   0.546007 0.527593 0.974742 -0.194102
C10   C     C_R   0.445922 0.493208 0.025088 -0.194637
C11   C     C_R   0.497734 0.506180 0.949348 0.026611
C12   C     C_R   0.610956 0.500157 0.499818 0.953362
C13   C     C_R   0.496797 0.506343 0.050495 0.026722
C14   C     C_R   0.405005 0.457358 0.948216 -0.099559
C15   C     C_R   0.599026 0.525017 0.051680 -0.098595
C16   C     C_R   0.499982 0.499954 0.405758 1.030746
C17   C     C_R   0.499824 0.500077 0.594198 1.031986
C18   C     C_R   0.406881 0.454079 0.898347 -0.126473
C19   C     C_R   0.599257 0.521541 0.101552 -0.126988
C20   C     C_R   0.394333 0.488279 0.051365 0.519167
C21   C     C_R   0.590333 0.555589 0.948427 0.519731
C22   C     C_R   0.880833 0.509235 0.456014 0.644643
C23   C     C_R   0.498446 0.500454 0.252344 -0.062351
C24   C     C_R   0.119279 0.490421 0.541983 0.638489
C25   C     C_R   0.880416 0.486581 0.540187 0.610482
C26   C     C_R   0.119708 0.513447 0.457877 0.617154
C27   C     C_R   0.939858 0.487068 0.541400 -0.096193
C28   C     C_R   0.060264 0.512822 0.456629 -0.098028
C29   C     C_R   0.970092 0.499340 0.498669 -0.082086
C30   C     C_R   0.030026 0.500473 0.499350 -0.081741
C31   C     C_R   0.940525 0.510514 0.455315 -0.174111
C32   C     C_R   0.059592 0.489226 0.542697 -0.171802
C33   C     C_R   0.969473 0.475985 0.584287 -0.200187
C34   C     C_R   0.499116 0.501197 0.747477 -0.063435
C35   C     C_R   0.030650 0.523877 0.413739 -0.198534
C36   C     C_R   0.028740 0.476996 0.585116 0.701091
C37   C     C_R   0.971381 0.522749 0.412894 0.702506
C38   C     C_R   0.539266 0.315962 0.472896 0.534274
C39   C     C_R   0.539182 0.684291 0.527224 0.568822
C40   C     C_R   0.460859 0.315808 0.527284 0.570555
C41   C     C_R   0.460677 0.683944 0.473001 0.535424
C42   C     C_R   0.540178 0.253215 0.473120 -0.310307
C43   C     C_R   0.540226 0.747050 0.527025 -0.292233
C44   C     C_R   0.459838 0.253049 0.527080 -0.289957
C45   C     C_R   0.496917 0.504889 0.101409 -0.134126
C46   C     C_R   0.459790 0.746692 0.473233 -0.305893
C47   C     C_R   0.236602 0.447026 0.497847 0.632977
C48   C     C_R   0.763388 0.552923 0.496484 0.633593
C49   C     C_R   0.295781 0.445978 0.497723 0.553452
C50   C     C_R   0.704211 0.553988 0.496961 0.553628
C51   C     C_R   0.326741 0.499702 0.499824 -0.275109
C52   C     C_R   0.673258 0.500286 0.499257 -0.276094
C53   C     C_R   0.297508 0.553995 0.501799 -0.231896
C54   C     C_R   0.702489 0.445990 0.500854 -0.233037
C55   C     C_R   0.238388 0.554706 0.501840 -0.173616
C56   C     C_R   0.498551 0.504595 0.898437 -0.134281
C57   C     C_R   0.761601 0.445247 0.500305 -0.171527
C58   C     C_R   0.208101 0.501303 0.499958 0.063334
C59   C     C_R   0.791933 0.498625 0.498131 0.059493
C60   C     C_R   0.501743 0.874125 0.457156 0.547796
C61   C     C_R   0.501665 0.125899 0.543062 0.541883
C62   C     C_R   0.498478 0.874297 0.543081 0.541252
C63   C     C_R   0.498249 0.125685 0.457143 0.546410
C64   C     C_R   0.499464 0.937042 0.543905 -0.036840
C65   C     C_R   0.499301 0.062952 0.456320 -0.039734
C66   C     C_R   0.500697 0.936854 0.456327 -0.041558
C67   C     C_R   0.445703 0.495367 0.126941 -0.311601
C68   C     C_R   0.500687 0.063157 0.543895 -0.038311
C69   C     C_R   0.500060 0.968436 0.500114 -0.007201
C70   C     C_R   0.500016 0.031566 0.500110 -0.007129
C71   C     C_R   0.499607 0.969110 0.587463 -0.121377
C72   C     C_R   0.499411 0.030886 0.412761 -0.121393
C73   C     C_R   0.500513 0.968724 0.412764 -0.118657
C74   C     C_R   0.500623 0.031285 0.587458 -0.120096
C75   C     C_R   0.447367 0.493899 0.177460 0.726132
C76   C     C_R   0.544543 0.526572 0.822363 0.727823
C77   C     C_R   0.499964 0.221057 0.500082 0.227929
C78   C     C_R   0.545126 0.528788 0.872882 -0.311870
C79   C     C_R   0.500070 0.778945 0.500107 0.226014
C80   C     C_R   0.547923 0.510769 0.177068 0.653240
C81   C     C_R   0.454165 0.477381 0.822788 0.651273
C82   C     C_R   0.513178 0.448194 0.276495 0.351403
C83   C     C_R   0.481367 0.551977 0.722717 0.353308
C84   C     C_R   0.513785 0.448012 0.327104 0.470619
C85   C     C_R   0.481480 0.551501 0.672148 0.464821
C86   C     C_R   0.484885 0.551858 0.327697 0.501493
C87   C     C_R   0.516717 0.449826 0.672665 0.494141
C88   C     C_R   0.484400 0.551897 0.277733 0.565843
C89   C     C_R   0.394435 0.488789 0.101454 0.662115
C90   C     C_R   0.516571 0.450424 0.722676 0.569500
F1    F     F_    0.342690 0.488149 0.029387 -0.596425
F2    F     F_    0.534914 0.400178 0.649558 -0.559536
F3    F     F_    0.470220 0.602140 0.253668 -0.557244
F4    F     F_    0.533850 0.401701 0.747317 -0.561894
F5    F     F_    0.343685 0.483537 0.124672 -0.524434
F6    F     F_    0.633857 0.582881 0.875095 -0.526467
F7    F     F_    0.463297 0.600184 0.647772 -0.611901
F8    F     F_    0.528959 0.397779 0.350855 -0.597598
F9    F     F_    0.631865 0.587875 0.970348 -0.596872
F10   F     F_    0.055365 0.465927 0.627564 -0.568967
F11   F     F_    0.944758 0.533782 0.370438 -0.567066
F12   F     F_    0.206724 0.395334 0.495676 -0.579173
F13   F     F_    0.793216 0.604664 0.494696 -0.577006
F14   F     F_    0.322327 0.392596 0.495291 -0.574506
F15   F     F_    0.677656 0.607386 0.495039 -0.573127
F16   F     F_    0.470177 0.602485 0.351179 -0.544805
H1    H     H_    0.572011 0.229559 0.452450 0.185248
H2    H     H_    0.783951 0.403298 0.501585 0.195997
H3    H     H_    0.499265 0.946279 0.621773 0.206059
H4    H     H_    0.498980 0.053713 0.378452 0.205453
H5    H     H_    0.500883 0.945743 0.378457 0.207198
H6    H     H_    0.501024 0.054270 0.621764 0.206884
H7    H     H_    0.372202 0.431991 0.879681 0.209550
H8    H     H_    0.639626 0.525528 0.120240 0.210011
H9    H     H_    0.370127 0.434527 0.965556 0.222434
H10   H     H_    0.640065 0.528312 0.034380 0.223064
H11   H     H_    0.602905 0.320583 0.428227 0.341148
H12   H     H_    0.572054 0.770911 0.547737 0.190910
H13   H     H_    0.602385 0.680064 0.572259 0.351852
H14   H     H_    0.397686 0.320198 0.572403 0.353104
H15   H     H_    0.396899 0.679171 0.428522 0.347498
H16   H     H_    0.453115 0.633182 0.726910 0.403571
H17   H     H_    0.535912 0.365202 0.271340 0.401133
H18   H     H_    0.428049 0.229262 0.547849 0.190635
H19   H     H_    0.427921 0.770276 0.452641 0.187645
H20   H     H_    0.946881 0.466503 0.617460 0.229066
H21   H     H_    0.053245 0.533403 0.380576 0.229879
H22   H     H_    0.320231 0.595928 0.503385 0.226273
H23   H     H_    0.679771 0.404069 0.502588 0.227012
H24   H     H_    0.216008 0.596628 0.503422 0.194831
N1    N     N_R   0.497926 0.501516 0.201039 -0.298444
N2    N     N_R   0.499471 0.501321 0.798792 -0.298563
N3    N     N_R   0.852532 0.497746 0.498031 -0.338276
N4    N     N_R   0.147547 0.502148 0.500012 -0.338087
N5    N     N_R   0.500000 0.345660 0.500000 -0.128307
N6    N     N_R   0.500000 0.654340 0.500000 -0.128437
N7    N     N_R   0.500118 0.843684 0.500119 -0.325634
N8    N     N_R   0.499942 0.156319 0.500099 -0.325523
O1    O     O_R   0.416150 0.549570 0.500020 -0.601641
O2    O     O_2   0.505068 0.156056 0.585005 -0.515902
O3    O     O_2   0.495144 0.844328 0.585035 -0.523203
O4    O     O_2   0.494822 0.155617 0.415195 -0.518230
O5    O     O_2   0.399220 0.484718 0.203046 -0.421136
O6    O     O_2   0.588413 0.549233 0.796754 -0.423655
O7    O     O_2   0.410576 0.452860 0.797896 -0.506041
O8    O     O_2   0.596849 0.518228 0.201977 -0.505404
O9    O     O_2   0.851006 0.519277 0.415298 -0.420313
O10   O     O_2   0.149139 0.479990 0.582616 -0.424813
O11   O     O_2   0.850507 0.475577 0.580792 -0.508674
O12   O     O_R   0.583850 0.450430 0.499980 -0.601332
O13   O     O_2   0.149663 0.524792 0.417360 -0.505220
O14   O     O_3   0.577492 0.348314 0.445728 -0.675818
O15   O     O_3   0.577004 0.652170 0.554674 -0.654735
O16   O     O_3   0.423043 0.348029 0.554785 -0.653859
O17   O     O_3   0.422357 0.651500 0.445941 -0.671978
O18   O     O_3   0.464085 0.600797 0.749101 -0.681916
O19   O     O_3   0.526653 0.398552 0.249529 -0.686903
O20   O     O_R   0.583850 0.549570 0.499980 -0.537509
O21   O     O_R   0.416150 0.450430 0.500020 -0.538298
O22   O     O_R   0.500010 0.549550 0.428760 -0.548052
O23   O     O_R   0.499990 0.450450 0.571240 -0.554683
O24   O     O_R   0.499990 0.549550 0.571240 -0.547851
O25   O     O_R   0.500010 0.450450 0.428760 -0.541458
O26   O     O_2   0.505093 0.844004 0.415204 -0.508363
Zn1   Zn    Zn3+2 0.500000 0.566180 0.500000 1.133699
Zn2   Zn    Zn3+2 0.500000 0.433820 0.500000 1.133252

loop_
_geom_bond_atom_site_label_1
_geom_bond_atom_site_label_2
_ccdc_geom_bond_type
C7    C10   A    
C37   F11   S    
C63   C65   A    
C8    C13   A    
C23   C82   A    
C16   O22   A    
C76   N2    A    
C14   C18   A    
C46   H19   S    
C49   F14   S    
C34   C90   A    
C47   C49   A    
C27   C33   A    
C7    C11   A    
C6    C85   A    
C39   O15   S    
C2    C78   A    
C32   C36   A    
C44   C77   A    
C35   C37   A    
C76   C78   A    
C38   C42   A    
C74   H6    S    
C46   C79   A    
C21   F9    S    
C86   C88   A    
C61   N8    A    
C57   C59   A    
C66   C69   A    
C27   C29   A    
N6    Zn1   S    
C43   C79   A    
C14   H9    S    
O12   Zn2   S    
C67   C89   A    
C33   C36   A    
C56   C78   A    
C25   O11   S    
C64   C71   A    
O1    Zn1   S    
C5    C16   S    
C62   C64   A    
C12   C52   S    
N5    Zn2   S    
C7    C14   A    
C4    C81   A    
C28   C35   A    
C10   C20   A    
C8    C9    A    
C49   C51   A    
C45   C67   A    
C50   F15   S    
C50   C52   A    
C41   C46   A    
C3    C19   A    
C30   C32   A    
C25   N3    A    
C42   H1    S    
O23   Zn2   S    
C1    O1    A    
C60   N7    A    
C17   O23   A    
C4    C18   A    
C48   C50   A    
C60   C66   A    
H13   O15   S    
C80   N1    A    
C87   F2    S    
C4    C56   A    
C40   O16   S    
C86   F16   S    
C3    C80   A    
C18   H7    S    
C38   O14   S    
C26   C28   A    
C20   F1    S    
C52   C54   A    
C90   F4    S    
C39   N6    A    
C53   C55   A    
C16   O25   A    
C40   N5    A    
C72   H4    S    
C22   C31   A    
C22   N3    A    
C12   O12   A    
C1    O21   A    
C73   H5    S    
C77   N8    S    
C24   O10   S    
C5    C84   A    
C81   N2    A    
C39   C43   A    
C83   O18   S    
H17   O19   S    
C19   H8    S    
O22   Zn1   S    
C48   F13   S    
C3    C45   A    
C58   N4    S    
C6    C87   A    
C31   C37   A    
C51   C53   A    
C89   F5    S    
C15   C19   A    
C24   C32   A    
C29   C30   A    
C26   N4    A    
C53   H22   S    
O24   Zn1   S    
C9    C11   A    
C55   H24   S    
O25   Zn2   S    
C2    C21   A    
H14   O16   S    
C23   N1    S    
C36   F10   S    
C38   N5    A    
C35   H21   S    
C1    C51   S    
C75   O5    S    
C5    C86   A    
C76   O6    S    
C79   N7    S    
C8    C15   A    
C81   O7    S    
C23   C88   A    
C63   N8    A    
C55   C58   A    
C67   C75   A    
C34   C83   A    
C62   O3    S    
C48   C59   A    
C24   N4    A    
C82   O19   S    
C6    C17   S    
C88   F3    S    
C26   O13   S    
H15   O17   S    
C83   C85   A    
H16   O18   S    
C54   H23   S    
C72   C73   A    
C10   C13   A    
C71   C74   A    
C61   O2    S    
C25   C27   A    
C65   C72   A    
C64   C69   A    
C20   C89   A    
C82   C84   A    
O21   Zn2   S    
C84   F8    S    
C2    F6    S    
C29   C31   A    
C47   C58   A    
C13   C45   A    
C66   C73   A    
C61   C68   A    
C9    C21   A    
C71   H3    S    
C28   C30   A    
C33   H20   S    
C60   O26   S    
C63   O4    S    
C59   N3    S    
H11   O14   S    
C62   N7    A    
C69   C70   A    
C85   F7    S    
C17   O24   A    
C43   H12   S    
C34   N2    S    
C40   C44   A    
C57   H2    S    
C22   O9    S    
C75   N1    A    
C42   C77   A    
C68   C70   A    
C87   C90   A    
C44   H18   S    
C47   F12   S    
C15   H10   S    
C80   O8    S    
C12   O20   A    
C68   C74   A    
C41   N6    A    
C11   C56   A    
C65   C70   A    
O20   Zn1   S    
C41   O17   S    
C54   C57   A    
