data_mof_unit_20430.cif
_audit_creation_date              2012-12-11T16:51:33-0500
_audit_creation_method            fapswitch 2.2
_symmetry_space_group_name_H-M    P1
_symmetry_Int_Tables_number       1
_space_group_crystal_system       triclinic
_cell_length_a                    24.178849
_cell_length_b                    17.04896
_cell_length_c                    15.587872
_cell_angle_alpha                 90.242505
_cell_angle_beta                  128.880158
_cell_angle_gamma                 90.278352
_cell_volume                      5001.87505315

loop_
_atom_site_label
_atom_site_type_symbol
_atom_type_description
_atom_site_fract_x
_atom_site_fract_y
_atom_site_fract_z
_atom_type_partial_charge
C1    C     C_R   0.843124 0.864897 0.226418 -0.062404
C2    C     C_R   0.148031 0.856046 0.754016 -0.039337
C3    C     C_R   0.343124 0.364898 0.226418 -0.062403
C4    C     C_R   0.648031 0.356046 0.754016 -0.039334
C5    C     C_R   0.909838 0.144523 0.590680 -0.058796
C6    C     C_R   0.088873 0.144923 0.409272 -0.042279
C7    C     C_R   0.409838 0.644523 0.590680 -0.058797
C8    C     C_R   0.588873 0.644923 0.409272 -0.042279
C9    C     C_R   0.857172 0.186213 0.497624 0.029324
C10   C     C_R   0.139698 0.189587 0.501542 0.042022
C11   C     C_R   0.357172 0.686213 0.497624 0.029325
C12   C     C_R   0.639698 0.689587 0.501543 0.042023
C13   C     C_R   0.851650 0.126017 0.136734 0.019835
C14   C     C_R   0.147796 0.132050 0.861164 0.063736
C15   C     C_R   0.351650 0.626017 0.136735 0.019836
C16   C     C_R   0.647796 0.632052 0.861163 0.063740
C17   C     C_R   0.763118 0.860079 0.597118 0.159984
C18   C     C_R   0.218986 0.837068 0.392604 0.080593
C19   C     C_R   0.263117 0.360080 0.597117 0.159985
C20   C     C_R   0.718986 0.337068 0.392604 0.080595
C21   C     C_R   0.752235 0.876377 0.499585 -0.012252
C22   C     C_R   0.242051 0.874642 0.489864 0.019091
C23   C     C_R   0.252235 0.376377 0.499584 -0.012253
C24   C     C_R   0.742051 0.374642 0.489864 0.019090
C25   C     C_R   0.682070 0.861525 0.400364 -0.112946
C26   C     C_R   0.313745 0.865762 0.585845 -0.102739
C27   C     C_R   0.182070 0.361524 0.400363 -0.112945
C28   C     C_R   0.813745 0.365762 0.585845 -0.102739
C29   C     C_R   0.140529 0.303530 0.401224 -0.198787
C30   C     C_R   0.853887 0.305368 0.588034 -0.184131
C31   C     C_R   0.640529 0.803530 0.401225 -0.198786
C32   C     C_R   0.353887 0.805368 0.588034 -0.184132
C33   C     C_R   0.165443 0.267730 0.500985 0.009919
C34   C     C_R   0.825572 0.260029 0.493132 0.078817
C35   C     C_R   0.665443 0.767730 0.500986 0.009918
C36   C     C_R   0.325572 0.760029 0.493132 0.078818
C37   C     C_R   0.220085 0.307379 0.597261 0.132018
C38   C     C_R   0.760495 0.280725 0.394074 0.059248
C39   C     C_R   0.720086 0.807378 0.597262 0.132019
C40   C     C_R   0.260495 0.780725 0.394074 0.059247
C41   C     C_3   0.775205 0.788167 0.715547 0.036379
C42   C     C_3   0.246943 0.812904 0.293122 0.049187
C43   C     C_3   0.275203 0.288170 0.715547 0.036379
C44   C     C_3   0.746943 0.312903 0.293122 0.049186
C45   C     C_R   0.114987 0.901330 0.406861 -0.092285
C46   C     C_R   0.883081 0.902863 0.590913 -0.094260
C47   C     C_R   0.614987 0.401330 0.406861 -0.092285
C48   C     C_R   0.383081 0.402863 0.590912 -0.094258
C49   C     C_3   0.824419 0.843723 0.714969 -0.573490
C50   C     C_3   0.202900 0.875307 0.293063 -0.501718
C51   C     C_3   0.324417 0.343726 0.714969 -0.573494
C52   C     C_3   0.702899 0.375306 0.293063 -0.501722
C53   C     C_2   0.128084 0.730511 0.816193 -0.074708
C54   C     C_2   0.849533 0.748274 0.125565 -0.122670
C55   C     C_2   0.628084 0.230511 0.816193 -0.074706
C56   C     C_2   0.349532 0.248277 0.125562 -0.122662
C57   C     C_2   0.191443 0.722765 0.916305 -0.243123
C58   C     C_2   0.814162 0.694919 0.139655 -0.170262
C59   C     C_2   0.691444 0.222765 0.916305 -0.243122
C60   C     C_2   0.314163 0.194919 0.139653 -0.170274
C61   C     C_2   0.803760 0.159714 0.026564 -0.105661
C62   C     C_2   0.196227 0.167080 0.971558 -0.140034
C63   C     C_2   0.303760 0.659714 0.026564 -0.105662
C64   C     C_2   0.696227 0.667083 0.971556 -0.140039
C65   C     C_2   0.732904 0.150640 0.964823 -0.061014
C66   C     C_2   0.261739 0.139229 0.051892 -0.092442
C67   C     C_2   0.232904 0.650640 0.964823 -0.061014
C68   C     C_2   0.761737 0.639229 0.051894 -0.092441
C69   C     C_R   0.189900 0.903734 0.588125 -0.076207
C70   C     C_R   0.810641 0.898529 0.409868 -0.080041
C71   C     C_R   0.689900 0.403734 0.588125 -0.076207
C72   C     C_R   0.310641 0.398529 0.409868 -0.080042
C73   C     C_R   0.052115 0.853984 0.745469 -0.011692
C74   C     C_R   0.939856 0.860378 0.236408 -0.015288
C75   C     C_R   0.552115 0.353984 0.745469 -0.011695
C76   C     C_R   0.439855 0.360379 0.236407 -0.015287
C77   C     C_R   0.876303 0.821058 0.193734 -0.012386
C78   C     C_R   0.109876 0.810593 0.774775 -0.063002
C79   C     C_R   0.376302 0.321059 0.193733 -0.012388
C80   C     C_R   0.609876 0.310593 0.774776 -0.063006
C81   C     C_R   0.185236 0.891923 0.496110 0.054987
C82   C     C_R   0.813130 0.889180 0.500207 0.058408
C83   C     C_R   0.685236 0.391923 0.496110 0.054988
C84   C     C_R   0.313130 0.389180 0.500207 0.058406
C85   C     C_R   0.834395 0.141314 0.406833 -0.049966
C86   C     C_R   0.162548 0.144893 0.592571 -0.084423
C87   C     C_R   0.334395 0.641314 0.406833 -0.049966
C88   C     C_R   0.662548 0.644892 0.592571 -0.084425
C89   C     C_R   0.921991 0.103986 0.195742 -0.096633
C90   C     C_R   0.077585 0.107765 0.802893 -0.092094
C91   C     C_R   0.421992 0.603986 0.195742 -0.096633
C92   C     C_R   0.577585 0.607766 0.802892 -0.092093
C93   C     C_R   0.167311 0.110581 0.798786 -0.056731
C94   C     C_R   0.832901 0.108590 0.201393 -0.060760
C95   C     C_R   0.667311 0.610581 0.798785 -0.056719
C96   C     C_R   0.332902 0.608590 0.201393 -0.060760
H1    H     H_    0.090896 0.284816 0.324124 0.174827
H2    H     H_    0.906828 0.293814 0.663194 0.170874
H3    H     H_    0.590896 0.784818 0.324125 0.174828
H4    H     H_    0.406828 0.793814 0.663195 0.170874
H5    H     H_    0.794529 0.726898 0.731722 0.131910
H6    H     H_    0.214425 0.771883 0.221684 0.120985
H7    H     H_    0.294528 0.226901 0.731724 0.131910
H8    H     H_    0.714425 0.271882 0.221684 0.120985
H9    H     H_    0.841202 0.896158 0.769024 0.244471
H10   H     H_    0.225633 0.935605 0.310722 0.233095
H11   H     H_    0.341199 0.396162 0.769022 0.244472
H12   H     H_    0.725633 0.435605 0.310722 0.233095
H13   H     H_    0.868147 0.811622 0.725301 0.185939
H14   H     H_    0.145541 0.870822 0.220721 0.184127
H15   H     H_    0.368146 0.311625 0.725303 0.185939
H16   H     H_    0.645540 0.370822 0.220721 0.184127
H17   H     H_    0.218940 0.776268 0.963670 0.154491
H18   H     H_    0.813210 0.701589 0.208024 0.187215
H19   H     H_    0.718940 0.276268 0.963670 0.154489
H20   H     H_    0.313211 0.201589 0.208022 0.187214
H21   H     H_    0.825236 0.210622 0.014156 0.185315
H22   H     H_    0.182214 0.225666 0.978601 0.213695
H23   H     H_    0.325236 0.710622 0.014156 0.185315
H24   H     H_    0.682216 0.725671 0.978596 0.213690
H25   H     H_    0.093784 0.906545 0.322063 0.138245
H26   H     H_    0.902767 0.913805 0.673995 0.142261
H27   H     H_    0.593784 0.406545 0.322063 0.138245
H28   H     H_    0.402767 0.413805 0.673994 0.142260
H29   H     H_    0.238299 0.912335 0.670108 0.142024
H30   H     H_    0.763517 0.900583 0.326328 0.139775
H31   H     H_    0.738299 0.412335 0.670108 0.142023
H32   H     H_    0.263518 0.400583 0.326328 0.139776
H33   H     H_    0.011101 0.835395 0.749677 0.122282
H34   H     H_    0.978693 0.844186 0.226520 0.139368
H35   H     H_    0.511101 0.335395 0.749678 0.122284
H36   H     H_    0.478693 0.344187 0.226518 0.139365
H37   H     H_    0.792905 0.155098 0.321599 0.103445
H38   H     H_    0.199856 0.161719 0.677477 0.112811
H39   H     H_    0.292905 0.655098 0.321599 0.103445
H40   H     H_    0.699856 0.661718 0.677477 0.112810
H41   H     H_    0.221057 0.109013 0.826772 0.153194
H42   H     H_    0.779900 0.108769 0.176243 0.118245
H43   H     H_    0.721057 0.609013 0.826771 0.153197
H44   H     H_    0.279900 0.608769 0.176243 0.118244
H45   H     H_    0.938462 0.162917 0.674977 0.110933
H46   H     H_    0.058949 0.162111 0.324733 0.102564
H47   H     H_    0.438462 0.662917 0.674977 0.110934
H48   H     H_    0.558949 0.662112 0.324733 0.102564
N1    N     N_R   0.888400 0.921830 0.294620 -0.065880
N2    N     N_R   0.111600 0.921830 0.705380 -0.063151
N3    N     N_R   0.388400 0.421830 0.294620 -0.065881
N4    N     N_R   0.611600 0.421830 0.705380 -0.063150
N5    N     N_R   0.079940 0.922160 0.443410 -0.050526
N6    N     N_R   0.920060 0.922160 0.556590 -0.047485
N7    N     N_R   0.579940 0.422160 0.443410 -0.050526
N8    N     N_R   0.420060 0.422160 0.556590 -0.047486
N9    N     N_R   0.125650 0.922400 0.556620 -0.066214
N10   N     N_R   0.874350 0.922400 0.443380 -0.058471
N11   N     N_R   0.625650 0.422400 0.556620 -0.066214
N12   N     N_R   0.374350 0.422400 0.443380 -0.058471
N13   N     N_R   0.054230 0.922730 0.705400 -0.047335
N14   N     N_R   0.945770 0.922730 0.294600 -0.054710
N15   N     N_R   0.554230 0.422730 0.705400 -0.047334
N16   N     N_R   0.445770 0.422730 0.294600 -0.054710
N17   N     N_R   0.873790 0.077030 0.443380 -0.047906
N18   N     N_R   0.126210 0.077030 0.556620 -0.049614
N19   N     N_R   0.373790 0.577030 0.443380 -0.047906
N20   N     N_R   0.626210 0.577030 0.556620 -0.049614
N21   N     N_R   0.945200 0.076700 0.294600 -0.067591
N22   N     N_R   0.054800 0.076700 0.705400 -0.067906
N23   N     N_R   0.445200 0.576700 0.294600 -0.067591
N24   N     N_R   0.554800 0.576700 0.705400 -0.067906
N25   N     N_R   0.111030 0.077600 0.705380 -0.061389
N26   N     N_R   0.888970 0.077600 0.294620 -0.050808
N27   N     N_R   0.611030 0.577600 0.705380 -0.061390
N28   N     N_R   0.388970 0.577600 0.294620 -0.050808
N29   N     N_R   0.919490 0.077280 0.556590 -0.038004
N30   N     N_R   0.080510 0.077280 0.443410 -0.036032
N31   N     N_R   0.419490 0.577280 0.556590 -0.038004
N32   N     N_R   0.580510 0.577280 0.443410 -0.036032
Ni1   Ni    Ni4+2 0.882160 0.999430 0.370180 0.271765
Ni2   Ni    Ni4+2 0.117840 0.999430 0.629820 0.266699
Ni3   Ni    Ni4+2 0.382160 0.499430 0.370180 0.271765
Ni4   Ni    Ni4+2 0.617840 0.499430 0.629820 0.266701
Ni5   Ni    Ni4+2 0.012460 0.999430 0.370180 0.264047
Ni6   Ni    Ni4+2 0.987540 0.999430 0.629820 0.265399
Ni7   Ni    Ni4+2 0.512460 0.499430 0.370180 0.264046
Ni8   Ni    Ni4+2 0.487540 0.499430 0.629820 0.265399
C97   C     C_2   0.766399 0.869568 0.170183 0.963798
O1    O     O_2   0.729418 0.810709 0.139459 -0.653825
O2    O     O_R   0.736340 0.943294 0.154332 -0.804319
H49   H     H_    0.683536 0.940129 0.115449 0.344502
C98   C     C_2   0.221468 0.842484 0.797355 0.936944
O3    O     O_2   0.238967 0.778018 0.787550 -0.608988
O4    O     O_R   0.271525 0.903291 0.852978 -0.797306
H50   H     H_    0.320541 0.886953 0.880928 0.345366
C99   C     C_2   0.266399 0.369569 0.170182 0.963803
O5    O     O_2   0.229418 0.310709 0.139457 -0.653827
O6    O     O_R   0.236340 0.443294 0.154333 -0.804319
H51   H     H_    0.183536 0.440128 0.115449 0.344501
C100  C     C_2   0.721468 0.342484 0.797355 0.936947
O7    O     O_2   0.738967 0.278018 0.787550 -0.608989
O8    O     O_R   0.771525 0.403291 0.852979 -0.797301
H52   H     H_    0.820541 0.386953 0.880929 0.345364
I1    I     I_    0.739172 0.832768 0.801609 -0.330105
I2    I     I_    0.339107 0.859064 0.318146 -0.360627
I3    I     I_    0.239167 0.332772 0.801604 -0.330099
I4    I     I_    0.839107 0.359064 0.318146 -0.360616
C101  C     C_2   0.700153 0.075700 0.962076 1.117433
O9    O     O_2   0.644754 0.075971 0.949126 -0.644206
O10   O     O_R   0.732117 0.004689 0.971219 -0.741726
H53   H     H_    0.702390 0.957462 0.959530 0.347503
C102  C     C_2   0.281929 0.055959 0.057324 1.134322
O11   O     O_2   0.344426 0.037321 0.122015 -0.581750
O12   O     O_R   0.229795 0.998355 0.992129 -0.804244
H54   H     H_    0.250413 0.943943 0.005642 0.340262
C103  C     C_2   0.200153 0.575699 0.962076 1.117436
O13   O     O_2   0.144754 0.575970 0.949124 -0.644205
O14   O     O_R   0.232118 0.504689 0.971221 -0.741726
H55   H     H_    0.202391 0.457462 0.959531 0.347504
C104  C     C_2   0.781925 0.555957 0.057330 1.134334
O15   O     O_2   0.844419 0.537315 0.122037 -0.581759
O16   O     O_R   0.729791 0.498356 0.992122 -0.804249
H56   H     H_    0.750407 0.443943 0.005640 0.340261
C105  C     C_2   0.085517 0.665907 0.735545 1.101957
O17   O     O_2   0.114221 0.607565 0.734343 -0.602447
O18   O     O_R   0.012031 0.674473 0.655920 -0.802258
H57   H     H_    0.988446 0.627727 0.603864 0.341781
C106  C     C_2   0.865339 0.734639 0.047981 1.084343
O19   O     O_2   0.852065 0.671421 0.001071 -0.644324
O20   O     O_R   0.897508 0.793957 0.030767 -0.792894
H58   H     H_    0.907060 0.777274 0.978650 0.335850
C107  C     C_2   0.585516 0.165907 0.735546 1.101955
O21   O     O_2   0.614221 0.107566 0.734342 -0.602448
O22   O     O_R   0.512031 0.174472 0.655923 -0.802257
H59   H     H_    0.488445 0.127727 0.603867 0.341781
C108  C     C_2   0.365337 0.234644 0.047974 1.084342
O23   O     O_2   0.352064 0.171427 0.001063 -0.644317
O24   O     O_R   0.397503 0.293965 0.030760 -0.792893
H60   H     H_    0.407055 0.277284 0.978641 0.335849
C109  C     C_2   0.956855 0.087156 0.146786 1.019479
O25   O     O_2   0.934789 0.116656 0.059233 -0.594915
O26   O     O_R   0.014530 0.036219 0.200054 -0.827264
H61   H     H_    0.033780 0.028873 0.158585 0.332761
C110  C     C_2   0.042822 0.093039 0.852435 1.009113
O27   O     O_2   0.064141 0.126417 0.937954 -0.594469
O28   O     O_R   0.986115 0.039751 0.802125 -0.829902
H62   H     H_    0.966781 0.034262 0.843706 0.335958
C111  C     C_2   0.456855 0.587156 0.146786 1.019480
O29   O     O_2   0.434789 0.616657 0.059233 -0.594915
O30   O     O_R   0.514529 0.536220 0.200054 -0.827264
H63   H     H_    0.533780 0.528873 0.158584 0.332761
C112  C     C_2   0.542822 0.593041 0.852435 1.009111
O31   O     O_2   0.564142 0.626418 0.937954 -0.594468
O32   O     O_R   0.486115 0.539752 0.802126 -0.829902
H64   H     H_    0.466782 0.534263 0.843707 0.335959
C113  C     C_2   0.649770 0.906344 0.297967 1.021184
O33   O     O_2   0.667095 0.974845 0.303299 -0.632607
O34   O     O_R   0.597544 0.871404 0.195401 -0.766317
H65   H     H_    0.579152 0.908249 0.131880 0.340742
C114  C     C_2   0.348542 0.919802 0.681851 1.014089
O35   O     O_2   0.327762 0.987271 0.669030 -0.634339
O36   O     O_R   0.406621 0.894549 0.786563 -0.777562
H66   H     H_    0.425950 0.936924 0.845063 0.343033
C115  C     C_2   0.149770 0.406343 0.297965 1.021182
O37   O     O_2   0.167094 0.474844 0.303297 -0.632606
O38   O     O_R   0.097546 0.371402 0.195400 -0.766318
H67   H     H_    0.079154 0.408246 0.131878 0.340742
C116  C     C_2   0.848542 0.419802 0.681850 1.014090
O39   O     O_2   0.827761 0.487271 0.669029 -0.634341
O40   O     O_R   0.906621 0.394550 0.786563 -0.777563
H68   H     H_    0.925950 0.436926 0.845062 0.343033

loop_
_geom_bond_atom_site_label_1
_geom_bond_atom_site_label_2
_ccdc_geom_bond_type
C20   C38   A    
C25   C31   A    
N32   Ni7   S    
C87   N19   A    
C91   C111  S    
C3    N3    A    
C2    N2    A    
C72   N12   A    
C55   C59   D    
C27   C29   A    
C1    C77   A    
C55   C107  S    
C19   C23   A    
O26   H61   S    
N22   Ni6   S    
C2    C98   S    
C3    C79   A    
C7    H47   S    
C44   H8    S    
O38   H67   S    
C39   C41   S    
N2    N13   A    
C92   C112  S    
C26   C32   A    
C93   N25   A    
C112  O31   D    
C3    C99   S    
C56   C79   S    
C19   C51   S    
C72   H32   S    
C14   C93   A    
C64   C68   D    
C91   N23   A    
C11   C36   S    
C24   C83   S    
C4    C80   A    
C60   H20   S    
C54   C58   D    
C113  O33   D    
N12   Ni3   S    
C97   O2    S    
C65   C101  S    
C52   H16   S    
C53   C105  S    
O28   H62   S    
C14   C62   S    
C73   N13   A    
C50   H14   S    
C85   N17   A    
N2    Ni2   S    
C98   O4    S    
C110  O27   D    
C17   C39   A    
C100  O8    S    
O20   H58   S    
C18   C40   A    
C14   C90   A    
C36   C40   A    
N5    N9    A    
C19   C37   A    
C27   C115  S    
C9    C85   A    
C46   C82   A    
C1    N1    A    
C86   H38   S    
N24   N27   A    
N23   Ni7   S    
N8    N12   A    
C29   C33   A    
C11   C87   A    
C99   O6    S    
C74   C77   A    
C7    N31   A    
C69   H29   S    
O24   H60   S    
C76   C79   A    
N20   N32   A    
C86   N18   A    
C31   H3    S    
N15   Ni8   S    
N8    Ni8   S    
C116  O39   D    
N10   Ni1   S    
N16   Ni7   S    
N20   Ni4   S    
C8    C12   A    
C54   C77   S    
C70   H30   S    
C40   C42   S    
N19   N31   A    
O8    H52   S    
N4    Ni4   S    
C105  O18   S    
C34   C38   A    
C109  O25   D    
C90   N22   A    
N5    Ni5   S    
C71   H31   S    
C98   O3    D    
C32   H4    S    
C57   C67   S    
C51   H11   S    
C70   C82   A    
N3    N16   A    
C42   H6    S    
N30   Ni5   S    
C41   C49   S    
C75   H35   S    
C7    C11   A    
C59   C65   S    
C71   C83   A    
C103  O14   S    
C48   H28   S    
C106  O20   S    
C63   C67   D    
C112  O32   S    
C50   H10   S    
C62   H22   S    
C23   C84   S    
C30   C34   A    
N26   Ni1   S    
C61   H21   S    
O10   H53   S    
C22   C81   S    
C89   C109  S    
O32   H64   S    
C62   C66   D    
C69   C81   A    
C88   H40   S    
O18   H57   S    
C102  O11   D    
C17   C49   S    
C15   C96   A    
C115  O38   S    
C74   N14   A    
C57   H17   S    
O6    H51   S    
C6    N30   A    
N24   Ni8   S    
N17   N29   A    
C101  O9    D    
N6    N10   A    
C17   C21   A    
C28   C116  S    
C48   C84   A    
C114  O36   S    
N4    N15   A    
C70   N10   A    
C37   C43   S    
C35   C39   A    
O14   H55   S    
C54   C106  S    
C38   C44   S    
C107  O21   D    
C2    C78   A    
C87   H39   S    
C105  O17   D    
C63   H23   S    
C92   N24   A    
C47   H27   S    
O12   H54   S    
C103  O13   D    
C73   C78   A    
C12   C88   A    
C71   N11   A    
C106  O19   D    
C13   C61   S    
C8    H48   S    
C66   C102  S    
C108  O24   S    
C25   C113  S    
C72   C84   A    
C22   C26   A    
C42   C50   S    
C60   C66   S    
N28   Ni3   S    
C58   C68   S    
C4    C100  S    
C46   N6    A    
C47   N7    A    
N29   Ni6   S    
C16   C92   A    
C23   C27   A    
C111  O30   S    
C48   N8    A    
C43   I3    S    
C9    C34   S    
C94   H42   S    
C31   C35   A    
N27   Ni4   S    
C42   I2    S    
C6    H46   S    
N13   Ni6   S    
C41   I1    S    
O34   H65   S    
C74   H34   S    
C32   C36   A    
N25   Ni2   S    
C114  O35   D    
N11   Ni4   S    
C18   C50   S    
C113  O34   S    
C75   C80   A    
C75   N15   A    
O4    H50   S    
O16   H56   S    
C21   C25   A    
N9    Ni2   S    
C76   N16   A    
C16   C95   A    
C51   H15   S    
C89   N21   A    
C13   C89   A    
C18   C22   A    
C5    N29   A    
C45   C81   A    
C5    H45   S    
C24   C28   A    
C5    C9    A    
N6    Ni6   S    
C43   H7    S    
C53   C57   D    
C96   H44   S    
C67   C103  S    
C49   H9    S    
O30   H63   S    
C8    N32   A    
C10   C86   A    
N7    Ni7   S    
N23   N28   A    
N18   N30   A    
C1    C97   S    
C104  O16   S    
C30   H2    S    
C95   H43   S    
N7    N11   A    
C64   H24   S    
C29   H1    S    
C13   C94   A    
C20   C52   S    
O40   H68   S    
C45   H25   S    
C20   C24   A    
C109  O26   S    
C53   C78   S    
C104  O15   D    
C49   H13   S    
N21   Ni5   S    
O2    H49   S    
C107  O22   S    
C116  O40   S    
C88   N20   A    
C94   N26   A    
N19   Ni3   S    
C55   C80   S    
C76   H36   S    
C44   C52   S    
C97   O1    D    
C115  O37   D    
C26   C114  S    
C95   N27   A    
C43   C51   S    
C73   H33   S    
C28   C30   A    
C102  O12   S    
C41   H5    S    
C33   C37   A    
C68   C104  S    
C10   C33   S    
C45   N5    A    
C61   C65   D    
C100  O7    D    
C56   C108  S    
N14   Ni5   S    
C69   N9    A    
N18   Ni2   S    
C93   H41   S    
C6    C10   A    
C58   H18   S    
C15   C91   A    
C47   C83   A    
N3    Ni3   S    
C56   C60   D    
C21   C82   S    
C52   H12   S    
N22   N25   A    
C59   H19   S    
C99   O5    D    
C96   N28   A    
C90   C110  S    
N1    Ni1   S    
O22   H59   S    
C44   I4    S    
C15   C63   S    
C46   H26   S    
C16   C64   S    
C110  O28   S    
C111  O29   D    
C101  O10   S    
N17   Ni1   S    
N21   N26   A    
C12   C35   S    
N1    N14   A    
O36   H66   S    
C108  O23   D    
C85   H37   S    
N31   Ni8   S    
C4    N4    A    
