data_mof_unit_50532.cif
_audit_creation_date              2013-03-05T15:49:44-0500
_audit_creation_method            fapswitch 2.2
_symmetry_space_group_name_H-M    P1
_symmetry_Int_Tables_number       1
_space_group_crystal_system       triclinic
_cell_length_a                    12.018523
_cell_length_b                    12.935229
_cell_length_c                    13.097034
_cell_angle_alpha                 89.623087
_cell_angle_beta                  113.839818
_cell_angle_gamma                 92.2122
_cell_volume                      1860.89525153

loop_
_atom_site_label
_atom_site_type_symbol
_atom_site_description
_atom_site_fract_x
_atom_site_fract_y
_atom_site_fract_z
_atom_type_partial_charge
O1    O     O_R   0.579910 0.341070 0.505280 -0.555500
O2    O     O_R   0.388440 0.353740 0.492580 -0.637807
C1    C     C_R   0.476704 0.299605 0.493213 0.939369
O3    O     O_R   0.643280 0.490550 0.663120 -0.538268
O4    O     O_R   0.451810 0.503220 0.650420 -0.611738
C2    C     C_R   0.568669 0.505619 0.709611 0.966340
Zn1   Zn    Zn3+2 0.627850 0.491540 0.508480 1.103334
Zn2   Zn    Zn3+2 0.372150 0.508460 0.491520 0.992213
O5    O     O_R   0.611560 0.646260 0.507420 -0.588158
O6    O     O_R   0.420090 0.658930 0.494720 -0.627449
O7    O     O_R   0.548190 0.496780 0.349580 -0.578927
O8    O     O_R   0.356720 0.509450 0.336880 -0.624949
C3    C     C_R   0.518227 0.699769 0.492682 0.968469
C4    C     C_R   0.432496 0.503344 0.290749 0.946493
C5    C     C_R   0.279905 0.627214 0.012515 0.318879
H1    H     H_    0.243597 0.617938 0.159855 0.197732
H2    H     H_    0.294018 0.708928 0.827626 0.215811
C6    C     C_R   0.390183 0.520511 0.171303 -0.138500
C7    C     C_R   0.735743 0.498190 0.906018 0.261723
C8    C     C_R   0.761198 0.484334 0.019955 0.255368
C9    C     C_R   0.668381 0.491136 0.057211 -0.180180
C10   C     C_R   0.551807 0.522356 0.985159 0.038673
C11   C     C_R   0.535020 0.556232 0.878269 -0.020685
C12   C     C_R   0.457664 0.534481 0.022027 0.023333
C13   C     C_R   0.362868 0.602889 0.965480 -0.012112
C14   C     C_R   0.358974 0.650369 0.868119 -0.178571
C15   C     C_R   0.445230 0.629255 0.826128 0.288636
C16   C     C_R   0.457077 0.482513 0.115632 0.207873
C17   C     C_R   0.298333 0.590026 0.118098 -0.203178
C18   C     C_R   0.615971 0.523679 0.832184 -0.254080
H3    H     H_    0.691867 0.481666 0.145543 0.211173
C19   C     C_R   0.521122 0.809404 0.472421 -0.171244
C20   C     C_R   0.461675 0.188450 0.483174 -0.122395
C21   C     C_R   0.368004 0.032829 0.518992 -0.131467
C22   C     C_R   0.377507 0.139304 0.518063 -0.209616
C23   C     C_R   0.533338 0.130656 0.442883 0.271303
C24   C     C_R   0.527471 0.023036 0.448645 0.035889
C25   C     C_R   0.444487 0.974921 0.487317 0.123316
C26   C     C_R   0.440212 0.869026 0.496231 -0.225336
C27   C     C_R   0.598398 0.855094 0.426372 0.303122
C28   C     C_R   0.602432 0.961922 0.416731 -0.160109
H4    H     H_    0.374416 0.833345 0.523993 0.206178
H5    H     H_    0.303846 0.995825 0.548101 0.172095
H6    H     H_    0.663560 0.995163 0.382496 0.229261
H7    H     H_    0.321271 0.183256 0.547653 0.180244
N1    N     N_R   0.798200 0.480260 0.519790 -0.152074
N2    N     N_R   0.201820 0.519740 0.480210 -0.102938
C29   C     C_R   0.016046 0.613995 0.419202 -0.215848
C30   C     C_R   0.134485 0.601032 0.424671 0.065821
C31   C     C_R   0.153846 0.449192 0.530805 0.027502
C32   C     C_R   0.035154 0.459168 0.526864 0.018848
C33   C     C_R   0.965124 0.542614 0.471241 0.071085
C34   C     C_R   0.846253 0.551755 0.469009 -0.047757
C35   C     C_R   0.867267 0.397107 0.572824 0.490871
C36   C     C_R   0.985317 0.386942 0.577076 -0.304890
H8    H     H_    0.791829 0.615199 0.425359 0.213398
H9    H     H_    0.965080 0.679345 0.374850 0.194151
H10   H     H_    0.038227 0.321817 0.619933 0.193968
H11   H     H_    0.172829 0.656801 0.384763 0.139550
H12   H     H_    0.208331 0.385410 0.574889 0.129908
N3    N     N_R   0.664852 0.794459 0.380444 0.201987
O9    O     O_R   0.607274 0.723101 0.306271 -0.426171
O10   O     O_R   0.774371 0.824720 0.393554 -0.385503
Br1   Br    Br    0.635642 0.195569 0.376079 -0.366163
N4    N     N_R   0.821377 0.316224 0.622521 0.230670
O11   O     O_R   0.780401 0.338219 0.697038 -0.314775
O12   O     O_R   0.849050 0.221016 0.615352 -0.348180
Br2   Br    Br    0.148106 0.718392 0.942949 -0.370020
Br3   Br    Br    0.516178 0.344888 0.148795 -0.402682
N5    N     N_R   0.832877 0.497017 0.868691 0.255010
O13   O     O_R   0.913344 0.425967 0.902612 -0.275474
O14   O     O_R   0.851376 0.575512 0.814058 -0.321352
Br4   Br    Br    0.922052 0.461372 0.130295 -0.383757
Br5   Br    Br    0.465759 0.731320 0.729087 -0.501745

loop_
_geom_bond_atom_site_label_1
_geom_bond_atom_site_label_2
_geom_bond_distance
_ccdc_geom_bond_type
C4    C6    1.454745 S    
C3    C19   1.442739 S    
C7    C8    1.408592 A    
C29   H9    1.083083 S    
N2    C30   1.367304 A    
C35   N4    1.434962 S    
Zn1   O7    1.909131 S    
C9    H3    1.081621 S    
C14   C15   1.391556 A    
H2    C14   1.081750 S    
C23   C24   1.394241 A    
O4    C2    1.300503 A    
O7    C4    1.294794 A    
C5    C13   1.412781 A    
C1    C20   1.442378 S    
C20   C23   1.414733 A    
C21   C22   1.377983 A    
C19   C26   1.394193 A    
N3    O10   1.301403 A    
O5    C3    1.287539 A    
C16   Br3   1.923643 S    
N4    O12   1.301729 A    
N5    O13   1.301235 A    
C11   C15   1.413361 A    
N2    C31   1.365494 A    
C15   Br5   1.904063 S    
C21   C25   1.394143 A    
C9    C10   1.409409 A    
O3    Zn1   1.957736 S    
C5    C17   1.394471 A    
C26   H4    1.082867 S    
C32   C33   1.402972 A    
Zn1   N1    2.003128 S    
C6    C16   1.388759 A    
C12   C13   1.420090 A    
O3    C2    1.291999 A    
H1    C17   1.083501 S    
C27   N3    1.434510 S    
O1    C1    1.281600 A    
C11   C18   1.413452 A    
C24   C25   1.412388 A    
Zn2   O8    1.957737 S    
N1    C35   1.386157 A    
C31   C32   1.417320 A    
C6    C17   1.399745 A    
C27   C28   1.387547 A    
C2    C18   1.487219 S    
O8    C4    1.285168 A    
C28   H6    1.079358 S    
C10   C12   1.412199 A    
C22   H7    1.083750 S    
C33   C34   1.426579 A    
C34   H8    1.077559 S    
Zn1   O5    2.017812 S    
C35   C36   1.408474 A    
C29   C30   1.412563 A    
O1    Zn1   2.004255 S    
O2    Zn2   2.017812 S    
C21   H5    1.084335 S    
C12   C16   1.396654 A    
O6    C3    1.283767 A    
O4    Zn2   1.909131 S    
C30   H11   1.081686 S    
C31   H12   1.082892 S    
O2    C1    1.290690 A    
C13   C14   1.396077 A    
Zn2   N2    2.002889 S    
C25   C26   1.374731 A    
C5    Br2   1.921902 S    
N1    C34   1.375617 A    
C20   C22   1.398718 A    
C8    Br4   1.922056 S    
C32   C36   1.389686 A    
C19   C27   1.407595 A    
C24   C28   1.405349 A    
N3    O9    1.301401 A    
C29   C33   1.406008 A    
C8    C9    1.392258 A    
Zn2   O6    2.004253 S    
N4    O11   1.295738 A    
C36   H10   1.084288 S    
C10   C11   1.401064 A    
C7    N5    1.436965 S    
N5    O14   1.301528 A    
C23   Br1   1.939734 S    
C7    C18   1.422374 A    
