data_mof_unit_67204.cif
_audit_creation_date              2013-03-05T16:01:23-0500
_audit_creation_method            fapswitch 2.2
_symmetry_space_group_name_H-M    P1
_symmetry_Int_Tables_number       1
_space_group_crystal_system       triclinic
_cell_length_a                    20.445525
_cell_length_b                    20.647585
_cell_length_c                    8.740245
_cell_angle_alpha                 89.726677
_cell_angle_beta                  92.070311
_cell_angle_gamma                 89.872609
_cell_volume                      3687.23966612

loop_
_atom_site_label
_atom_site_type_symbol
_atom_site_description
_atom_site_fract_x
_atom_site_fract_y
_atom_site_fract_z
_atom_type_partial_charge
P1    P     P_3+3 0.136530 0.426510 0.931350 0.533376
P2    P     P_3+3 0.136530 0.573490 0.431350 0.528773
P3    P     P_3+3 0.636530 0.926510 0.931350 0.544032
P4    P     P_3+3 0.636530 0.073490 0.431350 0.531822
O1    O     O_2   0.130070 0.404060 0.104920 -0.321427
O2    O     O_2   0.130070 0.595940 0.604920 -0.343372
O3    O     O_2   0.630070 0.904060 0.104920 -0.320711
O4    O     O_2   0.630070 0.095940 0.604920 -0.329394
O5    O     O_3   0.075780 0.466370 0.861070 -0.343518
O6    O     O_3   0.075780 0.533630 0.361070 -0.334074
O7    O     O_3   0.575780 0.966370 0.861070 -0.340029
O8    O     O_3   0.575780 0.033630 0.361070 -0.335429
O9    O     O_3   0.022320 0.344950 0.359800 -0.328671
O10   O     O_3   0.022320 0.655050 0.859800 -0.328022
O11   O     O_3   0.522320 0.844950 0.359800 -0.315635
O12   O     O_3   0.522320 0.155050 0.859800 -0.347035
O13   O     O_2   0.135157 0.296466 0.272295 -0.308891
O14   O     O_2   0.127625 0.712323 0.765267 -0.314737
O15   O     O_2   0.632047 0.791189 0.268644 -0.322511
O16   O     O_2   0.629203 0.211099 0.765260 -0.298595
O17   O     O_3   0.207960 0.473128 0.934292 -0.603097
O18   O     O_3   0.210494 0.529511 0.437819 -0.593504
O19   O     O_3   0.708619 0.972234 0.939057 -0.579587
O20   O     O_3   0.709298 0.028115 0.438275 -0.584112
O21   O     O_3   0.062525 0.205968 0.373740 -0.567347
O22   O     O_3   0.041302 0.795140 0.859937 -0.563594
O23   O     O_3   0.552731 0.703947 0.372775 -0.539851
O24   O     O_3   0.546059 0.295178 0.868514 -0.589005
C1    C     C_3   0.981269 0.121736 0.371206 0.436227
C2    C     C_3   0.977991 0.881721 0.972914 0.439747
C3    C     C_3   0.466122 0.624776 0.433041 0.425425
C4    C     C_3   0.493146 0.383863 0.000077 0.539236
H1    H     H_    0.007176 0.105980 0.269149 0.075449
H2    H     H_    0.027798 0.899670 0.005888 0.127691
H3    H     H_    0.461500 0.602789 0.318151 0.126410
H4    H     H_    0.544904 0.397548 0.026304 0.082066
P5    P     P_3+3 0.863410 0.426100 0.379280 0.619246
P6    P     P_3+3 0.863410 0.573900 0.879280 0.603646
P7    P     P_3+3 0.363410 0.926100 0.379280 0.611578
P8    P     P_3+3 0.363410 0.073900 0.879280 0.590802
P9    P     P_3+3 0.912505 0.288700 0.910010 0.612157
P10   P     P_3+3 0.913643 0.712562 0.418102 0.595699
P11   P     P_3+3 0.409512 0.791549 0.915225 0.609210
P12   P     P_3+3 0.414892 0.213486 0.417733 0.606836
O25   O     O_2   0.869860 0.403670 0.205810 -0.338040
O26   O     O_2   0.869860 0.596330 0.705810 -0.304187
O27   O     O_2   0.369860 0.903670 0.205810 -0.332544
O28   O     O_2   0.369860 0.096330 0.705810 -0.319791
O29   O     O_3   0.977590 0.344880 0.951200 -0.292108
O30   O     O_3   0.977590 0.655120 0.451200 -0.347845
O31   O     O_3   0.477590 0.844880 0.951200 -0.291129
O32   O     O_3   0.477590 0.155120 0.451200 -0.360053
O33   O     O_2   0.859863 0.301717 0.028829 -0.323236
O34   O     O_2   0.864682 0.704591 0.547345 -0.301464
O35   O     O_2   0.359363 0.805437 0.038967 -0.323200
O36   O     O_2   0.367072 0.207141 0.549817 -0.306703
O37   O     O_3   0.792665 0.474063 0.371423 -0.525338
O38   O     O_3   0.792802 0.526526 0.872893 -0.548273
O39   O     O_3   0.292395 0.973849 0.372907 -0.533222
O40   O     O_3   0.292386 0.026929 0.873428 -0.556369
O41   O     O_3   0.940425 0.209543 0.955411 -0.461353
O42   O     O_3   0.947218 0.790597 0.445151 -0.464593
O43   O     O_3   0.434347 0.711813 0.961165 -0.457883
O44   O     O_3   0.450493 0.290598 0.442693 -0.436322
C5    C     C_3   0.989758 0.191557 0.855066 0.262715
C6    C     C_3   0.015300 0.783062 0.470220 0.070664
C7    C     C_3   0.485318 0.692152 0.867591 0.227625
C8    C     C_3   0.516859 0.280794 0.484621 0.147482
H5    H     H_    0.015144 0.234237 0.806128 0.088406
H6    H     H_    0.024319 0.757459 0.580897 0.165585
H7    H     H_    0.510169 0.733746 0.813154 0.111174
H8    H     H_    0.520188 0.254503 0.595589 0.157837
H9    H     H_    0.965391 0.163133 0.763779 0.129710
H10   H     H_    0.036343 0.753046 0.378602 0.086669
H11   H     H_    0.463744 0.659555 0.779253 0.133652
H12   H     H_    0.540985 0.250733 0.397492 0.079294
C9    C     C_3   0.043288 0.147170 0.931542 0.690397
C10   C     C_3   0.054322 0.847556 0.476425 0.775309
C11   C     C_3   0.539605 0.654555 0.958095 0.705869
C12   C     C_3   0.557469 0.343637 0.502471 0.752797
C13   C     C_3   0.808810 0.461427 0.851899 0.710315
C14   C     C_3   0.809482 0.538771 0.346822 0.699976
C15   C     C_3   0.308185 0.961500 0.859546 0.723674
C16   C     C_3   0.309025 0.038965 0.355348 0.728508
H13   H     H_    0.847320 0.445225 0.936321 0.052035
H14   H     H_    0.841877 0.557040 0.441377 0.077350
H15   H     H_    0.346327 0.946824 0.946109 0.061106
H16   H     H_    0.343773 0.054895 0.447623 0.074126
C17   C     C_3   0.747840 0.419113 0.876860 0.423996
C18   C     C_3   0.747508 0.580349 0.339935 0.465187
C19   C     C_3   0.247284 0.919713 0.888104 0.398722
C20   C     C_3   0.247564 0.081188 0.363578 0.435379
H17   H     H_    0.761322 0.384057 0.968659 0.027358
H18   H     H_    0.762151 0.632063 0.329121 -0.058507
H19   H     H_    0.263241 0.879131 0.963803 0.042316
H20   H     H_    0.262729 0.132968 0.368589 -0.023353
Ba1   Ba    Ba6+2 0.999980 0.452130 0.155200 1.769356
Ba2   Ba    Ba6+2 0.999980 0.547870 0.655200 1.762270
Ba3   Ba    Ba6+2 0.499980 0.952130 0.155200 1.768980
Ba4   Ba    Ba6+2 0.499980 0.047870 0.655200 1.755074
C21   C     C_3   0.207055 0.524644 0.037793 0.486645
C22   C     C_3   0.208590 0.475559 0.534708 0.382925
C23   C     C_3   0.704378 0.025139 0.037506 0.436563
C24   C     C_3   0.706042 0.974273 0.535110 0.387227
H21   H     H_    0.174795 0.515242 0.135020 0.042769
H22   H     H_    0.176615 0.483998 0.632894 0.069779
H23   H     H_    0.672436 0.015244 0.135114 0.059895
H24   H     H_    0.673449 0.982841 0.632121 0.063343
C25   C     C_3   0.277209 0.532688 0.105055 0.468359
C26   C     C_3   0.278198 0.461662 0.603520 0.473290
C27   C     C_3   0.773204 0.039250 0.107034 0.448276
C28   C     C_3   0.775044 0.960653 0.605706 0.482605
H25   H     H_    0.285976 0.490359 0.181989 0.139873
H26   H     H_    0.294193 0.505785 0.666133 0.152888
H27   H     H_    0.788005 0.996448 0.177575 0.160161
H28   H     H_    0.789058 0.004239 0.672859 0.147048
O45   O     O_3   0.924190 0.533610 0.949240 -0.361633
O46   O     O_3   0.924190 0.466390 0.449240 -0.348066
O47   O     O_3   0.424190 0.033610 0.949240 -0.356950
O48   O     O_3   0.424190 0.966390 0.449240 -0.353860
P13   P     P_3+3 0.078796 0.718178 0.896086 0.616629
P14   P     P_3+3 0.086155 0.287640 0.401494 0.621634
P15   P     P_3+3 0.580907 0.216720 0.897073 0.563635
P16   P     P_3+3 0.583228 0.784392 0.399060 0.631656
C29   C     C_3   0.994830 0.195442 0.390382 0.901007
C30   C     C_3   0.983525 0.806570 0.943378 0.907367
C31   C     C_3   0.486573 0.697736 0.415575 0.879811
C32   C     C_3   0.492109 0.309647 0.962730 0.893762
C33   C     C_R   0.237579 0.300877 0.012562 0.040139
C34   C     C_R   0.238972 0.697826 0.503522 -0.023910
C35   C     C_R   0.736336 0.799806 0.012050 0.052937
C36   C     C_R   0.742002 0.195828 0.499890 0.027994
C37   C     C_R   0.150602 0.348291 0.830836 0.259007
C38   C     C_R   0.150279 0.652478 0.325184 0.225337
C39   C     C_R   0.649953 0.847552 0.829438 0.250116
C40   C     C_R   0.650695 0.152460 0.326506 0.231298
C41   C     C_R   0.114508 0.341021 0.693098 -0.472897
C42   C     C_R   0.112472 0.661671 0.188753 -0.426985
C43   C     C_R   0.613376 0.839562 0.691634 -0.448997
C44   C     C_R   0.612948 0.161646 0.190661 -0.457063
C45   C     C_R   0.131567 0.294708 0.586791 0.301908
C46   C     C_R   0.125764 0.711450 0.084671 0.399525
C47   C     C_R   0.629423 0.792030 0.585933 0.306587
C48   C     C_R   0.627917 0.209782 0.084290 0.344296
C49   C     C_R   0.182538 0.251772 0.621753 -0.143013
C50   C     C_R   0.175991 0.755227 0.121554 -0.119899
C51   C     C_R   0.680587 0.749234 0.622133 -0.147075
C52   C     C_R   0.677735 0.253882 0.120869 -0.134755
C53   C     C_R   0.214459 0.251244 0.767409 -0.045792
C54   C     C_R   0.210456 0.753251 0.265145 -0.131190
C55   C     C_R   0.712425 0.748925 0.768288 -0.042044
C56   C     C_R   0.711423 0.252719 0.265253 -0.128624
C57   C     C_R   0.200689 0.300984 0.872627 -0.081764
C58   C     C_R   0.200499 0.699744 0.365314 -0.068085
C59   C     C_R   0.699466 0.799675 0.871970 -0.071965
C60   C     C_R   0.701493 0.199270 0.365439 -0.097773
H29   H     H_    0.075904 0.374948 0.663115 0.175326
H30   H     H_    0.074947 0.626935 0.158239 0.168251
H31   H     H_    0.574936 0.873661 0.661446 0.173939
H32   H     H_    0.574110 0.128037 0.162611 0.175371
C61   C     C_R   0.795559 0.698884 0.947770 -0.122440
C62   C     C_R   0.797853 0.299358 0.440210 -0.068251
C63   C     C_R   0.297214 0.200340 0.946188 -0.110585
C64   C     C_R   0.295364 0.800943 0.443259 -0.057989
C65   C     C_R   0.782892 0.750347 0.051110 0.003872
C66   C     C_R   0.789239 0.244486 0.537338 0.030141
C67   C     C_R   0.284220 0.251364 0.050733 0.012506
C68   C     C_R   0.284903 0.747433 0.543408 0.044513
C69   C     C_R   0.847283 0.652184 0.987522 0.216960
C70   C     C_R   0.848787 0.346540 0.481272 0.221284
C71   C     C_R   0.348189 0.152805 0.986548 0.231795
C72   C     C_R   0.346969 0.847485 0.483503 0.190424
C73   C     C_R   0.885251 0.662265 0.124722 0.256835
C74   C     C_R   0.887051 0.336464 0.616827 0.226403
C75   C     C_R   0.385248 0.161815 0.125528 0.179353
C76   C     C_R   0.383578 0.838456 0.621717 0.239740
C77   C     C_R   0.866521 0.707455 0.232199 0.106799
C78   C     C_R   0.870861 0.288788 0.719723 0.100655
C79   C     C_R   0.367864 0.208433 0.231439 0.168648
C80   C     C_R   0.364542 0.793465 0.728762 0.074001
C81   C     C_R   0.816271 0.751654 0.195038 -0.273301
C82   C     C_R   0.824599 0.241296 0.678603 -0.244569
C83   C     C_R   0.317635 0.252563 0.194431 -0.221351
C84   C     C_R   0.317834 0.746133 0.688242 -0.229301
C85   C     C_R   0.756627 0.697822 0.809495 0.597550
C86   C     C_R   0.754594 0.304679 0.309633 0.612103
C87   C     C_R   0.259402 0.200861 0.806043 0.595342
C88   C     C_R   0.253368 0.805385 0.310227 0.601715
H33   H     H_    0.194775 0.216514 0.536018 0.175514
H34   H     H_    0.186065 0.792665 0.038856 0.159229
H35   H     H_    0.693240 0.713972 0.537217 0.160847
H36   H     H_    0.688107 0.290836 0.037332 0.167963
H37   H     H_    0.804617 0.788497 0.277498 0.235849
H38   H     H_    0.815071 0.202728 0.758809 0.230595
H39   H     H_    0.305842 0.289251 0.277128 0.225743
H40   H     H_    0.307638 0.708114 0.769668 0.229595
H41   H     H_    0.230847 0.339493 0.092874 0.195769
H42   H     H_    0.233131 0.658164 0.582892 0.187838
H43   H     H_    0.729743 0.838649 0.091866 0.202254
H44   H     H_    0.736961 0.155449 0.577502 0.190390
N1    N     N_R   0.957687 0.230375 0.271981 0.214712
O49   O     O_R   0.988695 0.264348 0.173877 -0.255726
O50   O     O_R   0.894100 0.231017 0.268976 -0.410714
N2    N     N_R   0.926501 0.783282 0.851866 0.205536
O51   O     O_R   0.876315 0.819864 0.816134 -0.297131
O52   O     O_R   0.926941 0.725099 0.798393 -0.374905
N3    N     N_R   0.444031 0.727347 0.297347 0.198497
O53   O     O_R   0.469319 0.765545 0.198866 -0.248021
O54   O     O_R   0.381496 0.716316 0.287927 -0.472313
N4    N     N_R   0.430770 0.291955 0.879625 0.199964
O55   O     O_R   0.380773 0.331023 0.868363 -0.293877
O56   O     O_R   0.427432 0.237424 0.807177 -0.402088
N5    N     N_R   0.728223 0.382650 0.741336 0.228495
O57   O     O_R   0.709476 0.412644 0.615928 -0.259362
O58   O     O_R   0.718102 0.320922 0.755477 -0.409736
N6    N     N_R   0.705434 0.562240 0.208815 0.260406
O59   O     O_R   0.704404 0.597409 0.085145 -0.429311
O60   O     O_R   0.674157 0.507517 0.209323 -0.209500
N7    N     N_R   0.219332 0.892240 0.747781 0.232747
O61   O     O_R   0.197077 0.929658 0.637481 -0.222295
O62   O     O_R   0.207843 0.830472 0.743681 -0.398671
N8    N     N_R   0.204794 0.071095 0.229094 0.238292
O63   O     O_R   0.213155 0.105355 0.106411 -0.437487
O64   O     O_R   0.167462 0.020319 0.221869 -0.201157
O65   O     O_3   0.694748 0.456548 0.922802 -0.593509
H45   H     H_    0.660426 0.425692 0.953817 0.354673
O66   O     O_3   0.713760 0.571312 0.474607 -0.651485
H46   H     H_    0.682455 0.607797 0.478895 0.369142
O67   O     O_3   0.199278 0.955684 0.961026 -0.605167
H47   H     H_    0.162548 0.925657 0.980097 0.363214
O68   O     O_3   0.214016 0.065210 0.495295 -0.656860
H48   H     H_    0.178808 0.097998 0.503043 0.380929
N9    N     N_R   0.182964 0.581735 0.955466 0.192613
O69   O     O_R   0.123278 0.580800 0.901458 -0.354068
O70   O     O_R   0.220085 0.630672 0.923635 -0.431890
N10   N     N_R   0.182914 0.421735 0.445758 0.176994
O71   O     O_R   0.120644 0.422224 0.414388 -0.358225
O72   O     O_R   0.220472 0.389970 0.355638 -0.441764
N11   N     N_R   0.677600 0.079364 0.949541 0.177762
O73   O     O_R   0.615238 0.078694 0.920500 -0.360155
O74   O     O_R   0.713985 0.112460 0.858940 -0.414419
N12   N     N_R   0.680821 0.920357 0.445469 0.175306
O75   O     O_R   0.618772 0.920808 0.411785 -0.356718
O76   O     O_R   0.718903 0.887355 0.358973 -0.438235
O77   O     O_3   0.283630 0.588621 0.195994 -0.758134
H49   H     H_    0.305602 0.623097 0.137845 0.395127
O78   O     O_3   0.277471 0.410876 0.710625 -0.679752
H50   H     H_    0.264329 0.371074 0.654770 0.327384
O79   O     O_3   0.773424 0.093038 0.204537 -0.727456
H51   H     H_    0.763141 0.131942 0.141297 0.343228
O80   O     O_3   0.775056 0.907892 0.707399 -0.679140
H52   H     H_    0.763862 0.868685 0.647102 0.332946
N13   N     N_R   0.325649 0.529957 0.985096 0.267583
O81   O     O_R   0.353958 0.475082 0.957882 -0.249675
O82   O     O_R   0.333310 0.577932 0.890359 -0.339670
N14   N     N_R   0.325880 0.448352 0.486223 0.285768
O83   O     O_R   0.357882 0.495828 0.426446 -0.300981
O84   O     O_R   0.344411 0.389278 0.459418 -0.252971
N15   N     N_R   0.820967 0.047302 0.988278 0.269708
O85   O     O_R   0.846196 0.996472 0.926037 -0.264187
O86   O     O_R   0.836489 0.104666 0.939324 -0.334239
N16   N     N_R   0.823749 0.951423 0.488921 0.284139
O87   O     O_R   0.853577 0.001433 0.434484 -0.249324
O88   O     O_R   0.843122 0.893694 0.451741 -0.260633
O89   O     O_3   0.976181 0.217326 0.532712 -0.847839
H53   H     H_    0.929741 0.204986 0.541318 0.299989
O90   O     O_3   0.987641 0.772993 0.083672 -0.825307
H54   H     H_    0.949679 0.785450 0.142748 0.300608
O91   O     O_3   0.478668 0.729827 0.552965 -0.853673
H55   H     H_    0.432330 0.725208 0.575161 0.288881
O92   O     O_3   0.497278 0.276820 0.103979 -0.800652
H56   H     H_    0.483774 0.231726 0.087428 0.280560
N17   N     N_R   0.006983 0.083529 0.501036 0.290766
O93   O     O_R   0.062752 0.053899 0.489852 -0.239502
O94   O     O_R   0.967907 0.064677 0.606615 -0.263136
N18   N     N_R   0.933148 0.898528 0.094429 0.242027
O95   O     O_R   0.947432 0.946888 0.184113 -0.244894
O96   O     O_R   0.873002 0.878170 0.087836 -0.348312
N19   N     N_R   0.514201 0.586594 0.521961 0.296708
O97   O     O_R   0.570139 0.573264 0.463930 -0.248316
O98   O     O_R   0.495748 0.552799 0.638751 -0.227003
N20   N     N_R   0.454200 0.400442 0.132526 0.274311
O99   O     O_R   0.460231 0.457727 0.192450 -0.235195
O100  O     O_R   0.404724 0.365131 0.170100 -0.312688
O101  O     O_3   0.913896 0.109803 0.350316 -0.649854
H57   H     H_    0.904901 0.102700 0.239307 0.392275
O102  O     O_3   0.956864 0.913925 0.839124 -0.609307
H58   H     H_    0.967893 0.960233 0.852937 0.416624
O103  O     O_3   0.405231 0.620115 0.503410 -0.726470
H59   H     H_    0.370567 0.615402 0.422103 0.387561
O104  O     O_3   0.470382 0.420715 0.874563 -0.621932
H60   H     H_    0.483337 0.466273 0.895068 0.403958
N21   N     N_R   0.092304 0.129595 0.819904 0.213670
O105  O     O_R   0.092166 0.156534 0.685532 -0.462760
O106  O     O_R   0.132813 0.082109 0.848842 -0.247268
N22   N     N_R   0.061456 0.876297 0.324700 0.215923
O107  O     O_R   0.082660 0.840638 0.215647 -0.538237
O108  O     O_R   0.068856 0.938618 0.312746 -0.212258
N23   N     N_R   0.583036 0.623453 0.849781 0.209061
O109  O     O_R   0.600672 0.654777 0.729330 -0.462952
O110  O     O_R   0.599507 0.562729 0.864280 -0.219438
N24   N     N_R   0.569083 0.374755 0.355426 0.225060
O111  O     O_R   0.592096 0.340501 0.246086 -0.525898
O112  O     O_R   0.576149 0.437296 0.349008 -0.198306
O113  O     O_3   0.939050 0.624929 0.163167 -0.683937
H61   H     H_    0.966452 0.624458 0.073370 0.339972
O114  O     O_3   0.936929 0.377522 0.660446 -0.694466
H62   H     H_    0.968791 0.375426 0.579084 0.328652
O115  O     O_3   0.437502 0.122619 0.166300 -0.690844
H63   H     H_    0.466168 0.121654 0.078457 0.326732
O116  O     O_3   0.436090 0.876985 0.661529 -0.687484
H64   H     H_    0.466437 0.873866 0.577188 0.331965
O117  O     O_3   0.757656 0.645032 0.716693 -0.704639
H65   H     H_    0.721212 0.617495 0.750438 0.396543
O118  O     O_3   0.751240 0.362821 0.233267 -0.714344
H66   H     H_    0.705345 0.371358 0.199975 0.355910
O119  O     O_3   0.262753 0.150957 0.705897 -0.722336
H67   H     H_    0.236563 0.116381 0.751746 0.394207
O120  O     O_3   0.249844 0.863301 0.233160 -0.715713
H68   H     H_    0.203183 0.872806 0.208859 0.355203
O121  O     O_3   0.073989 0.182276 0.050797 -0.742661
H69   H     H_    0.103608 0.152557 0.109213 0.375043
O122  O     O_3   0.116771 0.833607 0.537981 -0.663655
H70   H     H_    0.136341 0.799905 0.474345 0.292689
O123  O     O_3   0.575295 0.699787 0.046611 -0.726990
H71   H     H_    0.613246 0.676984 0.095741 0.367230
O124  O     O_3   0.617649 0.325809 0.570792 -0.664125
H72   H     H_    0.640121 0.296739 0.500014 0.307831
N25   N     N_R   0.014989 0.087059 0.990902 0.206280
O125  O     O_R   0.955854 0.070468 0.951547 -0.335656
O126  O     O_R   0.052166 0.044218 0.060860 -0.294254
N26   N     N_R   0.023936 0.895045 0.574627 0.281999
O127  O     O_R   0.967330 0.919236 0.533104 -0.202096
O128  O     O_R   0.060490 0.926700 0.673670 -0.233310
N27   N     N_R   0.512482 0.604850 0.057966 0.217509
O129  O     O_R   0.452926 0.584345 0.035476 -0.336331
O130  O     O_R   0.551744 0.571902 0.149271 -0.287421
N28   N     N_R   0.526853 0.390525 0.601497 0.274651
O131  O     O_R   0.467760 0.410354 0.567227 -0.203536
O132  O     O_R   0.564992 0.428141 0.683848 -0.224965
O133  O     O_3   0.832748 0.453518 0.706415 -0.764865
H73   H     H_    0.807547 0.483739 0.638958 0.359442
O134  O     O_3   0.841635 0.544224 0.210458 -0.776929
H74   H     H_    0.818195 0.515258 0.137849 0.328668
O135  O     O_3   0.332303 0.950839 0.715292 -0.778565
H75   H     H_    0.307643 0.979866 0.643919 0.354522
O136  O     O_3   0.337720 0.047293 0.215364 -0.771033
H76   H     H_    0.312807 0.019737 0.142121 0.340146

loop_
_geom_bond_atom_site_label_1
_geom_bond_atom_site_label_2
_geom_bond_distance
_ccdc_geom_bond_type
C22   N10   1.447895 S    
N1    O50   1.299417 A    
C46   C50   1.399452 A    
O104  H60   0.993184 S    
P9    O41   1.768571 S    
C40   C44   1.404394 A    
C18   N6    1.458576 S    
O24   P15   1.781128 S    
P11   O43   1.762029 S    
P12   O44   1.763352 S    
C37   C41   1.398013 A    
N20   O99   1.300147 A    
P2    C38   1.899052 S    
O3    Ba3   2.886075 S    
C11   N27   1.466865 S    
P7    O27   1.597349 D    
P7    O48   1.601479 S    
C1    H1    1.103734 S    
O22   C30   1.430270 S    
C31   N3    1.457680 S    
O16   P15   1.548792 D    
C50   C54   1.417303 A    
O19   C23   1.398245 S    
C56   C60   1.424959 A    
C26   N14   1.466524 S    
P2    O18   1.761209 S    
N12   O76   1.298915 A    
Ba2   O46   2.882873 S    
C82   H38   1.081098 S    
C55   C59   1.419359 A    
P4    O8    1.597384 S    
C45   C49   1.391274 A    
O26   Ba2   2.889954 S    
C43   H31   1.078787 S    
O10   P13   1.765512 S    
O77   H49   0.990607 S    
C21   H21   1.111010 S    
C74   O114  1.372167 S    
P12   C79   1.864286 S    
P9    O29   1.795041 S    
N5    O58   1.297712 A    
O28   Ba4   2.889954 S    
P11   C80   1.842258 S    
C5    C9    1.556084 S    
O122  H70   0.986006 S    
C64   C68   1.427582 A    
C7    C11   1.545040 S    
O39   C16   1.396656 S    
N27   O130  1.300058 A    
O42   C6    1.409438 S    
N15   O86   1.301269 A    
C13   O133  1.389133 S    
C39   C43   1.405171 A    
O67   H47   0.993086 S    
O66   H46   0.989156 S    
C8    H8    1.109069 S    
C78   C82   1.402957 A    
N22   O107  1.293697 A    
C10   O122  1.396381 S    
C2    O102  1.396757 S    
P5    O25   1.597349 D    
P6    C69   1.910800 S    
N13   O82   1.301391 A    
C70   C74   1.410313 A    
P8    O28   1.593319 D    
C29   O89   1.391377 S    
C12   O124  1.395995 S    
P13   C46   1.881788 S    
C16   H16   1.107039 S    
C64   C88   1.422707 A    
P8    Ba4   3.509952 S    
C75   C79   1.393014 A    
C15   C19   1.543488 S    
C6    H6    1.109519 S    
N19   O98   1.301317 A    
O9    Ba1   2.864021 S    
P3    O7    1.591512 S    
O29   Ba1   2.876752 S    
N27   O129  1.298599 A    
O41   C5    1.410612 S    
O13   P14   1.546840 D    
P8    O47   1.595567 S    
O121  H69   0.988411 S    
C9    O121  1.402785 S    
C23   H23   1.111413 S    
P8    C71   1.914044 S    
C33   H41   1.076677 S    
O92   H56   0.981634 S    
C26   O78   1.402800 S    
O5    Ba2   2.868665 S    
P8    O40   1.747343 S    
C1    C29   1.556264 S    
C63   C67   1.428609 A    
C66   C82   1.409248 A    
C3    C31   1.572490 S    
P6    Ba2   3.509952 S    
Ba1   Ba2   4.805010 S    
O79   H51   0.990750 S    
O44   C8    1.406624 S    
N6    O60   1.299605 A    
C54   C88   1.437705 A    
N13   O81   1.298065 A    
C24   N12   1.449376 S    
C6    H10   1.113040 S    
C36   H44   1.079773 S    
O27   Ba3   2.892584 S    
N10   O71   1.292615 A    
O8    Ba3   2.882746 S    
C53   C57   1.416401 A    
P6    O45   1.595567 S    
C43   C47   1.397656 A    
C51   H35   1.079837 S    
N14   O84   1.301270 A    
O22   P13   1.784639 S    
C73   C77   1.390133 A    
N9    O69   1.292650 A    
C26   H26   1.108868 S    
C7    H7    1.112458 S    
C61   C69   1.461007 A    
P12   O32   1.773064 S    
C25   O77   1.408782 S    
P6    O38   1.744961 S    
Ba1   O45   2.868793 S    
N25   O126  1.300901 A    
P1    C37   1.868861 S    
O10   Ba2   2.878736 S    
C1    N17   1.460447 S    
N24   O112  1.300860 A    
O30   Ba2   2.862053 S    
O11   P16   1.786083 S    
C2    H2    1.113063 S    
N26   O127  1.298453 A    
C56   C86   1.436657 A    
C11   N23   1.470074 S    
C24   C28   1.543965 S    
O12   Ba4   2.878736 S    
Ba3   O47   2.868793 S    
O32   Ba4   2.862053 S    
O6    Ba1   2.882746 S    
C51   C55   1.412587 A    
N21   O105  1.297011 A    
N23   O110  1.301935 A    
C42   H30   1.078719 S    
P7    Ba3   3.508992 S    
O103  H59   0.990626 S    
N11   O74   1.298895 A    
Ba4   O47   3.061895 S    
N8    O64   1.298621 A    
P9    O33   1.546382 D    
P10   O30   1.778270 S    
P11   O35   1.544351 D    
O1    Ba1   2.886075 S    
N4    O56   1.295123 A    
C87   O119  1.358373 S    
C7    H11   1.106970 S    
C28   H28   1.109301 S    
C63   C71   1.462695 A    
C28   O80   1.402670 S    
N7    O61   1.301139 A    
C1    O101  1.405440 S    
C52   C56   1.415740 A    
N2    O52   1.291266 A    
O23   P16   1.788386 S    
C3    O103  1.411635 S    
N16   O87   1.297549 A    
C16   O136  1.386010 S    
C8    H12   1.112998 S    
N20   O100  1.299108 A    
C73   O113  1.372634 S    
C4    C32   1.568299 S    
O4    Ba4   2.888699 S    
C44   H32   1.078060 S    
C33   C57   1.413540 A    
C77   C81   1.400983 A    
N17   O94   1.300975 A    
C17   H17   1.105103 S    
C61   C65   1.427176 A    
P6    O26   1.593319 D    
C64   C72   1.463329 A    
C9    N21   1.469860 S    
C4    O104  1.397370 S    
P3    Ba3   3.507145 S    
C36   C66   1.426135 A    
N18   O95   1.299617 A    
C35   C65   1.426296 A    
C31   O91   1.388627 S    
N3    O54   1.298924 A    
C69   C73   1.421190 A    
O37   C14   1.397917 S    
C16   C20   1.531836 S    
P14   C45   1.844044 S    
C13   H13   1.109407 S    
C72   C76   1.409331 A    
C52   H36   1.080197 S    
C15   H15   1.107473 S    
C2    N18   1.470186 S    
N11   O73   1.291128 A    
O134  H74   0.986427 S    
C12   N24   1.461447 S    
O80   H52   0.990779 S    
N5    O57   1.301533 A    
C29   N1    1.449664 S    
C19   O67   1.402755 S    
P1    O1    1.594294 D    
O2    Ba2   2.888699 S    
P3    O3    1.594294 D    
P4    O20   1.755457 S    
O40   C15   1.395206 S    
C21   C25   1.539994 S    
C23   C27   1.541447 S    
N25   O125  1.292430 A    
O21   C29   1.414070 S    
C61   C85   1.423205 A    
C32   N4    1.473960 S    
C62   C66   1.427517 A    
O23   C31   1.422264 S    
P15   C48   1.872272 S    
C76   O116  1.373343 S    
C83   H39   1.082322 S    
N19   O97   1.297251 A    
P16   C47   1.864486 S    
C11   O123  1.404410 S    
C81   H37   1.082466 S    
C74   C78   1.379103 A    
C48   C52   1.397213 A    
P4    C40   1.894538 S    
C13   C17   1.545156 S    
N22   O108  1.300141 A    
O118  H66   0.987572 S    
O91   H55   0.978683 S    
C88   O120  1.370157 S    
C4    N20   1.469880 S    
C27   N15   1.459776 S    
C18   H18   1.114086 S    
C6    C10   1.554038 S    
N3    O53   1.287545 A    
C18   O66   1.397696 S    
P1    O5    1.591512 S    
C42   C46   1.402856 A    
O38   C13   1.397217 S    
O136  H76   0.987014 S    
C20   O68   1.399684 S    
O133  H73   0.987700 S    
O114  H62   0.982633 S    
C9    N25   1.470744 S    
N23   O109  1.295614 A    
O101  H57   0.992623 S    
P12   O36   1.544830 D    
C10   N22   1.462486 S    
O102  H58   0.989808 S    
C62   C70   1.463960 A    
O90   H54   0.982093 S    
P7    O39   1.752290 S    
N12   O75   1.291923 A    
C53   C87   1.417927 A    
C21   N9    1.453833 S    
C3    H3    1.105014 S    
C22   C26   1.550542 S    
C14   O134  1.386001 S    
C4    H4    1.112038 S    
C24   H24   1.111763 S    
C17   N5    1.451299 S    
C55   C85   1.424239 A    
C41   C45   1.389178 A    
C49   H33   1.082611 S    
C86   O118  1.371148 S    
C44   C48   1.399614 A    
C17   O65   1.402735 S    
C41   H29   1.078506 S    
C14   C18   1.528180 S    
C35   C59   1.414425 A    
O124  H72   0.988386 S    
C84   H40   1.082728 S    
P10   O34   1.544610 D    
C14   H14   1.108375 S    
P11   O31   1.796459 S    
O117  H65   0.990763 S    
C38   C58   1.453056 A    
C5    H5    1.115068 S    
C25   N13   1.469234 S    
N10   O72   1.298709 A    
P3    C39   1.885765 S    
O123  H71   0.990211 S    
O14   P13   1.549791 D    
O120  H68   0.988880 S    
C23   N11   1.450190 S    
O113  H61   0.980701 S    
C34   C58   1.417838 A    
C49   C53   1.409449 A    
O24   C32   1.431971 S    
C8    C12   1.547492 S    
O116  H64   0.982767 S    
C2    C30   1.578710 S    
P1    O17   1.750355 S    
N1    O49   1.290241 A    
P3    O19   1.751525 S    
C20   H20   1.114463 S    
P4    O4    1.598325 D    
P5    Ba1   3.508992 S    
C39   C59   1.450893 A    
O115  H63   0.982836 S    
C47   C51   1.394447 A    
P7    C72   1.894224 S    
O119  H67   0.985632 S    
C37   C57   1.449581 A    
N28   O132  1.302612 A    
O12   P15   1.773380 S    
N26   O128  1.302289 A    
C40   C60   1.452819 A    
P10   C77   1.862363 S    
C5    H9    1.098319 S    
C63   C87   1.424640 A    
Ba1   O46   3.063590 S    
C36   C60   1.414414 A    
Ba3   O48   3.063590 S    
C67   C83   1.408252 A    
P5    O46   1.601479 S    
C68   C84   1.412274 A    
Ba4   O48   2.882873 S    
C3    N19   1.458534 S    
O89   H53   0.989030 S    
C75   O115  1.374495 S    
O17   C21   1.400158 S    
P2    O2    1.598325 D    
C79   C83   1.399481 A    
O31   Ba3   2.876752 S    
O43   C7    1.408048 S    
O15   P16   1.548081 D    
C33   C67   1.426600 A    
P9    C78   1.840833 S    
N6    O59   1.298817 A    
P1    Ba1   3.507145 S    
P5    C70   1.894735 S    
C62   C86   1.422071 A    
N16   O88   1.301585 A    
C30   N2    1.472752 S    
C71   C75   1.421463 A    
O7    Ba4   2.868665 S    
O20   C24   1.397174 S    
C35   H43   1.076891 S    
C34   C68   1.427083 A    
N7    O62   1.297759 A    
Ba3   Ba4   4.805010 S    
C76   C80   1.381813 A    
N14   O83   1.297928 A    
O65   H45   0.992912 S    
N2    O51   1.300777 A    
N9    O70   1.300147 A    
N18   O96   1.299858 A    
N4    O55   1.301397 A    
P4    Ba4   3.506198 S    
C32   O92   1.406055 S    
C30   O90   1.405519 S    
N15   O85   1.298784 A    
P2    O6    1.597384 S    
C80   C84   1.405536 A    
Ba2   O45   3.061895 S    
O21   P14   1.770600 S    
P10   O42   1.766359 S    
N24   O111  1.293187 A    
O11   Ba3   2.864021 S    
C38   C42   1.409269 A    
O78   H50   0.990564 S    
P5    O37   1.750242 S    
C25   H25   1.110452 S    
C27   O79   1.403019 S    
C85   O117  1.362351 S    
O18   C22   1.397558 S    
C65   C81   1.409725 A    
C20   N8    1.455553 S    
N21   O106  1.300072 A    
O25   Ba1   2.892584 S    
O9    P14   1.786347 S    
C10   N26   1.458748 S    
C22   H22   1.111589 S    
C19   N7    1.452585 S    
N8    O63   1.298443 A    
C15   O135  1.388641 S    
P2    Ba2   3.506198 S    
C19   H19   1.106423 S    
C12   N28   1.456926 S    
N28   O131  1.299047 A    
C54   C58   1.425900 A    
O68   H48   0.991395 S    
C50   H34   1.080997 S    
C27   H27   1.110347 S    
O135  H75   0.987389 S    
C34   H42   1.080338 S    
C28   N16   1.464331 S    
N17   O93   1.299798 A    
