data_mof_unit_64392.cif
_audit_creation_date              2012-12-10T18:48:28-0500
_audit_creation_method            fapswitch 2.2
_symmetry_space_group_name_H-M    P1
_symmetry_Int_Tables_number       1
_space_group_crystal_system       triclinic
_cell_length_a                    25.540079
_cell_length_b                    25.536755
_cell_length_c                    25.549004
_cell_angle_alpha                 120.028865
_cell_angle_beta                  90.003611
_cell_angle_gamma                 59.987069
_cell_volume                      11775.681127

loop_
_atom_site_label
_atom_site_type_symbol
_atom_type_description
_atom_site_fract_x
_atom_site_fract_y
_atom_site_fract_z
_atom_type_partial_charge
C1    C     C_R   0.849983 0.500004 0.849823 0.511252
C2    C     C_3   0.555431 0.432832 0.469204 0.353639
C3    C     C_3   0.469932 0.517052 0.554644 0.353702
C4    C     C_3   0.530067 0.482948 0.445356 0.353701
C5    C     C_1   0.610597 0.499967 0.610664 0.092316
C6    C     C_1   0.389403 0.500033 0.389336 0.092317
C7    C     C_3   0.511583 0.550092 0.513127 0.356147
C8    C     C_3   0.488416 0.449908 0.486873 0.356147
C9    C     C_3   0.536909 0.499976 0.536938 -0.113968
C10   C     C_3   0.463091 0.500024 0.463062 -0.113968
C11   C     C_1   0.577321 0.499962 0.577377 0.114613
C12   C     C_R   0.150017 0.499996 0.150177 0.511252
C13   C     C_1   0.422679 0.500038 0.422623 0.114613
C14   C     C_3   0.531900 0.479255 0.035360 0.220629
C15   C     C_3   0.468100 0.520745 0.964639 0.220628
C16   C     C_R   0.650178 0.499997 0.650238 0.517448
C17   C     C_R   0.349822 0.500003 0.349762 0.517448
C18   C     C_3   0.554294 0.431307 0.961410 0.219562
C19   C     C_3   0.445706 0.568693 0.038590 0.219562
C20   C     C_1   0.610653 0.500001 0.889501 0.045115
C21   C     C_1   0.389347 0.499999 0.110499 0.045115
C22   C     C_3   0.513910 0.547944 0.037703 0.219323
C23   C     C_3   0.515846 0.975522 0.038197 -0.163127
C24   C     C_3   0.486090 0.452056 0.962297 0.219323
C25   C     C_3   0.536837 0.499997 0.963219 -0.009864
C26   C     C_3   0.463163 0.500003 0.036781 -0.009864
C27   C     C_1   0.577340 0.500001 0.922779 0.058653
C28   C     C_1   0.422660 0.499999 0.077221 0.058653
C29   C     C_3   0.987980 0.568271 0.036561 -0.131696
C30   C     C_3   0.012020 0.431729 0.963439 -0.131696
C31   C     C_3   0.012976 0.516307 0.962613 0.306826
C32   C     C_3   0.987024 0.483693 0.037387 0.306825
C33   C     C_1   0.889648 0.499881 0.889511 0.026219
C34   C     C_3   0.484154 0.024477 0.961802 -0.163127
C35   C     C_1   0.110352 0.500119 0.110489 0.026218
C36   C     C_3   0.937481 0.551401 0.037858 -0.130575
C37   C     C_3   0.062519 0.448599 0.962142 -0.130575
C38   C     C_3   0.963225 0.499755 0.963676 0.020606
C39   C     C_3   0.036775 0.500244 0.036324 0.020606
C40   C     C_R   0.849857 0.500007 0.650118 0.515551
C41   C     C_R   0.150143 0.499993 0.349882 0.515552
C42   C     C_1   0.922890 0.499811 0.922946 -0.004955
C43   C     C_1   0.077110 0.500189 0.077053 -0.004955
C44   C     C_3   0.036849 0.975259 0.444505 -0.098142
C45   C     C_3   0.536753 0.926543 0.963853 -0.025872
C46   C     C_3   0.963151 0.024741 0.555495 -0.098142
C47   C     C_3   0.962531 0.024726 0.469601 -0.094805
C48   C     C_3   0.037469 0.975274 0.530399 -0.094804
C49   C     C_1   0.889687 0.220769 0.610397 0.016001
C50   C     C_1   0.110312 0.779231 0.389603 0.016001
C51   C     C_3   0.037287 0.024657 0.511971 -0.096523
C52   C     C_3   0.962713 0.975343 0.488029 -0.096523
C53   C     C_3   0.963600 0.072862 0.536436 0.044005
C54   C     C_3   0.036400 0.927138 0.463564 0.044005
C55   C     C_1   0.923054 0.154012 0.577016 -0.041139
C56   C     C_3   0.463247 0.073457 0.036147 -0.025871
C57   C     C_1   0.076946 0.845988 0.422984 -0.041139
C58   C     C_3   0.031501 0.526200 0.533048 0.378933
C59   C     C_3   0.968498 0.473799 0.466950 0.378904
C60   C     C_3   0.958233 0.568478 0.551150 0.258610
C61   C     C_3   0.041767 0.431521 0.448848 0.258608
C62   C     C_1   0.889542 0.499958 0.610502 0.054959
C63   C     C_1   0.110458 0.500042 0.389497 0.054961
C64   C     C_R   0.650271 0.499986 0.849883 0.508113
C65   C     C_R   0.349729 0.500014 0.150117 0.508113
C66   C     C_3   0.037938 0.456295 0.518694 -0.163096
C67   C     C_1   0.577252 0.845575 0.923040 0.048266
C68   C     C_3   0.962061 0.543704 0.481304 -0.163117
C69   C     C_3   0.963862 0.499462 0.536748 -0.025706
C70   C     C_3   0.036138 0.500537 0.463251 -0.025709
C71   C     C_1   0.923038 0.499786 0.577210 0.048619
C72   C     C_1   0.076962 0.500213 0.422789 0.048618
C73   C     C_R   0.849957 0.300221 0.650122 0.511064
C74   C     C_R   0.150043 0.699779 0.349878 0.511065
C75   C     C_R   0.650206 0.699678 0.849839 0.515379
C76   C     C_R   0.349794 0.300322 0.150160 0.515379
C77   C     C_3   0.447237 0.024437 0.039452 0.258543
C78   C     C_1   0.422748 0.154425 0.076960 0.048265
C79   C     C_3   0.552763 0.975563 0.960548 0.258543
C80   C     C_3   0.468148 0.975319 0.965908 0.379157
C81   C     C_3   0.531852 0.024681 0.034092 0.379155
C82   C     C_1   0.610574 0.778936 0.889537 0.054842
C83   C     C_1   0.389426 0.221064 0.110462 0.054842
C84   C     C_3   0.071627 0.545958 0.929823 -0.094855
C85   C     C_3   0.928373 0.454042 0.070176 -0.094857
C86   C     C_3   0.913040 0.693073 0.604958 -0.065345
C87   C     C_3   0.086939 0.306928 0.395025 -0.065338
C88   C     C_3   0.390217 0.998797 0.080549 -0.065954
C89   C     C_3   0.444569 0.567168 0.530795 0.353639
C90   C     C_3   0.609783 0.001203 0.919452 -0.065954
C91   C     C_3   0.613625 0.307409 0.922326 -0.095759
C92   C     C_3   0.386375 0.692591 0.077673 -0.095760
C93   C     C_3   0.625505 0.434860 0.059110 -0.088548
C94   C     C_3   0.374495 0.565140 0.940890 -0.088547
C95   C     C_3   0.490091 0.372534 0.861239 -0.089376
C96   C     C_3   0.509909 0.627466 0.138761 -0.089379
F1    F     F_    0.435500 0.948835 0.930886 -0.588624
F2    F     F_    0.523511 0.601944 0.526653 -0.518187
F3    F     F_    0.564499 0.051165 0.069114 -0.588625
F4    F     F_    0.063806 0.554193 0.566931 -0.589464
F5    F     F_    0.936191 0.445809 0.433069 -0.589500
F6    F     F_    0.438745 0.534703 0.611144 -0.523428
F7    F     F_    0.561254 0.465297 0.388856 -0.523429
F8    F     F_    0.387256 0.636696 0.562735 -0.523396
F9    F     F_    0.612744 0.363304 0.437265 -0.523397
F10   F     F_    0.476489 0.398056 0.473347 -0.518186
H1    H     H_    0.979145 0.623621 0.066265 0.120568
H2    H     H_    0.067492 0.045847 0.522272 0.125146
H3    H     H_    0.931595 0.578764 0.465570 0.140123
H4    H     H_    0.068404 0.421235 0.534428 0.140135
H5    H     H_    0.470715 0.044854 0.931135 0.139651
H6    H     H_    0.529285 0.955145 0.068865 0.139651
H7    H     H_    0.118018 0.495719 0.918235 0.114598
H8    H     H_    0.056784 0.594085 0.979466 0.113905
H9    H     H_    0.079427 0.559272 0.896641 0.164569
H10   H     H_    0.943216 0.405915 0.020534 0.113906
H11   H     H_    0.881982 0.504281 0.081765 0.114598
H12   H     H_    0.020855 0.376379 0.933735 0.120568
H13   H     H_    0.920573 0.440728 0.103359 0.164568
H14   H     H_    0.893601 0.697656 0.567395 0.107852
H15   H     H_    0.961567 0.681427 0.596741 0.173392
H16   H     H_    0.880993 0.747666 0.651636 0.156566
H17   H     H_    0.038415 0.318559 0.403180 0.173478
H18   H     H_    0.106318 0.302369 0.432623 0.107818
H19   H     H_    0.119023 0.252329 0.348361 0.156545
H20   H     H_    0.426149 0.975742 0.101153 0.106881
H21   H     H_    0.399692 0.953891 0.031237 0.174109
H22   H     H_    0.342516 0.023020 0.110732 0.156124
H23   H     H_    0.113873 0.407320 0.931756 0.122412
H24   H     H_    0.600312 0.046106 0.968765 0.174114
H25   H     H_    0.573850 0.024261 0.898852 0.106878
H26   H     H_    0.657484 0.976979 0.889268 0.156124
H27   H     H_    0.588138 0.287741 0.891459 0.156110
H28   H     H_    0.592776 0.327053 0.971952 0.156074
H29   H     H_    0.664113 0.259035 0.903221 0.135691
H30   H     H_    0.407222 0.672947 0.028048 0.156075
H31   H     H_    0.411864 0.712258 0.108538 0.156111
H32   H     H_    0.335887 0.740965 0.096780 0.135691
H33   H     H_    0.632246 0.469652 0.049834 0.148626
H34   H     H_    0.886127 0.592680 0.068244 0.122412
H35   H     H_    0.656421 0.376193 0.017026 0.155889
H36   H     H_    0.642150 0.437844 0.099988 0.149431
H37   H     H_    0.343579 0.623807 0.982973 0.155887
H38   H     H_    0.367754 0.530349 0.950168 0.148626
H39   H     H_    0.357850 0.562153 0.900011 0.149431
H40   H     H_    0.538840 0.357248 0.843952 0.157009
H41   H     H_    0.455226 0.411593 0.851009 0.163109
H42   H     H_    0.491962 0.321237 0.833067 0.138831
H43   H     H_    0.544772 0.588407 0.148991 0.163110
H44   H     H_    0.461158 0.642754 0.156048 0.157009
H45   H     H_    0.931263 0.045973 0.445059 0.130969
H46   H     H_    0.508039 0.678762 0.166932 0.138832
H47   H     H_    0.068737 0.954026 0.554941 0.130970
H48   H     H_    0.067608 0.953999 0.398411 0.122430
H49   H     H_    0.932392 0.046001 0.601589 0.122430
H50   H     H_    0.932508 0.954152 0.477727 0.125146
O1    O     O_3   0.750050 0.500010 0.750000 -0.456336
O2    O     O_R   0.332180 0.543100 0.332140 -0.525796
O3    O     O_R   0.789210 0.543100 0.875260 -0.535873
O4    O     O_R   0.210790 0.456900 0.124740 -0.535873
O5    O     O_R   0.667790 0.543110 0.667830 -0.518291
O6    O     O_R   0.332210 0.456890 0.332170 -0.518290
O7    O     O_R   0.875320 0.456920 0.667760 -0.538615
O8    O     O_R   0.124680 0.543080 0.332240 -0.538617
O9    O     O_R   0.667890 0.456890 0.789150 -0.527245
O10   O     O_R   0.332110 0.543110 0.210850 -0.527245
O11   O     O_R   0.875360 0.335610 0.667790 -0.536780
O12   O     O_3   0.249950 0.499990 0.250000 -0.456335
O13   O     O_R   0.124640 0.664390 0.332210 -0.536780
O14   O     O_R   0.667870 0.664400 0.875290 -0.538845
O15   O     O_R   0.332130 0.335600 0.124710 -0.538845
O16   O     O_R   0.789160 0.335600 0.667830 -0.528692
O17   O     O_R   0.210840 0.664400 0.332170 -0.528692
O18   O     O_R   0.667820 0.664410 0.789090 -0.515527
O19   O     O_R   0.332180 0.335590 0.210910 -0.515527
O20   O     O_3   0.023613 0.533306 0.920735 -0.538461
O21   O     O_3   0.976387 0.466693 0.079265 -0.538462
O22   O     O_3   0.913386 0.639319 0.607950 -0.522371
O23   O     O_R   0.789090 0.543120 0.667780 -0.515895
O24   O     O_3   0.086619 0.360680 0.392050 -0.522390
O25   O     O_3   0.388838 0.055282 0.081876 -0.522628
O26   O     O_3   0.611162 0.944718 0.918123 -0.522629
O27   O     O_3   0.613185 0.361472 0.919616 -0.578447
O28   O     O_3   0.386815 0.638528 0.080384 -0.578448
O29   O     O_3   0.560994 0.459141 0.075206 -0.569546
O30   O     O_3   0.439006 0.540859 0.924794 -0.569546
O31   O     O_3   0.469583 0.402340 0.926896 -0.578651
O32   O     O_3   0.530417 0.597659 0.073104 -0.578651
O33   O     O_R   0.210910 0.456880 0.332220 -0.515894
O34   O     O_R   0.667910 0.543090 0.875320 -0.534811
O35   O     O_R   0.332090 0.456910 0.124680 -0.534811
O36   O     O_R   0.875390 0.456910 0.789050 -0.529098
O37   O     O_R   0.124610 0.543090 0.210950 -0.529098
O38   O     O_R   0.667820 0.456900 0.667860 -0.525796
Zn1   Zn    Zn3+2 0.719220 0.561590 0.719210 1.007135
Zn2   Zn    Zn3+2 0.280780 0.438410 0.280790 1.007137
Zn3   Zn    Zn3+2 0.842430 0.438430 0.719180 0.963968
Zn4   Zn    Zn3+2 0.157570 0.561570 0.280820 0.963967
Zn5   Zn    Zn3+2 0.719260 0.438420 0.719240 0.981280
Zn6   Zn    Zn3+2 0.280740 0.561580 0.280760 0.981280
Zn7   Zn    Zn3+2 0.719300 0.561580 0.842360 0.963806
Zn8   Zn    Zn3+2 0.280700 0.438420 0.157640 0.963805

loop_
_geom_bond_atom_site_label_1
_geom_bond_atom_site_label_2
_ccdc_geom_bond_type
C61   C70   S    
C56   C78   S    
C87   H17   S    
C48   H47   S    
C8    C10   S    
C34   C56   S    
C84   H7    S    
C23   C45   S    
C7    F2    S    
C91   O27   S    
C80   F1    S    
C12   O37   A    
C14   C18   S    
C2    C4    S    
C76   O19   A    
C73   O11   A    
C92   H32   S    
C1    C33   S    
C56   C81   S    
O23   Zn1   S    
C48   C54   S    
C23   H6    S    
C18   C25   S    
C29   C36   S    
C30   C38   S    
O12   Zn4   S    
O12   Zn8   S    
C24   O31   S    
C18   C24   S    
C94   H37   S    
C32   C36   S    
C24   C26   S    
C5    C11   T    
C88   H21   S    
O9    Zn5   S    
O4    Zn8   S    
C87   H18   S    
C34   C79   S    
O3    Zn7   S    
C66   C69   S    
C60   O22   S    
O37   Zn4   S    
C96   H46   S    
C4    F7    S    
C46   C52   S    
C86   O22   S    
C40   C62   S    
O5    Zn1   S    
O16   Zn5   S    
C85   H13   S    
C32   C39   S    
C69   C71   S    
C19   C26   S    
C96   O32   S    
C5    C16   S    
C88   H20   S    
C34   C80   S    
C87   O24   S    
C78   C83   T    
C58   C66   S    
C48   C51   S    
C90   O26   S    
C10   C89   S    
C52   C54   S    
C51   H2    S    
O14   Zn7   S    
C22   C25   S    
C86   H16   S    
C77   O25   S    
O35   Zn8   S    
C61   O24   S    
C35   C43   T    
C44   C47   S    
C18   O27   S    
C47   C53   S    
C90   H26   S    
C94   H39   S    
O18   Zn1   S    
C16   O38   A    
C75   O18   A    
C34   H5    S    
C46   H49   S    
C92   H30   S    
C95   H40   S    
C75   O14   A    
C4    C7    S    
C92   H31   S    
C61   C66   S    
C76   C83   S    
O8    Zn4   S    
C31   O20   S    
C53   C55   S    
C37   C39   S    
C15   O30   S    
C46   C48   S    
C59   C61   S    
C95   O31   S    
C59   F5    S    
C65   O35   A    
C1    O3    A    
C19   C22   S    
C58   F4    S    
C40   O7    A    
C3    C8    S    
C92   O28   S    
C79   C81   S    
C14   O29   S    
C58   C70   S    
C39   C43   S    
C30   H12   S    
C49   C55   T    
C65   O10   A    
O34   Zn7   S    
C12   O4    A    
C56   C77   S    
C31   C37   S    
C30   C37   S    
O1    Zn5   S    
C20   C64   S    
C76   O15   A    
C15   C19   S    
C45   C67   S    
C64   O9    A    
C3    C9    S    
C59   C68   S    
C40   O23   A    
C9    C11   S    
O2    Zn6   S    
O38   Zn5   S    
C91   H27   S    
C96   H44   S    
C14   C26   S    
C86   H15   S    
O11   Zn3   S    
C95   H41   S    
C45   C79   S    
O36   Zn3   S    
C23   C77   S    
C73   O16   A    
C85   H11   S    
C17   O2    A    
C36   H34   S    
O7    Zn3   S    
C74   O17   A    
C90   H25   S    
C3    F6    S    
C85   O21   S    
C15   C24   S    
C21   C28   T    
C59   C69   S    
C84   H9    S    
C89   F8    S    
C49   C73   S    
C32   O21   S    
O1    Zn7   S    
C86   H14   S    
C33   C42   T    
C4    C10   S    
O19   Zn2   S    
C87   H19   S    
C93   H35   S    
C93   H33   S    
C44   C51   S    
C77   C80   S    
C29   C39   S    
C7    C9    S    
C6    C17   S    
C84   H8    S    
C23   C81   S    
C21   C65   S    
O1    Zn1   S    
C50   C57   T    
C85   H10   S    
C2    C8    S    
C95   H42   S    
C94   O30   S    
C47   H45   S    
C10   C13   S    
C8    F10   S    
C19   O28   S    
C64   O34   A    
C79   O26   S    
C75   C82   S    
C38   C42   S    
C47   C52   S    
C20   C27   T    
C16   O5    A    
C25   C27   S    
C81   F3    S    
C2    F9    S    
C26   C28   S    
C74   O13   A    
C31   C38   S    
C41   O33   A    
C3    C89   S    
C60   C68   S    
C44   H48   S    
C14   C22   S    
O15   Zn8   S    
C50   C74   S    
C94   H38   S    
C88   H22   S    
C6    C13   T    
C30   C32   S    
O33   Zn2   S    
C88   O25   S    
C91   H28   S    
C60   C69   S    
C96   H43   S    
C46   C53   S    
C36   C38   S    
C37   H23   S    
C62   C71   T    
C45   C80   S    
O1    Zn3   S    
C68   H3    S    
C22   O32   S    
C52   H50   S    
O12   Zn6   S    
O10   Zn6   S    
C15   C25   S    
C17   O6    A    
C90   H24   S    
C1    O36   A    
C44   C54   S    
C91   H29   S    
C63   C72   T    
C66   H4    S    
C67   C82   T    
C29   C31   S    
O12   Zn2   S    
C41   O8    A    
O6    Zn2   S    
C68   C70   S    
C41   C63   S    
C29   H1    S    
C70   C72   S    
C51   C53   S    
C84   O20   S    
C2    C9    S    
C58   C60   S    
C12   C35   S    
C93   H36   S    
C93   O29   S    
O13   Zn4   S    
O17   Zn6   S    
C54   C57   S    
C7    C89   S    
