data_mof_unit_34609.cif
_audit_creation_date              2012-12-11T14:50:46-0500
_audit_creation_method            fapswitch 2.2
_symmetry_space_group_name_H-M    P1
_symmetry_Int_Tables_number       1
_space_group_crystal_system       triclinic
_cell_length_a                    10.907473
_cell_length_b                    10.977133
_cell_length_c                    18.836507
_cell_angle_alpha                 90.493658
_cell_angle_beta                  89.632929
_cell_angle_gamma                 60.510738
_cell_volume                      1962.94278821

loop_
_atom_site_label
_atom_site_type_symbol
_atom_type_description
_atom_site_fract_x
_atom_site_fract_y
_atom_site_fract_z
_atom_type_partial_charge
C1    C     C_R   0.238459 0.645795 0.610163 0.539863
C2    C     C_R   0.545976 0.236494 0.800931 -0.140769
C3    C     C_R   0.527206 0.257783 0.729168 -0.172739
C4    C     C_R   0.651693 0.620259 0.601975 0.538940
C5    C     C_R   0.640616 0.226530 0.683984 -0.005617
C6    C     C_R   0.198467 0.552888 0.722714 -0.148301
C7    C     C_R   0.185836 0.559841 0.796261 -0.158628
C8    C     C_R   0.171705 0.677659 0.832810 0.028550
C9    C     C_R   0.176363 0.785054 0.795180 -0.154023
C10   C     C_R   0.184772 0.779490 0.722187 -0.151974
C11   C     C_R   0.197063 0.662843 0.684995 0.027866
C12   C     C_3   0.693776 0.537410 0.799607 -0.268653
C13   C     C_R   0.701579 0.525852 0.267719 -0.181719
C14   C     C_R   0.698603 0.542871 0.195030 -0.163335
C15   C     C_R   0.646100 0.676589 0.167502 0.005380
C16   C     C_R   0.604302 0.272527 0.610669 0.537128
C17   C     C_R   0.581465 0.794268 0.213263 -0.108968
C18   C     C_R   0.581478 0.776922 0.286939 0.132901
C19   C     C_R   0.644887 0.641140 0.314081 0.047460
C20   C     C_R   0.527097 0.189975 0.283179 -0.140391
C21   C     C_R   0.533323 0.174133 0.211035 -0.152299
C22   C     C_R   0.646932 0.167488 0.173436 0.036032
C23   C     C_3   0.699509 0.673220 0.813116 0.019078
C24   C     C_R   0.752267 0.180943 0.208637 -0.143389
C25   C     C_R   0.748965 0.190165 0.281707 -0.148546
C26   C     C_R   0.636068 0.195197 0.319323 0.025282
C27   C     C_R   0.088065 0.807778 0.307077 -0.076079
C28   C     C_R   0.215286 0.651115 0.403899 0.557845
C29   C     C_R   0.100900 0.810621 0.234011 -0.061927
C30   C     C_R   0.117345 0.694524 0.191656 -0.001438
C31   C     C_R   0.135350 0.572344 0.224894 0.113694
C32   C     C_R   0.141388 0.564608 0.299402 0.127432
C33   C     C_R   0.132788 0.678543 0.339135 -0.016477
C34   C     C_3   0.668346 0.647448 0.677290 0.067056
C35   C     C_R   0.700962 0.105067 0.897480 0.541869
C36   C     C_R   0.723443 0.687626 0.888647 0.546911
C37   C     C_R   0.116789 0.707737 0.905198 0.543631
C38   C     C_R   0.673710 0.109625 0.102941 0.544875
C39   C     C_R   0.693444 0.690915 0.097036 0.544823
C40   C     C_R   0.636857 0.614601 0.389194 0.546968
C41   C     C_R   0.086000 0.714625 0.115385 0.571420
C42   C     C_R   0.614369 0.234296 0.393345 0.546467
C43   C     C_3   0.560576 0.801044 0.787106 -0.220902
C44   C     C_3   0.531031 0.773189 0.710858 0.014661
C45   C     C_3   0.800639 0.664956 0.689401 -0.124624
C46   C     C_3   0.825066 0.666782 0.769941 -0.220861
C47   C     C_1   0.927160 0.553858 0.652693 0.182532
C48   C     C_1   0.900862 0.133966 0.668779 0.202538
C49   C     C_3   0.627351 0.909544 0.375405 -0.285676
C50   C     C_1   0.048296 0.932931 0.350152 0.222348
C51   C     C_1   0.112307 0.927596 0.205469 0.250480
C52   C     C_3   0.055678 0.411478 0.182903 -0.260941
C53   C     C_3   0.040961 0.458950 0.375189 -0.254012
C54   C     C_3   0.535354 0.965497 0.639997 -0.267635
C55   C     C_3   0.690162 0.515259 0.719239 -0.249574
C56   C     C_R   0.778094 0.169446 0.712367 -0.038394
C57   C     C_R   0.797562 0.141386 0.784981 -0.155023
C58   C     C_R   0.681681 0.171886 0.828986 0.010642
Cr1   Cr    Cr6+3 0.392930 0.397900 0.502230 1.032125
Cr2   Cr    Cr6+3 0.398240 0.708600 0.501260 1.070164
Cr3   Cr    Cr6+3 0.708800 0.393470 0.496460 1.053282
Cr4   Cr    Cr6+3 0.937620 0.938540 0.007640 1.028678
Cr5   Cr    Cr6+3 0.625150 0.937450 0.994520 1.015761
Cr6   Cr    Cr6+3 0.937990 0.625080 0.001190 1.014458
H1    H     H_    0.570084 0.897339 0.789806 0.157209
H2    H     H_    0.470235 0.818963 0.822028 0.108790
H3    H     H_    0.187283 0.864923 0.695317 0.162260
H4    H     H_    0.751225 0.422055 0.288314 0.135679
H5    H     H_    0.749482 0.450952 0.160817 0.128969
H6    H     H_    0.541963 0.898506 0.192538 0.133588
H7    H     H_    0.437085 0.196750 0.310783 0.135307
H8    H     H_    0.453572 0.158225 0.185546 0.124084
H9    H     H_    0.840322 0.177346 0.180040 0.147677
H10   H     H_    0.831472 0.199025 0.308210 0.152655
H11   H     H_    0.453458 0.735586 0.715637 0.144623
H12   H     H_    0.790494 0.421510 0.702769 0.166968
H13   H     H_    0.838135 0.758780 0.783396 0.116728
H14   H     H_    0.785078 0.764157 0.667211 0.100697
H15   H     H_    0.787185 0.445383 0.822199 0.144947
H16   H     H_    0.598156 0.545124 0.825557 0.124490
H17   H     H_    0.603556 0.492391 0.707716 0.106964
H18   H     H_    0.449864 0.986392 0.310826 0.243622
H19   H     H_    0.572566 0.999563 0.412526 0.170498
H20   H     H_    0.690556 0.816236 0.408160 0.144652
H21   H     H_    0.700756 0.924375 0.340151 0.139052
H22   H     H_    0.263978 0.372052 0.184567 0.242984
H23   H     H_    0.923980 0.571633 0.785377 0.146808
H24   H     H_    0.089189 0.316367 0.215205 0.124926
H25   H     H_    0.040031 0.386080 0.127789 0.184086
H26   H     H_    0.954952 0.496841 0.204401 0.172077
H27   H     H_    0.208007 0.350315 0.305169 0.245929
H28   H     H_    0.952604 0.482176 0.338994 0.142872
H29   H     H_    0.007386 0.545249 0.414919 0.158993
H30   H     H_    0.068653 0.360929 0.403870 0.163194
H31   H     H_    0.362543 0.973135 0.691458 0.247898
H32   H     H_    0.606510 0.899315 0.596472 0.154428
H33   H     H_    0.594390 0.986139 0.681626 0.139326
H34   H     H_    0.903157 0.088989 0.806254 0.125695
H35   H     H_    0.458833 0.066283 0.616155 0.180307
H36   H     H_    0.454639 0.260295 0.833697 0.136191
H37   H     H_    0.423350 0.296402 0.708435 0.130751
H38   H     H_    0.210445 0.461067 0.695553 0.151558
H39   H     H_    0.181372 0.476117 0.824059 0.121591
H40   H     H_    0.165770 0.877881 0.821575 0.131784
N1    N     N_1   0.023000 0.466260 0.622260 -0.293036
N2    N     N_1   0.998928 0.106314 0.633752 -0.283403
N3    N     N_2   0.524071 0.894930 0.333595 -0.493848
N4    N     N_1   0.019698 0.030033 0.385708 -0.292771
N5    N     N_1   0.122829 0.020063 0.183218 -0.335821
N6    N     N_2   0.162374 0.453198 0.182734 -0.506726
N7    N     N_2   0.161555 0.441521 0.334591 -0.489026
N8    N     N_2   0.458957 0.901423 0.669831 -0.502975
O1    O     O_R   0.507430 0.255570 0.581420 -0.540185
O2    O     O_R   0.837200 0.593290 0.915250 -0.527226
O3    O     O_R   0.065330 0.635370 0.931590 -0.508648
O4    O     O_R   0.280190 0.527390 0.578910 -0.508285
O5    O     O_R   0.068300 0.828790 0.091860 -0.511884
O6    O     O_R   0.798730 0.057480 0.079370 -0.506458
O7    O     O_R   0.584680 0.080480 0.076790 -0.526926
O8    O     O_R   0.626790 0.809640 0.067050 -0.500189
O9    O     O_R   0.816010 0.596460 0.076500 -0.532570
O10   O     O_R   0.045680 0.638310 0.081070 -0.467431
O11   O     O_3   0.833590 0.833690 0.001120 -0.257331
O12   O     O_R   0.524460 0.695920 0.424060 -0.462743
O13   O     O_R   0.260310 0.739740 0.584580 -0.506286
O14   O     O_R   0.532250 0.695150 0.573830 -0.480588
O15   O     O_R   0.744930 0.503430 0.576380 -0.509649
O16   O     O_R   0.699250 0.276390 0.571950 -0.479114
O17   O     O_R   0.499020 0.256400 0.419850 -0.524505
O18   O     O_R   0.272400 0.528160 0.429140 -0.466548
O19   O     O_R   0.251910 0.740570 0.423020 -0.493889
O20   O     O_R   0.736530 0.504260 0.414810 -0.550612
O21   O     O_R   0.691460 0.277160 0.422180 -0.488271
O22   O     O_3   0.499990 0.499990 0.499980 -0.289685
O23   O     O_R   0.089490 0.825610 0.930610 -0.525999
O24   O     O_R   0.818370 0.054540 0.929880 -0.507368
O25   O     O_R   0.605870 0.077310 0.915530 -0.528279
O26   O     O_R   0.646440 0.806700 0.917570 -0.508812

loop_
_geom_bond_atom_site_label_1
_geom_bond_atom_site_label_2
_ccdc_geom_bond_type
C41   O10   A    
Cr1   O18   S    
C32   N7    S    
C27   C29   A    
C5    C56   A    
C52   H26   S    
C1    C11   S    
C36   O2    A    
C16   O1    A    
Cr3   O21   S    
C7    C8    A    
C49   N3    S    
C45   C46   S    
C27   C33   A    
C12   C23   S    
C42   O21   A    
C49   H20   S    
Cr2   O13   S    
H22   N6    S    
C1    O13   A    
C18   C19   A    
H31   N8    S    
C43   H2    S    
C30   C31   A    
C24   H9    S    
H27   N7    S    
C39   O8    A    
C22   C38   S    
C12   H15   S    
C23   C43   S    
C56   C57   A    
C15   C17   A    
C25   H10   S    
Cr3   O16   S    
Cr4   O24   S    
Cr2   O12   S    
C18   N3    S    
Cr4   O5    S    
Cr3   O20   S    
C48   N2    T    
C8    C9    A    
C47   N1    T    
C37   O23   A    
C30   C41   S    
C45   H14   S    
C1    O4    A    
C55   H17   S    
C9    C10   A    
C54   H32   S    
C27   C50   S    
Cr1   O1    S    
C53   N7    S    
C40   O20   A    
C2    H36   S    
C34   C55   S    
C51   N5    T    
Cr6   O3    S    
C7    H39   S    
C13   C14   A    
C50   N4    T    
Cr5   O25   S    
C52   H25   S    
Cr2   O19   S    
Cr4   O11   S    
Cr3   O22   S    
C45   C47   S    
C40   O12   A    
C4    C34   S    
Cr6   O2    S    
C13   C19   A    
C21   H8    S    
C53   H29   S    
C49   H21   S    
C52   H24   S    
C34   C44   S    
C24   C25   A    
C10   C11   A    
C6    C11   A    
Cr1   O4    S    
C25   C26   A    
C10   H3    S    
C20   H7    S    
Cr4   O23   S    
C44   H11   S    
C43   C44   S    
C29   C30   A    
Cr5   O7    S    
C31   C32   A    
C52   N6    S    
C43   H1    S    
C53   H28   S    
C17   C18   A    
C54   N8    S    
Cr3   O15   S    
C34   C45   S    
H18   N3    S    
C16   O16   A    
C15   C39   S    
C38   O7    A    
C44   N8    S    
C28   C33   S    
C35   C58   S    
C14   H5    S    
C22   C24   A    
C54   H35   S    
C8    C37   S    
C55   H12   S    
Cr2   O22   S    
C26   C42   S    
C54   H33   S    
C46   H23   S    
C29   C51   S    
C48   C56   S    
Cr1   O17   S    
C4    O15   A    
C53   H30   S    
C3    C5    A    
C35   O24   A    
C46   H13   S    
Cr5   O11   S    
C2    C58   A    
C6    C7    A    
C37   O3    A    
Cr6   O11   S    
Cr1   O22   S    
C39   O9    A    
C4    O14   A    
C28   O19   A    
C32   C33   A    
C49   H19   S    
Cr2   O14   S    
C2    C3    A    
C5    C16   S    
C35   O25   A    
Cr5   O8    S    
C3    H37   S    
C57   C58   A    
C20   C26   A    
C9    H40   S    
Cr6   O10   S    
C57   H34   S    
C12   H16   S    
Cr5   O26   S    
C31   N6    S    
C42   O17   A    
C28   O18   A    
C6    H38   S    
Cr4   O6    S    
C12   C55   S    
C19   C40   S    
C38   O6    A    
C17   H6    S    
C20   C21   A    
C23   C36   S    
C23   C46   S    
C14   C15   A    
C41   O5    A    
C21   C22   A    
C36   O26   A    
Cr6   O9    S    
C13   H4    S    
