data_mof_unit_65938.cif
_audit_creation_date              2012-12-10T19:27:29-0500
_audit_creation_method            fapswitch 2.2
_symmetry_space_group_name_H-M    P1
_symmetry_Int_Tables_number       1
_space_group_crystal_system       triclinic
_cell_length_a                    18.774434
_cell_length_b                    18.689482
_cell_length_c                    18.883106
_cell_angle_alpha                 109.678719
_cell_angle_beta                  109.633448
_cell_angle_gamma                 109.545341
_cell_volume                      5072.39750259

loop_
_atom_site_label
_atom_site_type_symbol
_atom_type_description
_atom_site_fract_x
_atom_site_fract_y
_atom_site_fract_z
_atom_type_partial_charge
C1    C     C_R   0.379851 0.379250 0.499858 0.898824
C2    C     C_R   0.761594 0.581228 0.755332 0.076521
C3    C     C_R   0.812801 0.499681 0.814035 -0.191049
C4    C     C_R   0.739480 0.418378 0.741623 0.083707
C5    C     C_R   0.671763 0.419373 0.681595 0.037966
C6    C     C_R   0.685825 0.500301 0.686239 -0.177415
C7    C     C_R   0.731267 0.335786 0.727629 -0.192114
C8    C     C_R   0.653317 0.257344 0.662765 -0.177903
C9    C     C_R   0.582530 0.259210 0.609883 0.225165
C10   C     C_R   0.591523 0.339187 0.618422 -0.177190
C11   C     C_R   0.275974 0.223572 0.440028 0.099556
C12   C     C_R   0.620309 0.500461 0.619907 0.852921
C13   C     C_R   0.317755 0.312216 0.503220 -0.113757
C14   C     C_R   0.301985 0.334950 0.573118 -0.166090
C15   C     C_R   0.236827 0.270814 0.572477 -0.199876
C16   C     C_R   0.187422 0.184802 0.501693 -0.033732
C17   C     C_R   0.212171 0.160464 0.440047 0.051707
C18   C     C_3   0.158444 0.106270 0.343104 -0.557581
C19   C     C_3   0.228638 0.176217 0.342240 0.304699
C20   C     C_R   0.319324 0.503229 0.247308 0.092168
C21   C     C_R   0.311151 0.497734 0.315658 -0.148400
C22   C     C_R   0.236418 0.494297 0.320397 0.173432
C23   C     C_R   0.620182 0.620335 0.500765 0.853483
C24   C     C_R   0.173000 0.495086 0.255301 -0.224376
C25   C     C_R   0.185129 0.501915 0.187733 -0.135697
C26   C     C_R   0.259997 0.507132 0.187132 0.133099
C27   C     C_3   0.307463 0.512472 0.138151 -0.466253
C28   C     C_3   0.376299 0.509181 0.207989 -0.456327
C29   C     C_R   0.772318 0.726567 0.563665 0.094257
C30   C     C_R   0.684865 0.687803 0.502085 -0.049182
C31   C     C_R   0.659547 0.722538 0.449613 -0.188043
C32   C     C_R   0.723606 0.787997 0.450451 -0.139812
C33   C     C_R   0.812537 0.818260 0.504132 -0.078698
C34   C     C_R   0.378607 0.498730 0.380245 0.919060
C35   C     C_R   0.835724 0.790870 0.564267 0.180082
C36   C     C_3   0.896208 0.755587 0.582286 -0.407150
C37   C     C_3   0.826058 0.684514 0.581452 -0.527729
C38   C     C_R   0.000040 0.379584 0.880263 0.874026
C39   C     C_R   0.879663 0.499599 0.879744 0.866328
C40   C     C_R   0.999823 0.620629 0.119500 0.872537
C41   C     C_R   0.120064 0.500330 0.120250 0.901916
C42   C     C_R   0.999904 0.119650 0.619829 0.895349
C43   C     C_R   0.120133 0.119569 0.500044 0.867974
C44   C     C_R   0.000123 0.879958 0.380067 0.899166
C45   C     C_R   0.778449 0.662509 0.758469 -0.164569
C46   C     C_R   0.879409 0.879999 0.500166 0.920861
C47   C     C_R   0.927601 0.231884 0.755219 0.075844
C48   C     C_R   0.001728 0.313824 0.816122 -0.079331
C49   C     C_R   0.079026 0.331592 0.812042 -0.194245
C50   C     C_R   0.079051 0.267018 0.747209 -0.206715
C51   C     C_R   0.001333 0.185856 0.685524 -0.073739
C52   C     C_R   0.927199 0.170976 0.691856 0.080665
C53   C     C_3   0.833534 0.105197 0.652271 0.090570
C54   C     C_3   0.833470 0.175469 0.724396 -0.487426
C55   C     C_R   0.016714 0.688266 0.263562 0.034829
C56   C     C_R   0.848211 0.742049 0.832017 -0.128763
C57   C     C_R   0.003415 0.688616 0.186730 -0.055257
C58   C     C_R   0.002564 0.760531 0.179171 -0.189367
C59   C     C_R   0.001640 0.824352 0.243169 -0.190430
C60   C     C_R   0.004004 0.816889 0.315268 -0.088933
C61   C     C_R   0.017315 0.751837 0.327313 0.097672
C62   C     C_3   0.971485 0.687633 0.349506 0.252033
C63   C     C_3   0.971359 0.617455 0.278751 -0.486059
C64   C     C_R   0.901991 0.742493 0.903836 -0.132864
C65   C     C_R   0.889074 0.663231 0.900292 -0.142200
C66   C     C_R   0.821710 0.581278 0.823820 0.078885
H1    H     H_    0.222412 0.288844 0.624675 0.137980
H2    H     H_    0.155077 0.041521 0.318340 0.214355
H3    H     H_    0.093851 0.102510 0.317319 0.222669
H4    H     H_    0.115086 0.491099 0.257891 0.181031
H5    H     H_    0.270470 0.452968 0.072334 0.203018
H6    H     H_    0.332061 0.576532 0.140179 0.213854
H7    H     H_    0.379589 0.448125 0.182355 0.224265
H8    H     H_    0.738584 0.665926 0.704453 0.153002
H9    H     H_    0.440472 0.571589 0.250853 0.195339
H10   H     H_    0.590926 0.696734 0.405968 0.134269
H11   H     H_    0.703483 0.811721 0.406643 0.173374
H12   H     H_    0.907793 0.729723 0.527575 0.242157
H13   H     H_    0.956314 0.801898 0.647585 0.217478
H14   H     H_    0.796832 0.617357 0.526212 0.234508
H15   H     H_    0.846003 0.689888 0.646295 0.212509
H16   H     H_    0.138914 0.394443 0.858808 0.163942
H17   H     H_    0.138603 0.280603 0.744497 0.146946
H18   H     H_    0.791972 0.090237 0.585401 0.143909
H19   H     H_    0.859537 0.803519 0.833793 0.157351
H20   H     H_    0.792745 0.201957 0.698750 0.166411
H21   H     H_    0.824483 0.158051 0.772767 0.246796
H22   H     H_    0.998016 0.764787 0.122150 0.144348
H23   H     H_    0.997009 0.877815 0.235496 0.158665
H24   H     H_    0.013953 0.592235 0.303886 0.215209
H25   H     H_    0.905044 0.565640 0.221881 0.226857
H26   H     H_    0.954498 0.804368 0.962173 0.147610
H27   H     H_    0.931886 0.667515 0.958533 0.143828
H28   H     H_    0.784426 0.330348 0.766028 0.162327
H29   H     H_    0.647527 0.195129 0.654629 0.163404
H30   H     H_    0.534651 0.337399 0.575912 0.163607
H31   H     H_    0.337292 0.402274 0.626192 0.175360
O1    O     O_R   0.408400 0.356680 0.448290 -0.600367
O2    O     O_R   0.051700 0.460090 0.908430 -0.625169
O3    O     O_R   0.856640 0.448300 0.908430 -0.621231
O4    O     O_R   0.960090 0.551710 0.908400 -0.621134
O5    O     O_R   0.948250 0.539920 0.091630 -0.618252
O6    O     O_R   0.051690 0.643330 0.091610 -0.624090
O7    O     O_R   0.039870 0.448310 0.091660 -0.614846
O8    O     O_R   0.143310 0.551720 0.091640 -0.619495
O9    O     O_R   0.051740 0.091620 0.643380 -0.611006
O10   O     O_R   0.948300 0.091670 0.539990 -0.626105
O11   O     O_R   0.143340 0.091640 0.551750 -0.615692
O12   O     O_R   0.408370 0.460100 0.551700 -0.614271
O13   O     O_R   0.039900 0.091690 0.448360 -0.620622
O14   O     O_R   0.051700 0.908430 0.460110 -0.597878
O15   O     O_R   0.948260 0.908480 0.356720 -0.617406
O16   O     O_R   0.960100 0.908410 0.551740 -0.609666
O17   O     O_R   0.856660 0.908460 0.448350 -0.621990
O18   O     O_R   0.591630 0.448290 0.539910 -0.616094
O19   O     O_R   0.591590 0.551710 0.643320 -0.625526
O20   O     O_R   0.591630 0.539900 0.448300 -0.617204
O21   O     O_R   0.591600 0.643320 0.551710 -0.617420
O22   O     O_R   0.408410 0.448290 0.356680 -0.605549
O23   O     O_R   0.408370 0.551710 0.460090 -0.598619
O24   O     O_R   0.948260 0.356680 0.908450 -0.620431
Zn1   Zn    Zn3+2 0.500020 0.430950 0.430950 1.027182
Zn2   Zn    Zn3+2 0.499980 0.569050 0.569050 1.012364
Zn3   Zn    Zn3+2 0.930910 0.430960 0.000050 0.986334
Zn4   Zn    Zn3+2 0.069050 0.569060 0.000020 0.978227
Zn5   Zn    Zn3+2 0.069070 0.000020 0.569080 1.025217
Zn6   Zn    Zn3+2 0.930930 0.000080 0.431020 0.991510
I1    I     I_    0.462227 0.141210 0.516046 -0.321883
I2    I     I_    0.299898 0.129670 0.290578 -0.268385
I3    I     I_    0.180863 0.243666 0.284465 -0.301131
I4    I     I_    0.212325 0.484276 0.419860 -0.278040
Br1   Br    Br    0.820393 0.003449 0.664981 -0.517471
I5    I     I_    0.052884 0.717837 0.478496 -0.313455
I6    I     I_    0.842258 0.663267 0.322183 -0.383810

loop_
_geom_bond_atom_site_label_1
_geom_bond_atom_site_label_2
_ccdc_geom_bond_type
C19   I2    S    
O19   Zn2   S    
C22   I4    S    
C35   C36   S    
C23   O21   A    
C39   O3    A    
C24   H4    S    
C7    C8    A    
O2    Zn4   S    
C53   C54   S    
C11   C19   S    
C26   C27   S    
C62   C63   S    
C41   O8    A    
C53   H18   S    
C5    C6    A    
C62   I5    S    
C36   C37   S    
C44   C60   S    
C6    C12   S    
C30   C31   A    
O13   Zn6   S    
C18   H2    S    
C15   C16   A    
C18   C19   S    
C59   H23   S    
O24   Zn3   S    
C1    O12   A    
C32   H11   S    
C47   C48   A    
C45   C56   A    
C16   C17   A    
O15   Zn6   S    
C55   C63   S    
O4    Zn4   S    
C56   C64   A    
C39   O4    A    
C43   O13   A    
C42   O10   A    
C38   C48   S    
O23   Zn2   S    
C42   C51   S    
O21   Zn2   S    
C12   O18   A    
C18   H3    S    
C65   H27   S    
C3    C39   S    
C59   C60   A    
O18   Zn1   S    
C21   C22   A    
C33   C46   S    
C37   H15   S    
C2    C6    A    
C8    H29   S    
C31   H10   S    
C4    C7    A    
O5    Zn3   S    
C28   H7    S    
C50   H17   S    
C50   C51   A    
C2    C45   A    
C34   O23   A    
C37   H14   S    
C9    I1    S    
C46   O17   A    
C51   C52   A    
C23   C30   S    
C24   C25   A    
C25   C41   S    
C54   H20   S    
O12   Zn2   S    
O16   Zn5   S    
C20   C28   S    
C58   C59   A    
C45   H8    S    
O3    Zn3   S    
C49   H16   S    
O20   Zn1   S    
C29   C30   A    
C31   C32   A    
C21   C34   S    
C10   H30   S    
C15   H1    S    
O14   Zn5   S    
C17   C18   S    
C8    C9    A    
C53   Br1   S    
C42   O9    A    
C16   C43   S    
C47   C54   S    
C44   O15   A    
C48   C49   A    
C49   C50   A    
C55   C57   A    
C22   C24   A    
C3    C66   A    
C1    C13   S    
C64   H26   S    
C29   C37   S    
C3    C4    A    
C27   H5    S    
C52   C53   S    
C14   H31   S    
C9    C10   A    
O22   Zn1   S    
C34   O22   A    
O1    Zn1   S    
C7    H28   S    
C29   C35   A    
C11   C17   A    
C40   C57   S    
C46   O16   A    
C38   O2    A    
C2    C66   A    
C36   H13   S    
C58   H22   S    
C1    O1    A    
C23   O20   A    
C47   C52   A    
O7    Zn3   S    
O9    Zn5   S    
C56   H19   S    
C41   O7    A    
O8    Zn4   S    
C64   C65   A    
C62   I6    S    
C25   C26   A    
O10   Zn6   S    
C5    C10   A    
C36   H12   S    
C32   C33   A    
C40   O6    A    
O17   Zn6   S    
C11   C13   A    
C57   C58   A    
C54   H21   S    
C20   C26   A    
C19   I3    S    
C55   C61   A    
C63   H24   S    
C33   C35   A    
C43   O11   A    
C61   C62   S    
O6    Zn4   S    
C38   O24   A    
C40   O5    A    
C44   O14   A    
C4    C5    A    
C20   C21   A    
C65   C66   A    
C63   H25   S    
C27   C28   S    
C14   C15   A    
C60   C61   A    
O11   Zn5   S    
C13   C14   A    
C28   H9    S    
C27   H6    S    
C12   O19   A    
