data_mof_unit_54936.cif
_audit_creation_date              2012-12-10T20:03:15-0500
_audit_creation_method            fapswitch 2.2
_symmetry_space_group_name_H-M    P1
_symmetry_Int_Tables_number       1
_space_group_crystal_system       triclinic
_cell_length_a                    8.563697
_cell_length_b                    19.156251
_cell_length_c                    18.462813
_cell_angle_alpha                 90.851208
_cell_angle_beta                  98.595088
_cell_angle_gamma                 89.862625
_cell_volume                      2994.44730733

loop_
_atom_site_label
_atom_site_type_symbol
_atom_type_description
_atom_site_fract_x
_atom_site_fract_y
_atom_site_fract_z
_atom_type_partial_charge
C1    C     C_R   0.502146 0.365425 0.499733 0.914200
C2    C     C_R   0.372104 0.477158 0.263501 -0.007522
C3    C     C_R   0.631347 0.522181 0.811726 -0.368585
C4    C     C_R   0.371768 0.478413 0.187512 -0.352166
C5    C     C_R   0.498772 0.499248 0.841400 0.028858
C6    C     C_R   0.503893 0.503519 0.158889 0.006949
C7    C     C_R   0.366388 0.474220 0.792936 0.408998
C8    C     C_R   0.633241 0.529267 0.208554 0.419278
C9    C     C_R   0.369476 0.477385 0.716262 -0.144451
C10   C     C_R   0.629172 0.525223 0.284580 -0.118480
C11   C     C_R   0.372993 0.528977 0.953940 -0.103600
C12   C     C_R   0.499458 0.634239 0.500326 0.928053
C13   C     C_R   0.632783 0.476367 0.046803 -0.110712
C14   C     C_R   0.374289 0.529735 0.030114 -0.243480
C15   C     C_R   0.631209 0.475320 0.970567 -0.236578
C16   C     C_R   0.200900 0.499961 0.480896 0.996688
C17   C     C_R   0.799091 0.500007 0.519090 0.969673
C18   C     C_R   0.504168 0.503468 0.077643 0.148721
C19   C     C_R   0.500704 0.501061 0.922936 0.157252
C20   C     C_2   0.035885 0.499712 0.470470 -0.378197
C21   C     C_2   0.964069 0.500276 0.529425 -0.378960
C22   C     C_R   0.418998 0.750651 0.453205 0.434192
C23   C     C_R   0.625879 0.964015 0.565959 0.370536
C24   C     C_R   0.465763 0.248083 0.551262 0.446513
C25   C     C_R   0.445397 0.822273 0.453962 -0.228213
C26   C     C_R   0.488954 0.176315 0.548349 -0.221533
C27   C     C_R   0.577196 0.850941 0.498681 0.127018
C28   C     C_R   0.583830 0.147316 0.499972 0.146995
C29   C     C_R   0.679528 0.808182 0.544780 -0.134082
C30   C     C_R   0.650157 0.190182 0.452037 -0.134207
C31   C     C_R   0.648221 0.737497 0.547557 -0.304279
C32   C     C_R   0.617325 0.261001 0.450633 -0.303161
C33   C     C_R   0.518649 0.708818 0.501890 -0.126285
C34   C     C_R   0.582770 0.034135 0.431988 0.335267
C35   C     C_R   0.525021 0.290336 0.499905 -0.143023
C36   C     C_3   0.154741 0.394671 0.784131 0.068233
C37   C     C_3   0.994421 0.419045 0.744617 -0.339176
C38   C     C_3   0.909439 0.361038 0.696885 -0.966038
C39   C     C_3   0.787304 0.626329 0.199084 0.067045
C40   C     C_3   0.681242 0.670547 0.143134 -0.345306
C41   C     C_3   0.711061 0.748344 0.157830 -0.976187
C42   C     C_3   0.325976 0.711513 0.336631 0.121071
C43   C     C_3   0.215500 0.755568 0.282783 -0.368617
C44   C     C_3   0.240029 0.740619 0.203847 -0.977127
C45   C     C_R   0.645376 0.036035 0.565514 0.312946
C46   C     C_3   0.484368 0.286734 0.670181 0.111947
C47   C     C_3   0.437947 0.238929 0.728918 -0.394142
C48   C     C_3   0.532788 0.255743 0.803867 -0.963532
C49   C     C_3   0.475538 0.917001 0.646076 0.125368
C50   C     C_3   0.413284 0.976996 0.689645 -0.327954
C51   C     C_3   0.253818 0.958747 0.711876 -0.995087
C52   C     C_3   0.378256 0.072054 0.349280 0.126802
C53   C     C_3   0.335100 0.119945 0.283938 -0.325405
C54   C     C_3   0.156457 0.127639 0.264109 -0.972736
C55   C     C_3   0.837363 0.093493 0.641550 0.120677
C56   C     C_R   0.594873 0.961592 0.432018 0.339952
C57   C     C_3   0.869992 0.137126 0.711994 -0.317463
C58   C     C_3   0.035760 0.168005 0.722463 -1.016448
C59   C     C_3   0.723107 0.895797 0.354283 0.110131
C60   C     C_3   0.818039 0.946934 0.315030 -0.311910
C61   C     C_3   0.970051 0.913361 0.297518 -1.012871
C62   C     C_R   0.609507 0.071739 0.498868 -0.275236
C63   C     C_R   0.603626 0.926268 0.499012 -0.287099
C64   C     C_R   0.629660 0.522053 0.735721 -0.002481
H1    H     H_    0.974059 0.498957 0.414516 0.171596
H2    H     H_    0.433939 0.143405 0.584485 0.165793
H3    H     H_    0.782932 0.829585 0.578723 0.177298
H4    H     H_    0.726499 0.168841 0.415465 0.176903
H5    H     H_    0.727985 0.704706 0.583430 0.167850
H6    H     H_    0.668415 0.293283 0.412556 0.181784
H7    H     H_    0.732108 0.540238 0.713681 0.141014
H8    H     H_    0.270084 0.457510 0.284857 0.147644
H9    H     H_    0.735218 0.541160 0.847203 0.165562
H10   H     H_    0.269540 0.458904 0.151274 0.172236
H11   H     H_    0.133358 0.355287 0.825115 0.167885
H12   H     H_    0.026005 0.501168 0.585286 0.168111
H13   H     H_    0.223644 0.366849 0.746032 0.131309
H14   H     H_    0.919851 0.436084 0.785974 0.225444
H15   H     H_    0.010318 0.464440 0.709817 0.212581
H16   H     H_    0.980900 0.343778 0.654392 0.275731
H17   H     H_    0.794226 0.380819 0.669149 0.277759
H18   H     H_    0.887748 0.315904 0.731094 0.261163
H19   H     H_    0.912466 0.639140 0.195720 0.176930
H20   H     H_    0.768483 0.640755 0.255795 0.116844
H21   H     H_    0.704814 0.657008 0.087017 0.238251
H22   H     H_    0.555143 0.659255 0.146089 0.213657
H23   H     H_    0.268208 0.461415 0.677692 0.148910
H24   H     H_    0.685438 0.763006 0.213276 0.254983
H25   H     H_    0.632668 0.779057 0.116695 0.273046
H26   H     H_    0.835793 0.761440 0.153912 0.268675
H27   H     H_    0.305139 0.655488 0.321867 0.179720
H28   H     H_    0.451297 0.722914 0.330252 0.118316
H29   H     H_    0.090791 0.743981 0.288499 0.227554
H30   H     H_    0.238547 0.811772 0.295552 0.236891
H31   H     H_    0.362839 0.753717 0.196405 0.277608
H32   H     H_    0.157304 0.772964 0.166187 0.269449
H33   H     H_    0.216841 0.684686 0.189489 0.259454
H34   H     H_    0.729688 0.542686 0.322975 0.139960
H35   H     H_    0.471215 0.341672 0.688059 0.176980
H36   H     H_    0.612351 0.279239 0.666483 0.122668
H37   H     H_    0.310827 0.246082 0.732295 0.237704
H38   H     H_    0.458340 0.183589 0.714065 0.235168
H39   H     H_    0.661156 0.249210 0.802394 0.262492
H40   H     H_    0.497358 0.219812 0.845154 0.272596
H41   H     H_    0.509667 0.310272 0.820747 0.267534
H42   H     H_    0.480830 0.868924 0.679275 0.165554
H43   H     H_    0.390277 0.905847 0.595357 0.116081
H44   H     H_    0.499346 0.988408 0.739674 0.247306
H45   H     H_    0.272328 0.550963 0.919246 0.163328
H46   H     H_    0.398694 0.024637 0.655752 0.226553
H47   H     H_    0.164759 0.949322 0.662460 0.262870
H48   H     H_    0.212725 0.002679 0.744070 0.270105
H49   H     H_    0.264299 0.911390 0.746261 0.273878
H50   H     H_    0.324773 0.093984 0.396271 0.125108
H51   H     H_    0.327986 0.019218 0.334761 0.164101
H52   H     H_    0.387964 0.172345 0.297527 0.232468
H53   H     H_    0.384169 0.098198 0.235924 0.229013
H54   H     H_    0.101278 0.076111 0.248728 0.265739
H55   H     H_    0.129253 0.163050 0.216826 0.270324
H56   H     H_    0.733691 0.454746 0.081646 0.164102
H57   H     H_    0.105191 0.150167 0.311115 0.265474
H58   H     H_    0.862203 0.126185 0.595134 0.138720
H59   H     H_    0.917592 0.047345 0.646361 0.146618
H60   H     H_    0.783041 0.180399 0.709598 0.223016
H61   H     H_    0.856285 0.104037 0.759591 0.230636
H62   H     H_    0.125696 0.125923 0.725129 0.272110
H63   H     H_    0.056001 0.198926 0.774365 0.265313
H64   H     H_    0.049213 0.203011 0.676353 0.279158
H65   H     H_    0.696273 0.848676 0.318895 0.152154
H66   H     H_    0.796123 0.877532 0.405676 0.126737
H67   H     H_    0.274188 0.551695 0.052060 0.144171
H68   H     H_    0.745363 0.963718 0.263236 0.243511
H69   H     H_    0.848642 0.993870 0.350350 0.220218
H70   H     H_    0.045658 0.897276 0.348776 0.263468
H71   H     H_    0.036556 0.951371 0.269165 0.269184
H72   H     H_    0.942407 0.866979 0.261073 0.273776
H73   H     H_    0.731236 0.453229 0.948672 0.143635
H74   H     H_    0.363174 0.855382 0.419781 0.167531
N1    N     N_R   0.500020 0.499980 0.689440 -0.108961
N2    N     N_R   0.499980 0.500020 0.310560 -0.114211
O1    O     O_R   0.500010 0.398180 0.560840 -0.609764
O2    O     O_3   0.766105 0.554183 0.182653 -0.667382
O3    O     O_3   0.290041 0.722209 0.408505 -0.660578
O4    O     O_3   0.381669 0.276194 0.603109 -0.651893
O5    O     O_3   0.631075 0.931124 0.632618 -0.617868
O6    O     O_3   0.544487 0.068120 0.366141 -0.624715
O7    O     O_3   0.678312 0.071660 0.631709 -0.633737
O8    O     O_3   0.577230 0.925846 0.365486 -0.630303
O9    O     O_R   0.499990 0.601820 0.439160 -0.625503
O10   O     O_R   0.499930 0.398180 0.439210 -0.620418
O11   O     O_R   0.500070 0.601820 0.560790 -0.615476
O12   O     O_R   0.271780 0.500000 0.546590 -0.618377
O13   O     O_R   0.728220 0.500000 0.453410 -0.623904
O14   O     O_R   0.271710 0.499990 0.424960 -0.633654
O15   O     O_R   0.728290 0.500010 0.575040 -0.642995
O16   O     O_3   0.234964 0.451745 0.822594 -0.666196
Zn1   Zn    Zn3+2 0.500050 0.500000 0.581210 0.935935
Zn2   Zn    Zn3+2 0.499950 0.500000 0.418790 0.933954

loop_
_geom_bond_atom_site_label_1
_geom_bond_atom_site_label_2
_ccdc_geom_bond_type
C41   H25   S    
C46   H35   S    
C59   H66   S    
C34   C56   A    
C51   H48   S    
C23   C45   A    
C11   H45   S    
C9    N1    A    
C14   C18   A    
C34   C62   A    
C17   O13   A    
C60   H68   S    
C49   H43   S    
C3    C64   A    
C58   H64   S    
C23   O5    S    
C21   H12   S    
C11   C19   A    
C51   H49   S    
C13   C18   A    
C47   H37   S    
O11   Zn1   S    
C36   C37   S    
C24   C26   A    
C39   H20   S    
O14   Zn2   S    
C36   H13   S    
C57   H61   S    
C11   C14   A    
C53   H53   S    
C27   C29   A    
C48   H40   S    
C45   C62   A    
C50   H46   S    
C43   H30   S    
C42   H27   S    
C64   H7    S    
C40   H22   S    
O13   Zn2   S    
C10   H34   S    
N2    Zn2   S    
C29   H3    S    
C7    O16   S    
C47   C48   S    
C22   C25   A    
C22   O3    S    
C41   H24   S    
C52   O6    S    
C31   C33   A    
O9    Zn2   S    
C4    H10   S    
C53   H52   S    
C59   O8    S    
C23   C63   A    
C41   H26   S    
C55   H58   S    
C58   H63   S    
C47   H38   S    
C46   O4    S    
C54   H55   S    
C38   H18   S    
C50   H44   S    
C12   O11   A    
C10   N2    A    
C2    H8    S    
C61   H70   S    
C14   H67   S    
C6    C18   S    
C55   H59   S    
C24   C35   A    
C26   H2    S    
C32   C35   A    
C20   H1    S    
C4    C6    A    
C39   C40   S    
C5    C7    A    
C1    C35   S    
C32   H6    S    
C53   C54   S    
C48   H39   S    
C17   C21   S    
C60   C61   S    
C40   H21   S    
C56   O8    S    
C2    C4    A    
C43   C44   S    
C37   C38   S    
C44   H32   S    
C36   H11   S    
C37   H15   S    
C44   H33   S    
C55   O7    S    
C48   H41   S    
C39   O2    S    
C31   H5    S    
C16   C20   S    
C50   C51   S    
C56   C63   A    
C49   O5    S    
C1    O10   A    
C16   O12   A    
O15   Zn1   S    
C27   C63   S    
O1    Zn1   S    
C40   C41   S    
C54   H57   S    
C15   C19   A    
C58   H62   S    
C55   C57   S    
C38   H17   S    
C16   O14   A    
C42   C43   S    
C17   O15   A    
C54   H54   S    
C13   H56   S    
C52   C53   S    
C36   O16   S    
C52   H51   S    
C7    C9    A    
C22   C33   A    
C46   H36   S    
C46   C47   S    
C59   H65   S    
C51   H47   S    
O10   Zn2   S    
C45   O7    S    
C12   O9    A    
C3    C5    A    
C6    C8    A    
C49   H42   S    
C5    C19   S    
C52   H50   S    
C25   C27   A    
C37   H14   S    
C26   C28   A    
C2    N2    A    
C13   C15   A    
C25   H74   S    
C39   H19   S    
C29   C31   A    
C44   H31   S    
C9    H23   S    
C57   H60   S    
C30   C32   A    
C34   O6    S    
C57   C58   S    
C38   H16   S    
C24   O4    S    
C28   C30   A    
C43   H29   S    
O12   Zn1   S    
C42   H28   S    
C3    H9    S    
C1    O1    A    
C59   C60   S    
C20   C21   D    
N1    Zn1   S    
C8    C10   A    
C49   C50   S    
C42   O3    S    
C8    O2    S    
C12   C33   S    
C60   H69   S    
C61   H71   S    
C30   H4    S    
C61   H72   S    
C15   H73   S    
C64   N1    A    
C28   C62   S    
