data_mof_unit_34169.cif
_audit_creation_date              2012-12-11T15:46:39-0500
_audit_creation_method            fapswitch 2.2
_symmetry_space_group_name_H-M    P1
_symmetry_Int_Tables_number       1
_space_group_crystal_system       triclinic
_cell_length_a                    11.538137
_cell_length_b                    11.527883
_cell_length_c                    19.560461
_cell_angle_alpha                 90.460205
_cell_angle_beta                  90.060006
_cell_angle_gamma                 59.94914
_cell_volume                      2251.9336521

loop_
_atom_site_label
_atom_site_type_symbol
_atom_type_description
_atom_site_fract_x
_atom_site_fract_y
_atom_site_fract_z
_atom_type_partial_charge
C1    C     C_R   0.640465 0.117343 0.599284 0.546510
C2    C     C_1   0.652980 0.149642 0.668664 0.003415
C3    C     C_R   0.649521 0.691276 0.187052 0.018150
C4    C     C_R   0.612504 0.745958 0.598658 0.545908
C5    C     C_R   0.530304 0.723998 0.221476 0.029881
C6    C     C_R   0.525173 0.733972 0.291031 0.043589
C7    C     C_R   0.744339 0.710474 0.294006 -0.161411
C8    C     C_R   0.750553 0.700429 0.222709 -0.165022
C9    C     C_3   0.444157 0.659817 0.222082 -0.268682
C10   C     C_3   0.440917 0.670531 0.299020 -0.276471
C11   C     C_R   0.635423 0.715002 0.328793 0.018724
C12   C     C_1   0.641283 0.703901 0.668026 0.003849
C13   C     C_R   0.160594 0.188369 0.187485 0.015829
C14   C     C_R   0.192152 0.273263 0.223905 0.026172
C15   C     C_R   0.216832 0.256186 0.292564 0.044073
C16   C     C_R   0.240980 0.145288 0.598213 0.546527
C17   C     C_R   0.203187 0.054846 0.290177 -0.162547
C18   C     C_R   0.179341 0.071005 0.219575 -0.161786
C19   C     C_3   0.119579 0.422819 0.231139 -0.272384
C20   C     C_3   0.147965 0.403252 0.306957 -0.273066
C21   C     C_R   0.211450 0.154335 0.328175 0.016029
C22   C     C_R   0.667431 0.176587 0.190140 0.016237
C23   C     C_1   0.126706 0.198781 0.859278 0.003891
C24   C     C_R   0.754266 0.053517 0.221125 0.031913
C25   C     C_R   0.746777 0.036219 0.289805 0.037660
C26   C     C_R   0.551438 0.255465 0.298565 -0.156915
C27   C     C_R   0.557671 0.273030 0.228111 -0.165589
C28   C     C_R   0.643137 0.111185 0.401504 0.544046
C29   C     C_3   0.904365 0.970255 0.222198 -0.266538
C30   C     C_3   0.894572 0.951932 0.297982 -0.277904
C31   C     C_R   0.653863 0.140250 0.330735 0.016921
C32   C     C_R   0.081811 0.231133 0.928576 0.546793
C33   C     C_R   0.683919 0.604442 0.929484 0.545289
C34   C     C_1   0.171543 0.170239 0.727725 -0.030778
C35   C     C_R   0.708384 0.206669 0.930111 0.546749
C36   C     C_R   0.085580 0.234602 0.124364 0.545465
C37   C     C_R   0.680649 0.615822 0.124018 0.546361
C38   C     C_R   0.707440 0.209801 0.126208 0.545912
C39   C     C_R   0.614562 0.743644 0.400834 0.542841
C40   C     C_R   0.248638 0.138562 0.399833 0.543780
C41   C     C_1   0.670398 0.646462 0.860112 0.004590
C42   C     C_1   0.654805 0.683683 0.728447 -0.031125
C43   C     C_1   0.663463 0.666667 0.799689 -0.030958
C44   C     C_1   0.150163 0.182263 0.798940 -0.030693
C45   C     C_1   0.195327 0.160862 0.667409 0.003402
C46   C     C_1   0.678599 0.191301 0.860756 0.004033
C47   C     C_1   0.658550 0.167203 0.729040 -0.030804
C48   C     C_1   0.665684 0.180917 0.800330 -0.030565
Cr1   Cr    Cr6+3 0.404720 0.198220 0.499960 1.024539
Cr2   Cr    Cr6+3 0.698290 0.897110 0.500380 1.025818
Cr3   Cr    Cr6+3 0.396970 0.904720 0.499610 1.025542
Cr4   Cr    Cr6+3 0.926290 0.152010 0.028150 1.021920
Cr5   Cr    Cr6+3 0.921440 0.451830 0.027490 1.023823
Cr6   Cr    Cr6+3 0.626370 0.446880 0.028730 1.022253
H1    H     H_    0.826151 0.709244 0.321707 0.127260
H2    H     H_    0.839690 0.685896 0.196722 0.122647
H3    H     H_    0.496834 0.553893 0.204791 0.165272
H4    H     H_    0.344760 0.724343 0.198225 0.127866
H5    H     H_    0.339839 0.740151 0.319917 0.137100
H6    H     H_    0.494971 0.571615 0.324707 0.134379
H7    H     H_    0.209232 0.968813 0.315180 0.123267
H8    H     H_    0.164959 0.997835 0.191640 0.120776
H9    H     H_    0.172702 0.468253 0.205092 0.132314
H10   H     H_    0.011341 0.469200 0.219550 0.157536
H11   H     H_    0.218458 0.436333 0.324652 0.136568
H12   H     H_    0.056207 0.438996 0.338742 0.136527
H13   H     H_    0.469412 0.333269 0.327886 0.127435
H14   H     H_    0.482839 0.365007 0.204804 0.117232
H15   H     H_    0.953816 0.029442 0.211346 0.159587
H16   H     H_    0.942419 0.875681 0.192214 0.131217
H17   H     H_    0.926390 0.846949 0.311792 0.134961
H18   H     H_    0.937594 0.000992 0.330178 0.136669
O1    O     O_R   0.267750 0.231960 0.575440 -0.505166
O2    O     O_R   0.596230 0.579400 0.952760 -0.505043
O3    O     O_R   0.639160 0.321170 0.958690 -0.493289
O4    O     O_R   0.527290 0.186640 0.570530 -0.494225
O5    O     O_R   0.821370 0.124220 0.104400 -0.522252
O6    O     O_R   0.037020 0.167050 0.097880 -0.510173
O7    O     O_R   0.056310 0.349620 0.102920 -0.518623
O8    O     O_R   0.797790 0.564880 0.097980 -0.508865
O9    O     O_R   0.596000 0.584270 0.104310 -0.524827
O10   O     O_R   0.638950 0.325690 0.099180 -0.507897
O11   O     O_3   0.824700 0.350240 0.028120 -0.250783
O12   O     O_R   0.685950 0.784660 0.430010 -0.507689
O13   O     O_R   0.728110 0.003450 0.576380 -0.504881
O14   O     O_R   0.682980 0.789190 0.570500 -0.493818
O15   O     O_R   0.499300 0.771880 0.575540 -0.504801
O16   O     O_R   0.285350 0.030870 0.569740 -0.493414
O17   O     O_R   0.270960 0.227070 0.423890 -0.518269
O18   O     O_R   0.530270 0.182120 0.430040 -0.508158
O19   O     O_R   0.731320 0.998570 0.424830 -0.515827
O20   O     O_R   0.502510 0.767000 0.423980 -0.517996
O21   O     O_R   0.288320 0.026340 0.429250 -0.505556
O22   O     O_3   0.499990 0.000020 0.499980 -0.254262
O23   O     O_R   0.821590 0.119350 0.952850 -0.505001
O24   O     O_R   0.037230 0.162540 0.957390 -0.494244
O25   O     O_R   0.056530 0.344750 0.951370 -0.504506
O26   O     O_R   0.798000 0.560370 0.957490 -0.494244

loop_
_geom_bond_atom_site_label_1
_geom_bond_atom_site_label_2
_ccdc_geom_bond_type
C25   C31   A    
C19   C20   S    
C7    H1    S    
C40   O21   A    
C8    H2    S    
C30   H17   S    
Cr2   O12   S    
C7    C8    A    
C4    O15   A    
C7    C11   A    
C35   O3    A    
C26   C27   A    
C13   C18   A    
C26   H13   S    
C20   H12   S    
Cr5   O7    S    
C39   O12   A    
C9    H4    S    
C5    C6    A    
Cr5   O26   S    
C4    O14   A    
C22   C38   S    
C32   O25   A    
Cr4   O23   S    
C1    C2    S    
C24   C29   S    
C12   C42   T    
C27   H14   S    
Cr2   O13   S    
C17   H7    S    
Cr6   O2    S    
C33   O26   A    
C19   H9    S    
Cr1   O22   S    
C4    C12   S    
C9    C10   S    
Cr1   O18   S    
C9    H3    S    
C26   C31   A    
C13   C14   A    
C38   O10   A    
C41   C43   T    
C37   O9    A    
Cr4   O6    S    
Cr6   O11   S    
C29   H15   S    
C1    O13   A    
C15   C20   S    
C37   O8    A    
C46   C48   T    
C16   O1    A    
C20   H11   S    
Cr5   O8    S    
C34   C44   S    
C24   C25   A    
C13   C36   S    
C3    C8    A    
Cr3   O15   S    
C6    C11   A    
Cr2   O22   S    
Cr5   O25   S    
C17   C21   A    
C23   C44   T    
Cr3   O16   S    
Cr4   O11   S    
C10   H6    S    
C5    C9    S    
C29   C30   S    
Cr3   O20   S    
Cr2   O19   S    
C47   C48   S    
C19   H10   S    
C17   C18   A    
Cr1   O4    S    
C34   C45   T    
C11   C39   S    
Cr3   O21   S    
C32   O24   A    
C22   C27   A    
C40   O17   A    
Cr1   O1    S    
C42   C43   S    
Cr4   O5    S    
C39   O20   A    
Cr6   O10   S    
C29   H16   S    
C25   C30   S    
C1    O4    A    
C14   C19   S    
C28   C31   S    
C18   H8    S    
Cr1   O17   S    
C3    C5    A    
C36   O7    A    
C16   C45   S    
C6    C10   S    
C30   H18   S    
C38   O5    A    
C35   O23   A    
C2    C47   T    
Cr5   O11   S    
C33   C41   S    
C23   C32   S    
C10   H5    S    
C36   O6    A    
C21   C40   S    
Cr4   O24   S    
C28   O19   A    
C22   C24   A    
Cr2   O14   S    
Cr3   O22   S    
Cr6   O3    S    
C33   O2    A    
C15   C21   A    
C3    C37   S    
C16   O16   A    
C14   C15   A    
C28   O18   A    
C35   C46   S    
Cr6   O9    S    
