data_mof_unit_20228.cif
_audit_creation_date              2012-12-10T19:08:04-0500
_audit_creation_method            fapswitch 2.2
_symmetry_space_group_name_H-M    P1
_symmetry_Int_Tables_number       1
_space_group_crystal_system       triclinic
_cell_length_a                    9.094458
_cell_length_b                    10.913369
_cell_length_c                    9.594475
_cell_angle_alpha                 90.292231
_cell_angle_beta                  89.88307
_cell_angle_gamma                 90.664347
_cell_volume                      952.184658991

loop_
_atom_site_label
_atom_site_type_symbol
_atom_type_description
_atom_site_fract_x
_atom_site_fract_y
_atom_site_fract_z
_atom_type_partial_charge
C1    C     C_R   0.495038 0.263177 0.499787 0.805466
C2    C     C_R   0.470458 0.938465 0.365744 0.087335
C3    C     C_R   0.478971 0.870628 0.493828 -0.114453
C4    C     C_R   0.474480 0.938799 0.616571 0.029613
C5    C     C_3   0.469824 0.929554 0.771717 -0.474523
C6    C     C_3   0.469118 0.071857 0.773944 0.191301
C7    C     C_R   0.628921 0.509762 0.073319 0.232544
C8    C     C_R   0.375365 0.475607 0.074125 -0.075615
C9    C     C_R   0.375454 0.475502 0.926044 -0.091785
C10   C     C_R   0.628841 0.511919 0.926137 0.216469
C11   C     C_3   0.735819 0.617940 0.924096 -0.335726
C12   C     C_R   0.220792 0.499631 0.500028 0.827483
C13   C     C_3   0.741536 0.610168 0.083365 -0.331082
C14   C     C_R   0.492796 0.737372 0.499080 0.809799
C15   C     C_R   0.779178 0.499564 0.499925 0.856839
C16   C     C_1   0.065547 0.499187 0.499935 -0.164652
C17   C     C_1   0.934436 0.499087 0.499809 -0.114965
C18   C     C_R   0.474066 0.062621 0.618278 0.068200
C19   C     C_R   0.483043 0.131230 0.497648 -0.146477
C20   C     C_R   0.477027 0.067543 0.370378 -0.233814
Cu1   Cu    Cu3+1 0.499990 0.499980 0.640670 0.941983
Cu2   Cu    Cu3+1 0.500010 0.500020 0.359330 0.950098
H1    H     H_    0.475329 0.118425 0.273721 0.163872
H2    H     H_    0.682962 0.703424 0.887979 0.137840
H3    H     H_    0.700391 0.693432 0.134974 0.136627
H4    H     H_    0.365903 0.885401 0.806165 0.194464
H5    H     H_    0.570841 0.888042 0.814538 0.185725
H6    H     H_    0.273491 0.457487 0.128265 0.158921
H7    H     H_    0.273975 0.456848 0.871970 0.152991
N1    N     N_R   0.500920 0.500930 0.147930 -0.200693
N2    N     N_R   0.500930 0.500890 0.852020 -0.207462
O1    O     O_R   0.500000 0.319640 0.618810 -0.601136
O2    O     O_R   0.500020 0.319680 0.381230 -0.582769
O3    O     O_R   0.288380 0.499980 0.618770 -0.594359
O4    O     O_R   0.288400 0.500020 0.381190 -0.589682
O5    O     O_R   0.499980 0.680320 0.618770 -0.568680
O6    O     O_R   0.500000 0.680360 0.381190 -0.593116
O7    O     O_R   0.711600 0.499980 0.618810 -0.577856
O8    O     O_R   0.711620 0.500020 0.381230 -0.568725
C21   C     C_2   0.884050 0.567589 0.146304 0.932243
O9    O     O_2   0.962171 0.641353 0.208490 -0.636529
O10   O     O_R   0.923690 0.444199 0.138661 -0.747044
H8    H     H_    0.019066 0.427238 0.188962 0.313458
C22   C     C_3   0.448229 0.881379 0.222817 -0.406702
C23   C     C_3   0.291002 0.829772 0.205746 -0.283311
C24   C     C_3   0.265949 0.775058 0.060485 -0.770591
H9    H     H_    0.369700 0.740293 0.014485 0.242907
H10   H     H_    0.186501 0.697547 0.065788 0.275728
H11   H     H_    0.218291 0.844789 0.990878 0.235862
H12   H     H_    0.268583 0.757801 0.284450 0.251813
H13   H     H_    0.210300 0.903967 0.224046 0.214552
H14   H     H_    0.471248 0.949265 0.140319 0.165087
H15   H     H_    0.531276 0.812063 0.201211 0.214786
C25   C     C_3   0.321137 0.129115 0.821496 -0.397339
C26   C     C_3   0.303523 0.136219 0.980218 -0.407479
C27   C     C_3   0.154666 0.186631 0.023239 -0.827473
H16   H     H_    0.134768 0.276027 0.972406 0.270715
H17   H     H_    0.066388 0.120134 0.994689 0.264155
H18   H     H_    0.152047 0.200160 0.138020 0.245029
H19   H     H_    0.311130 0.043305 0.022651 0.239577
H20   H     H_    0.390801 0.195579 0.026417 0.221477
H21   H     H_    0.312973 0.223300 0.779342 0.213288
H22   H     H_    0.227632 0.075066 0.777203 0.197706
C28   C     C_3   0.608232 0.132442 0.840210 -0.336619
C29   C     C_3   0.757125 0.096023 0.774395 -0.383290
C30   C     C_3   0.867250 0.202047 0.781287 -0.798310
H23   H     H_    0.831466 0.276821 0.711508 0.278254
H24   H     H_    0.874915 0.237742 0.889566 0.296390
H25   H     H_    0.977059 0.170884 0.746232 0.232728
H26   H     H_    0.802217 0.016415 0.831396 0.220184
H27   H     H_    0.747171 0.068861 0.663350 0.233051
H28   H     H_    0.595451 0.233416 0.837079 0.232652
H29   H     H_    0.612012 0.107895 0.952417 0.165798
C31   C     C_2   0.878432 0.592886 0.849371 0.929333
O11   O     O_2   0.941203 0.676064 0.787508 -0.620194
O12   O     O_R   0.938333 0.475679 0.850365 -0.769004
H30   H     H_    0.032930 0.470630 0.795111 0.317111

loop_
_geom_bond_atom_site_label_1
_geom_bond_atom_site_label_2
_ccdc_geom_bond_type
C7    C10   A    
C30   H24   S    
C26   C27   S    
C19   C20   A    
C1    O2    A    
Cu1   O5    S    
C23   C24   S    
Cu2   O4    S    
Cu1   N2    S    
C24   H11   S    
C31   O12   S    
C14   O5    A    
C5    C6    S    
C30   H25   S    
C25   H22   S    
C23   H13   S    
C29   H26   S    
C11   H2    S    
C27   H16   S    
C18   C19   A    
C6    C28   S    
C13   C21   S    
C24   H9    S    
C22   H15   S    
Cu1   O7    S    
C12   C16   S    
C2    C22   S    
C8    C9    A    
C28   H29   S    
C9    H7    S    
C4    C18   A    
C22   H14   S    
C21   O10   S    
C30   H23   S    
C7    N1    A    
C5    H5    S    
Cu1   Cu2   S    
C13   H3    S    
C6    C25   S    
C10   N2    A    
C6    C18   S    
Cu1   O1    S    
C24   H10   S    
C1    C19   S    
C31   O11   D    
C2    C20   A    
O12   H30   S    
C16   C17   T    
Cu1   O3    S    
C25   H21   S    
C29   H27   S    
Cu2   O6    S    
C1    O1    A    
C15   O7    A    
C20   H1    S    
C12   O4    A    
C15   O8    A    
C3    C14   S    
C21   O9    D    
C8    H6    S    
O10   H8    S    
C12   O3    A    
C3    C4    A    
C22   C23   S    
C15   C17   S    
Cu2   O2    S    
C25   C26   S    
Cu2   N1    S    
C4    C5    S    
C11   C31   S    
C27   H18   S    
C8    N1    A    
C28   C29   S    
C2    C3    A    
C14   O6    A    
C11   C13   S    
C23   H12   S    
Cu2   O8    S    
C26   H20   S    
C27   H17   S    
C28   H28   S    
C10   C11   S    
C9    N2    A    
C5    H4    S    
C7    C13   S    
C29   C30   S    
C26   H19   S    
