data_mof_unit_27631.cif
_audit_creation_date              2012-12-11T15:44:52-0500
_audit_creation_method            fapswitch 2.2
_symmetry_space_group_name_H-M    P1
_symmetry_Int_Tables_number       1
_space_group_crystal_system       triclinic
_cell_length_a                    6.929842
_cell_length_b                    16.796663
_cell_length_c                    17.078248
_cell_angle_alpha                 100.391284
_cell_angle_beta                  87.988785
_cell_angle_gamma                 91.808772
_cell_volume                      1953.42591013

loop_
_atom_site_label
_atom_site_type_symbol
_atom_type_description
_atom_site_fract_x
_atom_site_fract_y
_atom_site_fract_z
_atom_type_partial_charge
O1    O     O_R   0.494370 0.415690 0.413450 -0.547345
O2    O     O_R   0.819420 0.429360 0.578420 -0.534905
O3    O     O_R   0.994280 0.584310 0.586550 -0.543454
C1    C     C_R   0.646302 0.415182 0.606408 0.760941
O4    O     O_R   0.823790 0.406230 0.413570 -0.516324
O5    O     O_R   0.998670 0.561000 0.420530 -0.543723
C2    C     C_R   0.655273 0.382758 0.385289 0.747626
O6    O     O_R   0.489970 0.439000 0.579470 -0.512756
O7    O     O_3   0.662300 0.550810 0.502470 -0.386856
V1    V     V_3+5 0.935380 0.490570 0.499540 1.480582
O8    O     O_R   0.328650 0.570640 0.421580 -0.549768
C3    C     C_R   0.164738 0.586894 0.394977 0.683830
O9    O     O_R   0.324290 0.593770 0.586430 -0.547619
C4    C     C_R   0.154973 0.616517 0.615177 0.752660
V2    V     V_3+5 0.435930 0.509430 0.500460 1.440701
O10   O     O_3   0.159140 0.449190 0.497530 -0.348856
C5    C     C_R   0.302157 0.738126 0.701517 -0.167725
H1    H     H_    0.433526 0.730236 0.664939 0.156072
C6    C     C_R   0.289995 0.805396 0.762992 0.342040
C7    C     C_R   0.120748 0.816741 0.813294 -0.266238
C8    C     C_R   0.962998 0.760995 0.796312 0.465984
C9    C     C_R   0.974323 0.697435 0.730630 -0.239623
H2    H     H_    0.849795 0.657198 0.717405 0.141755
C10   C     C_R   0.144148 0.684660 0.683598 -0.207270
C11   C     C_R   0.175158 0.640858 0.334259 -0.065418
C12   C     C_R   0.089620 0.858617 0.165263 -0.066966
C13   C     C_R   0.893115 0.797019 0.261610 -0.203168
C14   C     C_R   0.915338 0.851958 0.209211 -0.169909
C15   C     C_R   0.243212 0.809192 0.175978 -0.244472
C16   C     C_R   0.220688 0.752834 0.228147 0.159751
C17   C     C_R   0.043937 0.746444 0.271153 0.159779
C18   C     C_R   0.021470 0.690165 0.323397 -0.241044
C19   C     C_R   0.349353 0.647406 0.290217 -0.164932
C20   C     C_R   0.371488 0.702241 0.237693 -0.205155
H3    H     H_    0.886959 0.686453 0.357081 0.122359
H4    H     H_    0.470528 0.610181 0.296753 0.126082
H5    H     H_    0.757111 0.793783 0.294316 0.123326
H6    H     H_    0.507460 0.705438 0.204954 0.120217
H7    H     H_    0.794179 0.889216 0.202736 0.126774
H8    H     H_    0.377727 0.812933 0.142300 0.120818
C21   C     C_R   0.620404 0.365670 0.670563 -0.264364
C22   C     C_R   0.645885 0.140820 0.835220 -0.161956
C23   C     C_R   0.856415 0.192993 0.736679 0.547743
C24   C     C_R   0.820228 0.139664 0.790351 -0.238062
C25   C     C_R   0.507472 0.197533 0.826395 -0.163394
C26   C     C_R   0.545779 0.255099 0.776350 -0.087014
C27   C     C_R   0.720960 0.252285 0.730584 -0.014658
C28   C     C_R   0.755796 0.307264 0.677945 -0.226715
C29   C     C_R   0.452821 0.372779 0.721566 0.399234
C30   C     C_R   0.413681 0.316532 0.772554 0.455561
H9    H     H_    0.885474 0.302807 0.640234 0.208546
H10   H     H_    0.930586 0.097334 0.797088 0.137639
H11   H     H_    0.373652 0.198837 0.861272 0.176275
C31   C     C_R   0.772802 0.249059 0.308003 0.362384
C32   C     C_R   0.757456 0.185190 0.242022 -0.350676
H12   H     H_    0.853468 0.134660 0.236266 0.126309
C33   C     C_R   0.618857 0.185316 0.183924 -0.160635
C34   C     C_R   0.489942 0.249916 0.193173 0.460448
C35   C     C_R   0.504814 0.313627 0.259012 -0.303050
H13   H     H_    0.409816 0.364391 0.263774 0.142578
C36   C     C_R   0.644778 0.313972 0.316753 -0.125964
O11   O     O_R   0.774880 0.061150 0.920630 -0.540402
O12   O     O_R   0.440980 0.093710 0.086500 -0.526141
O13   O     O_R   0.266190 0.938890 0.079390 -0.542284
C37   C     C_R   0.609379 0.117131 0.114834 0.737467
O14   O     O_R   0.445420 0.070740 0.921670 -0.543640
O15   O     O_R   0.270660 0.915760 0.913380 -0.532216
C38   C     C_R   0.618796 0.086878 0.895296 0.739336
O16   O     O_R   0.770400 0.084270 0.086640 -0.552365
O17   O     O_3   0.602590 0.949210 0.997500 -0.357474
V3    V     V_3+5 0.329470 0.009420 0.000470 1.447772
O18   O     O_R   0.940650 0.906250 0.913470 -0.501180
C39   C     C_R   0.109988 0.884214 0.883620 0.725720
O19   O     O_R   0.936210 0.929220 0.078300 -0.548030
C40   C     C_R   0.100126 0.912829 0.104783 0.680771
V4    V     V_3+5 0.828930 0.990510 0.999490 1.460146
O20   O     O_3   0.105680 0.050790 0.002500 -0.374903
O21   O     O_3   0.318970 0.431930 0.719802 -0.526425
C41   C     C_3   0.393512 0.507389 0.759148 -0.214781
H14   H     H_    0.496945 0.534644 0.719791 0.126664
H15   H     H_    0.464663 0.503245 0.815716 0.087900
H16   H     H_    0.272073 0.549439 0.774379 0.151669
O22   O     O_3   0.032265 0.192026 0.695570 -0.536421
C42   C     C_3   0.034342 0.124198 0.633481 -0.271648
H17   H     H_    0.911295 0.124342 0.593244 0.133378
H18   H     H_    0.033549 0.066678 0.657135 0.131676
H19   H     H_    0.169666 0.127046 0.597302 0.173598
O23   O     O_3   0.237481 0.317958 0.813557 -0.520019
C43   C     C_3   0.257270 0.364161 0.890612 -0.234494
H20   H     H_    0.388233 0.349160 0.920545 0.117123
H21   H     H_    0.130030 0.350965 0.927868 0.164737
H22   H     H_    0.257936 0.429776 0.888627 0.145490
O24   O     O_3   0.909026 0.248280 0.364992 -0.643255
H23   H     H_    0.987970 0.199382 0.349556 0.277990
O25   O     O_3   0.363917 0.255065 0.133307 -0.561033
C44   C     C_3   0.173461 0.242657 0.161114 -0.185973
H24   H     H_    0.157808 0.184877 0.184307 0.126687
H25   H     H_    0.075262 0.238202 0.110492 0.158801
H26   H     H_    0.126557 0.294391 0.207319 0.133455
O26   O     O_3   0.444512 0.859632 0.770039 -0.614100
H27   H     H_    0.392667 0.914930 0.782095 0.281573
O27   O     O_3   0.792167 0.771027 0.840912 -0.517304
C45   C     C_3   0.782790 0.714847 0.893192 -0.203476
H28   H     H_    0.651212 0.726266 0.932029 0.155306
H29   H     H_    0.909385 0.722207 0.932544 0.105225
H30   H     H_    0.770809 0.651574 0.860007 0.107081

loop_
_geom_bond_atom_site_label_1
_geom_bond_atom_site_label_2
_ccdc_geom_bond_type
O14   C38   A    
C32   H12   S    
O12   C37   A    
O24   H23   S    
O25   C44   S    
C23   O22   S    
C6    C7    A    
C42   H19   S    
C1    O6    A    
C25   C26   A    
O19   V4    S    
O22   C42   S    
C42   H18   S    
O5    C3    A    
C16   C17   A    
C1    C21   S    
V2    O10   S    
C44   H26   S    
C19   H4    S    
C29   O21   S    
O16   V4    S    
O13   V3    S    
C4    C10   S    
C2    C36   S    
C31   O24   S    
C26   C27   A    
O8    V2    S    
O13   C40   A    
C28   H9    S    
O14   V3    S    
C44   H25   S    
O17   V3    S    
O15   C39   A    
C43   H21   S    
O7    V1    S    
C30   O23   S    
C24   H10   S    
C11   C18   A    
C25   H11   S    
C35   H13   S    
C20   H6    S    
C8    C9    A    
C22   C38   S    
O11   V4    S    
C22   C24   A    
C21   C29   A    
C5    H1    S    
C35   C36   A    
C5    C10   A    
O19   C40   A    
C16   C20   A    
C13   C17   A    
C18   H3    S    
C42   H17   S    
O4    C2    A    
O21   C41   S    
C14   H7    S    
C34   C35   A    
C22   C25   A    
O2    C1    A    
C34   O25   S    
C15   C16   A    
C27   C28   A    
C6    O26   S    
C44   H24   S    
C7    C8    A    
C19   C20   A    
O18   V4    S    
C45   H29   S    
V4    O20   S    
C43   H22   S    
O3    C4    A    
O1    V2    S    
C8    O27   S    
O12   V3    S    
O6    V2    S    
C32   C33   A    
C23   C24   A    
O17   V4    S    
C9    C10   A    
O2    V1    S    
V3    O20   S    
C41   H15   S    
C31   C32   A    
O1    C2    A    
C17   C18   A    
C33   C37   S    
O18   C39   A    
O5    V1    S    
C41   H16   S    
O8    C3    A    
C31   C36   A    
C26   C30   A    
C12   C14   A    
O11   C38   A    
C3    C11   S    
O9    V2    S    
O7    V2    S    
O4    V1    S    
O3    V1    S    
V1    O10   S    
C33   C34   A    
C13   H5    S    
C37   O16   A    
C15   H8    S    
O26   H27   S    
C5    C6    A    
C21   C28   A    
C7    C39   S    
C45   H30   S    
O15   V3    S    
O27   C45   S    
C41   H14   S    
O23   C43   S    
C12   C15   A    
C12   C40   S    
C29   C30   A    
C45   H28   S    
C9    H2    S    
C43   H20   S    
O9    C4    A    
C23   C27   A    
C11   C19   A    
C13   C14   A    
