data_mof_unit_57561.cif
_audit_creation_date              2012-12-11T14:56:25-0500
_audit_creation_method            fapswitch 2.2
_symmetry_space_group_name_H-M    P1
_symmetry_Int_Tables_number       1
_space_group_crystal_system       triclinic
_cell_length_a                    10.591276
_cell_length_b                    10.702824
_cell_length_c                    17.153252
_cell_angle_alpha                 80.790485
_cell_angle_beta                  89.657647
_cell_angle_gamma                 119.749302
_cell_volume                      1658.11347662

loop_
_atom_site_label
_atom_site_type_symbol
_atom_type_description
_atom_site_fract_x
_atom_site_fract_y
_atom_site_fract_z
_atom_type_partial_charge
C1    C     C_R   0.222940 0.854583 0.128695 0.548174
C2    C     C_R   0.798677 0.420081 0.263809 -0.127327
C3    C     C_R   0.788891 0.406802 0.185418 -0.136800
C4    C     C_R   0.651766 0.341122 0.157181 0.026383
C5    C     C_1   0.669205 0.849363 0.205463 -0.026419
C6    C     C_1   0.680416 0.839240 0.274833 -0.029538
C7    C     C_1   0.180271 0.825905 0.211098 -0.045298
C8    C     C_1   0.150701 0.819510 0.279651 -0.045018
C9    C     C_1   0.643770 0.319478 0.777693 -0.040052
C10   C     C_1   0.650546 0.342129 0.707200 -0.020670
C11   C     C_R   0.610724 0.691328 0.814372 -0.116463
C12   C     C_R   0.636433 0.279702 0.086468 0.545228
C13   C     C_R   0.605693 0.667979 0.737224 0.069349
C14   C     C_R   0.700569 0.784288 0.676916 0.063580
C15   C     C_R   0.798390 0.922566 0.695281 -0.161453
C16   C     C_R   0.794637 0.947486 0.771783 -0.158646
C17   C     C_R   0.695865 0.833241 0.830781 0.009124
C18   C     C_R   0.118074 0.911054 0.782636 -0.130893
C19   C     C_R   0.112552 0.912899 0.702995 -0.128824
C20   C     C_R   0.130762 0.811677 0.668686 0.032927
C21   C     C_R   0.155876 0.708207 0.715842 -0.131282
C22   C     C_R   0.171084 0.712652 0.796005 -0.127207
C23   C     C_R   0.640644 0.858775 0.125454 0.551054
C24   C     C_R   0.156423 0.817692 0.828806 0.028286
C25   C     C_R   0.686681 0.809740 0.357120 0.560145
C26   C     C_R   0.689759 0.396959 0.394393 0.548586
C27   C     C_R   0.103279 0.810116 0.359065 0.552507
C28   C     C_R   0.703352 0.760784 0.595961 0.588617
C29   C     C_R   0.678311 0.381839 0.624242 0.555510
C30   C     C_R   0.094230 0.801020 0.588065 0.542761
C31   C     C_R   0.217615 0.858703 0.901851 0.547786
C32   C     C_R   0.636983 0.282351 0.860536 0.546851
C33   C     C_R   0.648452 0.863779 0.901210 0.548757
C34   C     C_R   0.525801 0.303825 0.205634 -0.126096
C35   C     C_R   0.536038 0.319164 0.284431 -0.133874
C36   C     C_R   0.671744 0.370952 0.314362 0.033951
Cr1   Cr    Cr6+3 0.402240 0.783890 0.019450 1.022987
Cr2   Cr    Cr6+3 0.382360 0.097900 0.991800 1.016971
Cr3   Cr    Cr6+3 0.715380 0.118170 0.988700 1.027122
Cr4   Cr    Cr6+3 0.936650 0.882420 0.465510 1.022266
Cr5   Cr    Cr6+3 0.605770 0.565620 0.493360 1.040960
Cr6   Cr    Cr6+3 0.921340 0.550490 0.496380 1.024327
H1    H     H_    0.418483 0.253421 0.184494 0.145635
H2    H     H_    0.090720 0.992991 0.668764 0.138148
H3    H     H_    0.165830 0.626544 0.690660 0.129043
H4    H     H_    0.201129 0.639533 0.831014 0.132255
H5    H     H_    0.438534 0.286981 0.322275 0.133548
H6    H     H_    0.906251 0.468914 0.284764 0.144781
H7    H     H_    0.887340 0.438790 0.148448 0.136075
H8    H     H_    0.534547 0.600892 0.860024 0.133822
H9    H     H_    0.872911 0.014276 0.649882 0.139854
H10   H     H_    0.860836 0.057493 0.783291 0.135250
H11   H     H_    0.104205 0.991879 0.806436 0.137314
O1    O     O_R   0.521780 0.757110 0.108900 -0.509467
O2    O     O_R   0.513330 0.228330 0.898660 -0.506162
O3    O     O_R   0.739230 0.266130 0.888050 -0.511000
O4    O     O_R   0.712580 0.991850 0.918770 -0.501854
O5    O     O_3   0.499990 0.999980 0.999980 -0.250264
O6    O     O_R   0.083770 0.911170 0.376030 -0.506386
O7    O     O_R   0.808770 0.880340 0.383890 -0.491246
O8    O     O_R   0.584340 0.689460 0.394160 -0.506878
O9    O     O_R   0.614320 0.443940 0.423590 -0.503978
O10   O     O_R   0.805020 0.410040 0.421340 -0.519369
O11   O     O_R   0.049240 0.685450 0.403290 -0.499740
O12   O     O_R   0.275160 0.783810 0.101120 -0.498296
O13   O     O_R   0.077520 0.903010 0.551800 -0.534969
O14   O     O_R   0.802980 0.872780 0.546830 -0.521585
O15   O     O_R   0.578090 0.681300 0.569920 -0.477410
O16   O     O_R   0.608530 0.436370 0.586530 -0.492212
O17   O     O_R   0.798770 0.401880 0.597100 -0.513259
O18   O     O_R   0.043450 0.677890 0.566230 -0.502028
O19   O     O_3   0.821250 0.666180 0.485090 -0.285147
O20   O     O_R   0.237900 0.972600 0.090980 -0.512783
O21   O     O_R   0.511190 0.220540 0.061620 -0.509755
O22   O     O_R   0.736920 0.257720 0.063840 -0.517416
O23   O     O_R   0.710450 0.984050 0.081720 -0.497373
O24   O     O_R   0.524090 0.765520 0.933110 -0.527949
O25   O     O_R   0.277300 0.791600 0.938160 -0.504780
O26   O     O_R   0.240210 0.981010 0.915190 -0.523202
N1    N     N_3   0.494196 0.531320 0.719570 -0.596855
H12   H     H_    0.481900 0.446198 0.764108 0.219342
H13   H     H_    0.395587 0.531285 0.723158 0.227946

loop_
_geom_bond_atom_site_label_1
_geom_bond_atom_site_label_2
_ccdc_geom_bond_type
Cr4   O7    S    
C12   O21   A    
C19   C20   A    
Cr5   O8    S    
C23   O23   A    
C35   H5    S    
C30   O18   A    
C3    H7    S    
C7    C8    T    
C20   C30   S    
C23   O1    A    
C18   C24   A    
C28   O15   A    
C18   C19   A    
C5    C6    T    
C6    C25   S    
Cr2   O26   S    
C15   C16   A    
Cr3   O4    S    
Cr6   O17   S    
C34   C35   A    
C9    C32   S    
Cr2   O5    S    
Cr2   O2    S    
C35   C36   A    
C16   C17   A    
Cr4   O14   S    
Cr1   O12   S    
C1    O12   A    
C25   O7    A    
C15   H9    S    
C4    C12   S    
C9    C10   T    
C32   O2    A    
C21   H3    S    
Cr1   O5    S    
C18   H11   S    
C13   N1    S    
Cr4   O6    S    
Cr4   O13   S    
C21   C22   A    
C17   C33   S    
Cr5   O9    S    
Cr5   O15   S    
C29   O16   A    
C4    C34   A    
C28   O14   A    
N1    H13   S    
C2    H6    S    
Cr3   O5    S    
Cr1   O24   S    
C26   O10   A    
Cr3   O3    S    
C5    C23   S    
Cr6   O19   S    
C25   O8    A    
Cr3   O23   S    
C30   O13   A    
Cr5   O19   S    
Cr1   O1    S    
C26   C36   S    
C22   H4    S    
Cr3   O22   S    
C22   C24   A    
C3    C4    A    
Cr6   O11   S    
C19   H2    S    
C31   O25   A    
Cr5   O16   S    
C29   O17   A    
Cr2   O21   S    
C2    C36   A    
C11   C17   A    
C33   O4    A    
Cr4   O19   S    
C1    C7    S    
C34   H1    S    
C16   H10   S    
N1    H12   S    
C31   O26   A    
Cr1   O25   S    
C1    O20   A    
C2    C3    A    
C26   O9    A    
C24   C31   S    
C11   H8    S    
C27   O6    A    
C11   C13   A    
C10   C29   S    
C33   O24   A    
Cr6   O18   S    
C27   O11   A    
C20   C21   A    
C12   O22   A    
C8    C27   S    
C14   C15   A    
C14   C28   S    
C13   C14   A    
Cr6   O10   S    
C32   O3    A    
Cr2   O20   S    
