data_mof_unit_28961.cif
_audit_creation_date              2012-12-11T14:29:26-0500
_audit_creation_method            fapswitch 2.2
_symmetry_space_group_name_H-M    P1
_symmetry_Int_Tables_number       1
_space_group_crystal_system       triclinic
_cell_length_a                    6.943815
_cell_length_b                    14.753349
_cell_length_c                    16.277324
_cell_angle_alpha                 90.515543
_cell_angle_beta                  89.879772
_cell_angle_gamma                 89.318667
_cell_volume                      1667.33329025

loop_
_atom_site_label
_atom_site_type_symbol
_atom_type_description
_atom_site_fract_x
_atom_site_fract_y
_atom_site_fract_z
_atom_type_partial_charge
O1    O     O_R   0.494400 0.416610 0.413880 -0.532519
O2    O     O_R   0.823920 0.406790 0.585520 -0.545915
O3    O     O_R   0.994250 0.583390 0.586120 -0.538891
C1    C     C_R   0.655077 0.385190 0.613649 0.736181
O4    O     O_R   0.824110 0.405730 0.414490 -0.543714
O5    O     O_R   0.994440 0.582310 0.413870 -0.540477
C2    C     C_R   0.656511 0.383093 0.387368 0.742730
O6    O     O_R   0.494210 0.417690 0.586130 -0.545385
O7    O     O_3   0.660810 0.557940 0.500000 -0.370090
V1    V     V_3+5 0.935650 0.489250 0.500000 1.428490
O8    O     O_R   0.324160 0.593210 0.414480 -0.537255
C3    C     C_R   0.154019 0.615415 0.387461 0.738649
O9    O     O_R   0.323970 0.594270 0.585510 -0.541154
C4    C     C_R   0.154401 0.616025 0.613953 0.686597
V2    V     V_3+5 0.435660 0.510750 0.500000 1.446456
O10   O     O_3   0.160630 0.442060 0.500000 -0.375025
H1    H     H_    0.370495 0.913342 0.519485 0.123842
C5    C     C_R   0.018230 0.567337 0.776062 -0.143493
C6    C     C_R   0.952815 0.541393 0.853213 -0.122127
C7    C     C_R   0.943491 0.604118 0.917301 -0.100758
C8    C     C_R   0.999160 0.693339 0.904723 -0.127879
C9    C     C_R   0.063806 0.722193 0.826762 0.065901
C10   C     C_R   0.073896 0.657733 0.760976 0.069216
C11   C     C_R   0.121962 0.812965 0.814285 -0.179097
C12   C     C_R   0.190666 0.839001 0.735817 0.069935
C13   C     C_R   0.200882 0.774530 0.670048 0.069009
C14   C     C_R   0.142706 0.683761 0.682515 -0.180651
C15   C     C_R   0.246069 0.929425 0.720706 -0.142465
C16   C     C_R   0.311510 0.955371 0.643563 -0.121948
C17   C     C_R   0.321109 0.892622 0.579509 -0.113741
C18   C     C_R   0.265599 0.803384 0.592101 -0.133767
H2    H     H_    0.025973 0.515365 0.728863 0.109470
H3    H     H_    0.910590 0.471983 0.863457 0.124025
H4    H     H_    0.894150 0.583400 0.977333 0.131423
H5    H     H_    0.992426 0.738909 0.957088 0.106123
H6    H     H_    0.238075 0.981419 0.767877 0.105600
H7    H     H_    0.353551 0.024797 0.633293 0.116101
H8    H     H_    0.272488 0.757804 0.539751 0.102116
C19   C     C_2   0.005630 0.689980 0.267362 -0.091373
C20   C     C_2   0.141014 0.688295 0.326825 -0.256132
H9    H     H_    0.896400 0.637869 0.266558 0.147446
H10   H     H_    0.245163 0.741769 0.333273 0.133217
C21   C     C_2   0.990377 0.761077 0.202651 -0.214947
C22   C     C_2   0.139085 0.808834 0.172062 -0.154529
H11   H     H_    0.848541 0.771765 0.176511 0.154162
C23   C     C_2   0.778848 0.209451 0.783097 -0.125976
C24   C     C_2   0.613325 0.179844 0.816785 -0.304884
H12   H     H_    0.915118 0.182580 0.805425 0.134562
H13   H     H_    0.475090 0.205336 0.796092 0.124642
C25   C     C_2   0.791674 0.277820 0.716184 -0.142416
C26   C     C_2   0.638806 0.317787 0.680039 -0.303690
H14   H     H_    0.935605 0.295450 0.696101 0.132477
H15   H     H_    0.493808 0.301535 0.698930 0.128787
C27   C     C_2   0.765748 0.226877 0.200542 -0.202569
C28   C     C_2   0.602494 0.187883 0.172749 -0.150393
H16   H     H_    0.901358 0.207296 0.171949 0.156111
C29   C     C_2   0.775522 0.299289 0.265124 -0.113397
C30   C     C_2   0.647845 0.308782 0.327195 -0.250419
H17   H     H_    0.896270 0.345295 0.261916 0.150144
H18   H     H_    0.532487 0.261165 0.335705 0.136209
O11   O     O_R   0.770210 0.079270 0.910680 -0.542243
O12   O     O_R   0.440150 0.091160 0.082270 -0.527995
O13   O     O_R   0.269970 0.914530 0.082860 -0.522348
C31   C     C_R   0.606924 0.114594 0.109555 0.711917
O14   O     O_R   0.440480 0.090100 0.911240 -0.553216
O15   O     O_R   0.270310 0.913460 0.910610 -0.541512
C32   C     C_R   0.608781 0.111900 0.883201 0.730221
O16   O     O_R   0.769870 0.080340 0.082930 -0.538356
O17   O     O_3   0.603660 0.938980 0.996790 -0.367174
V3    V     V_3+5 0.328750 0.007610 0.996740 1.480423
O18   O     O_R   0.940600 0.902510 0.911180 -0.542526
C33   C     C_R   0.110209 0.880725 0.882817 0.679564
O19   O     O_R   0.940270 0.903570 0.082200 -0.541949
C34   C     C_R   0.111591 0.880551 0.109256 0.699116
V4    V     V_3+5 0.828770 0.986010 0.996670 1.457609
O20   O     O_3   0.103730 0.054750 0.996710 -0.374773
C35   C     C_2   0.341901 0.787967 0.194866 0.777951
O21   O     O_2   0.408338 0.711508 0.184734 -0.559517
O22   O     O_R   0.455883 0.856784 0.227729 -0.660574
H19   H     H_    0.587291 0.834104 0.245545 0.280367
C36   C     C_2   0.408867 0.220593 0.199134 0.771373
O23   O     O_2   0.361314 0.299869 0.189421 -0.556992
O24   O     O_R   0.282641 0.160080 0.236041 -0.663075
H20   H     H_    0.163118 0.191383 0.258703 0.281164

loop_
_geom_bond_atom_site_label_1
_geom_bond_atom_site_label_2
_ccdc_geom_bond_type
O19   C34   A    
C6    C7    A    
C1    O6    A    
C36   O23   D    
C19   H9    S    
C35   O21   D    
O11   V4    S    
O16   V4    S    
C13   C14   A    
C31   O16   A    
C22   C35   S    
O5    C3    A    
C17   C18   A    
C29   H17   S    
C30   H18   S    
O14   V3    S    
O12   V3    S    
C5    C6    A    
O12   C31   A    
C27   C28   D    
O8    V2    S    
O15   C33   A    
O14   C32   A    
C25   H14   S    
O1    V2    S    
C10   C14   A    
C4    C14   S    
C28   C36   S    
O7    V1    S    
C2    C30   S    
C7    H4    S    
C20   H10   S    
C13   C18   A    
O9    C4    A    
H1    C17   S    
O19   V4    S    
C24   C32   S    
C36   O24   S    
C23   H12   S    
C35   O22   S    
C27   H16   S    
C1    C26   S    
C5    C10   A    
C11   C12   A    
C24   H13   S    
C6    H3    S    
C19   C20   D    
O4    C2    A    
C19   C21   S    
C12   C13   A    
C26   H15   S    
C3    C20   S    
O2    C1    A    
V4    O20   S    
C16   C17   A    
O11   C32   A    
O24   H20   S    
O13   V3    S    
C28   C31   S    
C25   C26   D    
C22   C34   S    
C21   H11   S    
O3    C4    A    
O6    V2    S    
O9    V2    S    
C21   C22   D    
V3    O20   S    
C9    C11   A    
C5    H2    S    
O2    V1    S    
C11   C33   S    
C23   C24   D    
C15   C16   A    
O1    C2    A    
O5    V1    S    
O8    C3    A    
C8    H5    S    
O13   C34   A    
C23   C25   S    
C18   H8    S    
O7    V2    S    
O4    V1    S    
O3    V1    S    
V1    O10   S    
O18   V4    S    
C29   C30   D    
O15   V3    S    
O17   V4    S    
O17   V3    S    
C12   C15   A    
O22   H19   S    
O18   C33   A    
C7    C8    A    
C15   H6    S    
C16   H7    S    
C9    C10   A    
C8    C9    A    
V2    O10   S    
C27   C29   S    
