data_mof_unit_9211.cif
_audit_creation_date              2012-12-10T20:30:09-0500
_audit_creation_method            fapswitch 2.2
_symmetry_space_group_name_H-M    P1
_symmetry_Int_Tables_number       1
_space_group_crystal_system       triclinic
_cell_length_a                    9.866524
_cell_length_b                    10.719684
_cell_length_c                    13.051382
_cell_angle_alpha                 89.506542
_cell_angle_beta                  68.95528
_cell_angle_gamma                 88.008664
_cell_volume                      1287.53204035

loop_
_atom_site_label
_atom_site_type_symbol
_atom_type_description
_atom_site_fract_x
_atom_site_fract_y
_atom_site_fract_z
_atom_type_partial_charge
C1    C     C_R   0.501110 0.739653 0.493458 0.901975
C2    C     C_R   0.442500 0.476641 0.983166 0.078693
C3    C     C_R   0.472141 0.440598 0.873825 0.108583
C4    C     C_R   0.557712 0.472826 0.023576 0.020274
C5    C     C_R   0.685547 0.399763 0.967138 0.153388
C6    C     C_R   0.705263 0.348094 0.864990 -0.263012
C7    C     C_R   0.601022 0.369966 0.817878 -0.203066
C8    C     C_R   0.550030 0.537156 0.119136 0.102490
C9    C     C_R   0.760338 0.414897 0.123095 -0.265474
C10   C     C_R   0.370141 0.474459 0.824450 -0.134686
C11   C     C_R   0.383283 0.941839 0.485574 0.090946
C12   C     C_R   0.419690 0.492180 0.705012 0.846122
C13   C     C_R   0.508250 0.870009 0.471163 -0.135936
C14   C     C_R   0.642847 0.927503 0.437186 -0.266980
C15   C     C_R   0.648427 0.057429 0.439634 0.148670
C16   C     C_R   0.514282 0.127076 0.484120 -0.154451
C17   C     C_R   0.385267 0.066138 0.503013 0.084611
C18   C     C_3   0.235797 0.071456 0.590202 -0.016324
C19   C     C_3   0.230973 0.933600 0.564522 -0.568689
C20   C     C_R   0.883345 0.536752 0.590974 0.197566
C21   C     C_R   0.970665 0.452106 0.414034 -0.145147
C22   C     C_R   0.114456 0.451677 0.414170 -0.137127
C23   C     C_R   0.504263 0.259660 0.496653 0.874139
C24   C     C_R   0.025966 0.538005 0.591276 0.119564
C25   C     C_3   0.994883 0.666559 0.641525 -0.099001
C26   C     C_3   0.840037 0.660203 0.644432 -0.465300
C27   C     C_R   0.581511 0.501341 0.295165 0.870033
C28   C     C_R   0.789164 0.375680 0.015824 -0.217388
C29   C     C_R   0.636716 0.490688 0.176445 -0.049805
C30   C     C_R   0.226265 0.503907 0.891397 -0.208865
C31   C     C_R   0.188888 0.515495 0.004434 -0.142736
C32   C     C_R   0.296762 0.505915 0.050006 -0.224089
H1    H     H_    0.830893 0.382106 0.165648 0.151575
H2    H     H_    0.156096 0.130614 0.567484 0.166896
H3    H     H_    0.222422 0.868255 0.633023 0.213383
H4    H     H_    0.155207 0.917692 0.520658 0.184918
H5    H     H_    0.951077 0.415505 0.343806 0.137206
H6    H     H_    0.202777 0.414066 0.344056 0.151466
H7    H     H_    0.057826 0.737011 0.583241 0.170443
H8    H     H_    0.755255 0.651118 0.727449 0.211514
H9    H     H_    0.801517 0.291243 0.821269 0.146480
H10   H     H_    0.813679 0.730751 0.590891 0.195895
H11   H     H_    0.885902 0.318285 0.974597 0.145269
H12   H     H_    0.143241 0.517700 0.856721 0.147973
H13   H     H_    0.743154 0.871637 0.413826 0.170024
N1    N     N_R   0.856940 0.500860 0.500710 -0.100056
N2    N     N_R   0.142580 0.500820 0.500710 -0.109603
O1    O     O_R   0.385310 0.683210 0.499990 -0.610252
O2    O     O_R   0.614650 0.683240 0.500000 -0.621413
O3    O     O_R   0.328390 0.499940 0.653610 -0.616261
O4    O     O_R   0.557730 0.499980 0.653620 -0.606689
O5    O     O_R   0.385350 0.316760 0.500000 -0.606892
O6    O     O_R   0.614690 0.316790 0.500010 -0.620597
O7    O     O_R   0.442270 0.500020 0.346380 -0.620046
O8    O     O_R   0.671610 0.500060 0.346390 -0.625587
Zn1   Zn    Zn3+2 0.346870 0.499980 0.499990 0.921598
Zn2   Zn    Zn3+2 0.653130 0.500020 0.500010 0.920192
C33   C     C_3   0.797535 0.113403 0.397785 -0.367656
C34   C     C_3   0.860474 0.121651 0.488739 -0.839439
H14   H     H_    0.968091 0.165178 0.455999 0.234395
H15   H     H_    0.788043 0.178748 0.558790 0.271444
H16   H     H_    0.875131 0.026755 0.518923 0.241564
H17   H     H_    0.873095 0.053702 0.330848 0.183595
H18   H     H_    0.796110 0.205497 0.358807 0.210086
C35   C     C_3   0.227848 0.087263 0.709751 -0.394485
C36   C     C_3   0.228302 0.222718 0.742705 -0.824934
H19   H     H_    0.340766 0.255146 0.709589 0.248166
H20   H     H_    0.155979 0.282527 0.712932 0.263466
H21   H     H_    0.189908 0.230245 0.833564 0.236984
H22   H     H_    0.124540 0.048014 0.765215 0.208406
H23   H     H_    0.318802 0.034346 0.723601 0.217694
C37   C     C_3   0.006432 0.673875 0.755332 -0.350194
C38   C     C_3   0.934636 0.793593 0.816665 -0.898331
H24   H     H_    0.970718 0.876314 0.763402 0.259156
H25   H     H_    0.814524 0.790054 0.844229 0.265462
H26   H     H_    0.964557 0.804013 0.890369 0.247541
H27   H     H_    0.954990 0.592298 0.805855 0.211458
H28   H     H_    0.123410 0.673241 0.743803 0.218690
C39   C     C_3   0.466487 0.662208 0.152571 -0.435097
C40   C     C_3   0.564403 0.765458 0.162564 -0.857207
H29   H     H_    0.603396 0.746816 0.231256 0.246472
H30   H     H_    0.659363 0.773331 0.084867 0.261913
H31   H     H_    0.502196 0.856060 0.179170 0.249384
H32   H     H_    0.422274 0.695087 0.089660 0.218796
H33   H     H_    0.373559 0.654002 0.231242 0.226164
H34   H     H_    0.264585 0.517173 0.137885 0.133504
H35   H     H_    0.077226 0.536504 0.056257 0.149401
H36   H     H_    0.619160 0.325768 0.739622 0.167185

loop_
_geom_bond_atom_site_label_1
_geom_bond_atom_site_label_2
_ccdc_geom_bond_type
C36   H20   S    
C27   C29   S    
C38   H24   S    
C4    C8    A    
C27   O7    A    
C18   C35   S    
C11   C19   S    
C8    C29   A    
C3    C7    A    
C19   H4    S    
C39   H32   S    
C27   O8    A    
C36   H21   S    
C15   C16   A    
C22   H6    S    
O2    Zn2   S    
C2    C32   A    
C18   C19   S    
C37   H28   S    
C7    H36   S    
C16   C17   A    
C6    H9    S    
C8    C39   S    
O4    Zn2   S    
C9    C29   A    
C37   C38   S    
C36   H19   S    
C34   H14   S    
C13   C14   A    
C9    H1    S    
C38   H25   S    
C30   H12   S    
C40   H31   S    
C23   O6    A    
C14   H13   S    
C33   H18   S    
O7    Zn1   S    
C34   H15   S    
C31   H35   S    
C20   C24   A    
C24   C25   S    
C40   H30   S    
O6    Zn2   S    
C40   H29   S    
C25   C26   S    
C35   H23   S    
O3    Zn1   S    
C2    C4    A    
C37   H27   S    
C5    C28   A    
C10   C30   A    
C31   C32   A    
C30   C31   A    
C32   H34   S    
C17   C18   S    
C25   C37   S    
C18   H2    S    
C10   C12   S    
C16   C23   S    
O8    Zn2   S    
N1    Zn2   S    
C15   C33   S    
C1    C13   S    
C39   H33   S    
C12   O4    A    
C26   H10   S    
C21   N1    A    
C33   H17   S    
O1    Zn1   S    
C11   C17   A    
C34   H16   S    
C24   N2    A    
C4    C5    A    
C12   O3    A    
C1    O1    A    
C6    C7    A    
C28   H11   S    
C2    C3    A    
C33   C34   S    
C3    C10   A    
C19   H3    S    
C25   H7    S    
C11   C13   A    
C26   H8    S    
C23   O5    A    
C5    C6    A    
C20   C26   S    
C38   H26   S    
C22   N2    A    
C39   C40   S    
C21   H5    S    
C35   C36   S    
C14   C15   A    
C35   H22   S    
C21   C22   A    
C1    O2    A    
C20   N1    A    
O5    Zn1   S    
C9    C28   A    
N2    Zn1   S    
