data_mof_unit_56267.cif
_audit_creation_date              2012-12-10T18:58:10-0500
_audit_creation_method            fapswitch 2.2
_symmetry_space_group_name_H-M    P1
_symmetry_Int_Tables_number       1
_space_group_crystal_system       triclinic
_cell_length_a                    11.045257
_cell_length_b                    10.82995
_cell_length_c                    9.600508
_cell_angle_alpha                 90.131464
_cell_angle_beta                  102.885068
_cell_angle_gamma                 90.225585
_cell_volume                      1119.47645264

loop_
_atom_site_label
_atom_site_type_symbol
_atom_type_description
_atom_site_fract_x
_atom_site_fract_y
_atom_site_fract_z
_atom_type_partial_charge
C1    C     C_R   0.500306 0.262710 0.499689 0.795397
C2    C     C_R   0.506266 0.129700 0.498184 -0.087905
C3    C     C_R   0.461456 0.064280 0.370581 -0.213329
C4    C     C_R   0.458943 0.935749 0.371780 -0.224128
C5    C     C_R   0.504312 0.871214 0.499274 -0.090801
C6    C     C_R   0.561299 0.937471 0.621379 0.111654
C7    C     C_3   0.538579 0.933362 0.768670 -0.490266
C8    C     C_3   0.539535 0.073260 0.768256 -0.451629
C9    C     C_R   0.607104 0.516799 0.100188 0.229301
C10   C     C_R   0.395101 0.473776 0.047216 -0.094313
C11   C     C_R   0.394670 0.475544 0.898920 -0.077312
C12   C     C_R   0.262846 0.499022 0.441715 0.860853
C13   C     C_R   0.609148 0.507731 0.954473 0.151835
C14   C     C_3   0.707824 0.604915 0.967483 0.011705
C15   C     C_3   0.695456 0.624967 0.121322 -0.121110
C16   C     C_R   0.499668 0.737568 0.499967 0.790660
C17   C     C_R   0.737156 0.498901 0.558180 0.859857
C18   C     C_2   0.127584 0.494402 0.408897 -0.364296
C19   C     C_2   0.067401 0.492779 0.515225 -0.150466
C20   C     C_2   0.872476 0.497862 0.590539 -0.375705
C21   C     C_2   0.932711 0.486268 0.485065 -0.151531
C22   C     C_R   0.561617 0.064906 0.620941 0.118543
Cu1   Cu    Cu3+1 0.499990 0.499980 0.640670 0.928446
Cu2   Cu    Cu3+1 0.500010 0.500020 0.359330 0.931571
H1    H     H_    0.882695 0.472885 0.375171 0.176320
H2    H     H_    0.620243 0.113927 0.845175 0.195493
H3    H     H_    0.309519 0.453789 0.079573 0.141012
H4    H     H_    0.308548 0.457291 0.822977 0.136489
H5    H     H_    0.681243 0.682585 0.891372 0.171420
H6    H     H_    0.782457 0.605321 0.201295 0.154457
H7    H     H_    0.117563 0.497581 0.626256 0.170858
H8    H     H_    0.923628 0.508429 0.700334 0.152337
H9    H     H_    0.077054 0.491160 0.297902 0.156441
H10   H     H_    0.421474 0.112035 0.272126 0.160781
H11   H     H_    0.414716 0.887496 0.275313 0.164219
H12   H     H_    0.446030 0.893679 0.770784 0.209704
H13   H     H_    0.618873 0.894024 0.846184 0.199094
H14   H     H_    0.447921 0.114181 0.771158 0.206132
N1    N     N_R   0.500780 0.500930 0.148120 -0.180031
N2    N     N_R   0.500790 0.500890 0.852210 -0.197719
O1    O     O_R   0.500000 0.319640 0.618810 -0.577705
O2    O     O_R   0.500010 0.319680 0.381230 -0.581878
O3    O     O_R   0.320680 0.500000 0.575130 -0.586925
O4    O     O_R   0.320690 0.500040 0.337550 -0.592650
O5    O     O_R   0.499990 0.680320 0.618770 -0.583535
O6    O     O_R   0.500000 0.680360 0.381190 -0.586582
O7    O     O_R   0.679310 0.499960 0.662450 -0.589898
O8    O     O_R   0.679320 0.500000 0.424870 -0.584402
N3    N     N_2   0.828059 0.552184 0.965197 -0.436561
H15   H     H_    0.827360 0.479824 0.895295 0.273806
C23   C     C_3   0.926362 0.641165 0.967365 -0.743075
H16   H     H_    0.016184 0.592241 0.978683 0.224004
H17   H     H_    0.933919 0.705380 0.059360 0.239448
H18   H     H_    0.907758 0.694691 0.866277 0.228183
C24   C     C_3   0.643608 0.754090 0.144213 -0.359986
C25   C     C_3   0.509923 0.778180 0.062109 -0.817507
H19   H     H_    0.493827 0.744402 0.950694 0.245049
H20   H     H_    0.442088 0.731917 0.113875 0.271371
H21   H     H_    0.491497 0.878924 0.059989 0.229530
H22   H     H_    0.651139 0.769699 0.259829 0.230458
H23   H     H_    0.705235 0.824235 0.111023 0.184820

loop_
_geom_bond_atom_site_label_1
_geom_bond_atom_site_label_2
_ccdc_geom_bond_type
C16   O5    A    
C2    C22   A    
C8    C22   S    
C24   C25   S    
C17   O8    A    
C6    C7    S    
Cu1   O5    S    
C8    H2    S    
C7    H12   S    
C23   H17   S    
Cu1   O1    S    
C25   H21   S    
Cu1   Cu2   S    
C23   H18   S    
Cu2   O6    S    
C19   H7    S    
Cu2   N1    S    
C2    C3    A    
C7    H13   S    
C4    H11   S    
C10   H3    S    
C7    C8    S    
C12   O4    A    
C13   C14   S    
C25   H19   S    
C23   H16   S    
C11   N2    A    
C8    H14   S    
C11   H4    S    
C24   H23   S    
C1    O1    A    
C19   C21   S    
C25   H20   S    
C18   C19   D    
C12   O3    A    
C9    C15   S    
C5    C6    A    
Cu2   O4    S    
C18   H9    S    
C14   N3    S    
Cu1   O7    S    
C10   C11   A    
C14   H5    S    
C12   C18   S    
C3    C4    A    
C6    C22   A    
C1    O2    A    
C9    N1    A    
C17   C20   S    
Cu2   O2    S    
C20   C21   D    
C15   H6    S    
C1    C2    S    
C20   H8    S    
C16   O6    A    
N3    H15   S    
Cu1   N2    S    
C9    C13   A    
C14   C15   S    
C4    C5    A    
C13   N2    A    
C21   H1    S    
C3    H10   S    
N3    C23   S    
C24   H22   S    
Cu1   O3    S    
C17   O7    A    
C15   C24   S    
C10   N1    A    
C5    C16   S    
Cu2   O8    S    
