data_mof_unit_35486.cif
_audit_creation_date              2012-10-26T20:01:52-0400
_audit_creation_method            fapswitch 2.2
_symmetry_space_group_name_H-M    P1
_symmetry_Int_Tables_number       1
_space_group_crystal_system       triclinic
_cell_length_a                    11.692578
_cell_length_b                    10.88548
_cell_length_c                    9.666544
_cell_angle_alpha                 89.641999
_cell_angle_beta                  89.036692
_cell_angle_gamma                 93.38434
_cell_volume                      1227.9995528

loop_
_atom_site_label
_atom_site_type_symbol
_atom_type_description
_atom_site_fract_x
_atom_site_fract_y
_atom_site_fract_z
_atom_type_partial_charge
C1    C     C_R   0.508542 0.263253 0.501233 0.557350
C2    C     C_R   0.478040 0.872029 0.495799 0.014066
C3    C     C_R   0.676635 0.628874 0.142568 -0.115794
C4    C     C_R   0.284211 0.497652 0.500758 0.570133
C5    C     C_R   0.780783 0.657048 0.076922 -0.185981
C6    C     C_R   0.788509 0.647067 0.934745 0.244965
C7    C     C_R   0.686042 0.631856 0.860854 0.328914
C8    C     C_R   0.588513 0.565387 0.924548 0.109828
C9    C     C_R   0.587006 0.564108 0.073559 0.108566
C10   C     C_R   0.418909 0.435836 0.076938 0.031677
C11   C     C_R   0.418847 0.434350 0.930302 0.202839
C12   C     C_R   0.467507 0.054650 0.876745 -0.083231
C13   C     C_R   0.490459 0.737168 0.499040 0.580608
C14   C     C_R   0.715675 0.499841 0.499095 0.553962
C15   C     C_1   0.162266 0.496620 0.501773 0.024209
C16   C     C_1   0.059711 0.496799 0.500685 -0.023224
C17   C     C_1   0.939908 0.497816 0.498631 -0.035511
C18   C     C_1   0.837417 0.498851 0.497733 -0.005898
C19   C     C_R   0.528370 0.106825 0.763817 0.302193
C20   C     C_3   0.958332 0.576427 0.869141 -0.076879
C21   C     C_3   0.691999 0.822448 0.758514 -0.086478
C22   C     C_3   0.717617 0.172081 0.748439 -0.109579
C23   C     C_R   0.393044 0.951771 0.858946 -0.115400
C24   C     C_R   0.390327 0.890350 0.732727 0.108553
C25   C     C_R   0.458622 0.937349 0.619812 -0.040230
C26   C     C_R   0.505417 0.059384 0.629284 -0.014951
C27   C     C_R   0.517647 0.129169 0.504823 -0.027291
C28   C     C_R   0.517355 0.068080 0.378583 -0.134633
C29   C     C_R   0.503460 0.941140 0.373098 0.066752
Cu1   Cu    Cu3+1 0.499990 0.499990 0.640660 1.088668
Cu2   Cu    Cu3+1 0.500010 0.500010 0.359340 0.973462
H1    H     H_    0.528177 0.119382 0.282369 0.165988
H2    H     H_    0.625741 0.851968 0.833070 0.128042
H3    H     H_    0.778670 0.853603 0.793810 0.164594
H4    H     H_    0.680732 0.869919 0.658487 0.118358
H5    H     H_    0.725168 0.160497 0.634590 0.107921
H6    H     H_    0.742025 0.087688 0.803397 0.104966
H7    H     H_    0.779826 0.248149 0.777252 0.145063
H8    H     H_    0.475301 0.096803 0.977545 0.163905
H9    H     H_    0.337549 0.919278 0.943824 0.182409
H10   H     H_    0.353062 0.382322 0.134483 0.137986
H11   H     H_    0.668309 0.661687 0.245819 0.212022
H12   H     H_    0.853239 0.693928 0.135017 0.152776
H13   H     H_    0.913037 0.493805 0.823285 0.113762
H14   H     H_    0.985274 0.555944 0.976316 0.126620
H15   H     H_    0.036882 0.597532 0.805795 0.187405
I1    I     I_    0.288352 0.315598 0.845383 -0.355565
I2    I     I_    0.250309 0.761157 0.709978 -0.338292
I3    I     I_    0.512751 0.872526 0.169126 -0.464436
N1    N     N_R   0.501070 0.501210 0.147910 -0.242635
N2    N     N_R   0.501110 0.501290 0.852040 -0.211404
O1    O     O_R   0.499990 0.319640 0.618810 -0.429160
O2    O     O_3   0.681060 0.693913 0.736599 -0.504532
O3    O     O_3   0.606976 0.204067 0.789136 -0.538505
O4    O     O_R   0.500000 0.319660 0.381240 -0.522312
O5    O     O_R   0.337190 0.500000 0.618790 -0.461100
O6    O     O_R   0.337200 0.500030 0.381210 -0.501075
O7    O     O_R   0.500000 0.680340 0.618760 -0.440607
O8    O     O_R   0.500010 0.680360 0.381190 -0.486191
O9    O     O_R   0.662800 0.499970 0.618790 -0.445101
O10   O     O_R   0.662810 0.500000 0.381210 -0.534298
O11   O     O_3   0.890532 0.679239 0.866259 -0.548274

loop_
_geom_bond_atom_site_label_1
_geom_bond_atom_site_label_2
_ccdc_geom_bond_type
C4    O6    A    
C23   C24   A    
C19   C26   A    
C3    H11   S    
C6    C7    A    
C3    C9    A    
C22   H5    S    
Cu2   O10   S    
C11   I1    S    
C20   H14   S    
C12   C23   A    
Cu1   N2    S    
C6    O11   S    
C12   H8    S    
C17   C18   T    
C5    H12   S    
C7    C8    A    
C22   O3    S    
C10   N1    A    
C29   I3    S    
C4    O5    A    
C10   H10   S    
C21   O2    S    
C14   O10   A    
C8    N2    A    
Cu2   O6    S    
C26   C27   A    
C5    C6    A    
C4    C15   S    
C2    C29   A    
C13   O8    A    
Cu1   O7    S    
C12   C19   A    
C28   C29   A    
C20   H13   S    
C2    C25   A    
C11   N2    A    
C1    O4    A    
Cu1   Cu2   S    
C1    O1    A    
C21   H4    S    
C21   H2    S    
C10   C11   A    
C7    O2    S    
Cu2   N1    S    
C23   H9    S    
C24   I2    S    
C28   H1    S    
C14   O9    A    
C24   C25   A    
C19   O3    S    
Cu2   O8    S    
C27   C28   A    
C1    C27   S    
C2    C13   S    
C14   C18   S    
C8    C9    A    
Cu1   O1    S    
C13   O7    A    
Cu2   O4    S    
C25   C26   A    
C22   H6    S    
Cu1   O5    S    
C21   H3    S    
C20   H15   S    
C9    N1    A    
C15   C16   T    
C16   C17   S    
C20   O11   S    
C3    C5    A    
C22   H7    S    
Cu1   O9    S    
