data_mof_unit_21725.cif
_audit_creation_date              2013-03-05T16:21:58-0500
_audit_creation_method            fapswitch 2.2
_symmetry_space_group_name_H-M    P1
_symmetry_Int_Tables_number       1
_space_group_crystal_system       triclinic
_cell_length_a                    23.215878
_cell_length_b                    29.449369
_cell_length_c                    8.469278
_cell_angle_alpha                 89.990058
_cell_angle_beta                  93.415031
_cell_angle_gamma                 90.026309
_cell_volume                      5780.10269196

loop_
_atom_site_label
_atom_site_type_symbol
_atom_site_description
_atom_site_fract_x
_atom_site_fract_y
_atom_site_fract_z
_atom_type_partial_charge
P1    P     P_3+3 0.880180 0.450420 0.058010 0.501365
P2    P     P_3+3 0.880180 0.549580 0.558010 0.512768
P3    P     P_3+3 0.380180 0.950420 0.058010 0.512627
P4    P     P_3+3 0.380180 0.049580 0.558010 0.504211
O1    O     O_2   0.885810 0.435270 0.885040 -0.331923
O2    O     O_2   0.885810 0.564730 0.385040 -0.379886
O3    O     O_2   0.385810 0.935270 0.885040 -0.381404
O4    O     O_2   0.385810 0.064730 0.385040 -0.330093
O5    O     O_3   0.933490 0.477290 0.133000 -0.331985
O6    O     O_3   0.933490 0.522710 0.633000 -0.319175
O7    O     O_3   0.433490 0.977290 0.133000 -0.318259
O8    O     O_3   0.433490 0.022710 0.633000 -0.332947
O9    O     O_3   0.980190 0.395350 0.639000 -0.311016
O10   O     O_3   0.980190 0.604650 0.139000 -0.306046
O11   O     O_3   0.480190 0.895350 0.639000 -0.305430
O12   O     O_3   0.480190 0.104650 0.139000 -0.337123
O13   O     O_2   0.888824 0.358150 0.757326 -0.353084
O14   O     O_2   0.889214 0.642288 0.257146 -0.387410
O15   O     O_2   0.389250 0.857688 0.757263 -0.387968
O16   O     O_2   0.389811 0.143883 0.258748 -0.360511
O17   O     O_3   0.825023 0.490284 0.022347 -0.624305
O18   O     O_3   0.825588 0.509156 0.527679 -0.555650
O19   O     O_3   0.325635 0.990866 0.027868 -0.555325
O20   O     O_3   0.325277 0.009538 0.520928 -0.623664
O21   O     O_3   0.964648 0.302547 0.657590 -0.466514
O22   O     O_3   0.964870 0.697489 0.154172 -0.458651
O23   O     O_3   0.464834 0.802508 0.654293 -0.458406
O24   O     O_3   0.462221 0.198933 0.136986 -0.519830
H1    H     H_    0.017358 0.324918 0.478299 0.027102
H2    H     H_    0.016911 0.674164 0.974449 0.030531
H3    H     H_    0.516852 0.825807 0.474427 0.030900
H4    H     H_    0.544456 0.172006 0.168594 0.119473
C1    C     C_3   0.054518 0.267451 0.598389 -0.045469
C2    C     C_3   0.056151 0.730568 0.096000 -0.054198
C3    C     C_3   0.556014 0.769375 0.595911 -0.053987
C4    C     C_3   0.548438 0.240804 0.088870 -0.100881
H5    H     H_    0.080842 0.289585 0.681044 0.141039
H6    H     H_    0.081476 0.707817 0.178761 0.144575
H7    H     H_    0.581426 0.792117 0.678545 0.144383
H8    H     H_    0.544394 0.257560 0.204891 0.136164
P5    P     P_3+3 0.119600 0.450040 0.631910 0.447618
P6    P     P_3+3 0.119600 0.549960 0.131910 0.448322
P7    P     P_3+3 0.619600 0.950040 0.631910 0.449458
P8    P     P_3+3 0.619600 0.049960 0.131910 0.443880
P9    P     P_3+3 0.069949 0.351291 0.071027 0.459007
P10   P     P_3+3 0.070693 0.648350 0.570435 0.461183
P11   P     P_3+3 0.570620 0.851625 0.070510 0.461172
P12   P     P_3+3 0.572941 0.147075 0.571771 0.428833
O25   O     O_2   0.113920 0.434910 0.804950 -0.382687
O26   O     O_2   0.113920 0.565090 0.304950 -0.383245
O27   O     O_2   0.613920 0.934910 0.804950 -0.383461
O28   O     O_2   0.613920 0.065090 0.304950 -0.374004
O29   O     O_3   0.019410 0.395290 0.051170 -0.378088
O30   O     O_3   0.019410 0.604710 0.551170 -0.378317
O31   O     O_3   0.519410 0.895290 0.051170 -0.378292
O32   O     O_3   0.519410 0.104710 0.551170 -0.378668
O33   O     O_2   0.109020 0.355434 0.930436 -0.402323
O34   O     O_2   0.109268 0.644254 0.428697 -0.399351
O35   O     O_2   0.609248 0.855743 0.928881 -0.399375
O36   O     O_2   0.615958 0.138160 0.443843 -0.410547
O37   O     O_3   0.179867 0.486138 0.633050 -0.608077
O38   O     O_3   0.179353 0.513336 0.132589 -0.607914
O39   O     O_3   0.679154 0.986882 0.632359 -0.607397
O40   O     O_3   0.679959 0.013991 0.133571 -0.606637
O41   O     O_3   0.032490 0.300145 0.036901 -0.498663
O42   O     O_3   0.033944 0.699883 0.538468 -0.498134
O43   O     O_3   0.533807 0.800106 0.038356 -0.498057
O44   O     O_3   0.544666 0.200136 0.516466 -0.562524
C5    C     C_3   0.977369 0.304159 0.096381 0.344600
C6    C     C_3   0.978252 0.695740 0.594299 0.333678
C7    C     C_3   0.478139 0.804211 0.094328 0.333984
C8    C     C_3   0.487235 0.203558 0.557420 0.216675
H9    H     H_    0.948929 0.324974 0.014901 0.154355
H10   H     H_    0.950329 0.675297 0.510301 0.161310
H11   H     H_    0.450194 0.824636 0.010371 0.161337
H12   H     H_    0.459830 0.179252 0.486301 0.166841
H13   H     H_    0.979532 0.320769 0.214305 -0.069916
H14   H     H_    0.979410 0.678675 0.711386 -0.053738
H15   H     H_    0.479327 0.821275 0.211401 -0.053753
H16   H     H_    0.483401 0.196906 0.685752 0.054558
C9    C     C_3   0.950966 0.256959 0.115469 -0.109309
C10   C     C_3   0.951878 0.742905 0.613864 -0.111389
C11   C     C_3   0.451777 0.757026 0.114000 -0.111690
C12   C     C_3   0.467311 0.252026 0.519789 -0.050897
H17   H     H_    0.983994 0.233677 0.171117 0.154208
H18   H     H_    0.984708 0.766002 0.671531 0.156926
H19   H     H_    0.484601 0.733973 0.171838 0.156527
H20   H     H_    0.478819 0.261544 0.398939 0.150917
C13   C     C_3   0.186660 0.486028 0.267494 0.235850
C14   C     C_3   0.186158 0.514524 0.765384 0.232964
C15   C     C_3   0.685684 0.985102 0.264669 0.234822
C16   C     C_3   0.686658 0.013929 0.767836 0.238723
H21   H     H_    0.153124 0.491240 0.352104 0.136884
H22   H     H_    0.152415 0.509550 0.849643 0.135877
H23   H     H_    0.652037 0.990197 0.349103 0.136169
H24   H     H_    0.652874 0.008922 0.851897 0.136673
H25   H     H_    0.184374 0.450010 0.229174 0.031035
H26   H     H_    0.183476 0.550221 0.723687 0.031160
H27   H     H_    0.682407 0.949579 0.221459 0.030086
H28   H     H_    0.684931 0.050026 0.730166 0.034861
C17   C     C_3   0.246191 0.494578 0.349344 -0.614004
C18   C     C_3   0.245472 0.507003 0.849790 -0.610112
C19   C     C_3   0.745084 0.991785 0.349633 -0.611943
C20   C     C_3   0.745953 0.004744 0.850143 -0.619697
H29   H     H_    0.246543 0.528640 0.405844 0.189504
H30   H     H_    0.245879 0.473356 0.909344 0.193089
H31   H     H_    0.745987 0.025199 0.410685 0.192932
H32   H     H_    0.745455 0.970814 0.907448 0.189118
H33   H     H_    0.254687 0.468451 0.442143 0.195609
H34   H     H_    0.253280 0.533878 0.940339 0.194977
H35   H     H_    0.752408 0.964535 0.439078 0.194575
H36   H     H_    0.755018 0.030952 0.942347 0.195966
Ba1   Ba    Ba6+2 0.999920 0.467660 0.844980 1.622820
Ba2   Ba    Ba6+2 0.999920 0.532340 0.344980 1.616160
Ba3   Ba    Ba6+2 0.499920 0.967660 0.844980 1.615871
Ba4   Ba    Ba6+2 0.499920 0.032340 0.344980 1.611059
C21   C     C_3   0.792420 0.496076 0.155121 0.353260
C22   C     C_3   0.788286 0.508340 0.652664 0.412499
C23   C     C_3   0.287923 0.991274 0.151934 0.413594
C24   C     C_3   0.293132 0.002638 0.653924 0.348562
H37   H     H_    0.818279 0.488635 0.265350 0.123008
H38   H     H_    0.808534 0.522131 0.764290 0.064885
H39   H     H_    0.307972 0.977460 0.263750 0.064402
H40   H     H_    0.319378 0.009292 0.764043 0.124319
C25   C     C_3   0.739183 0.465033 0.145082 -0.860991
C26   C     C_3   0.733366 0.535223 0.608288 -1.043476
C27   C     C_3   0.233309 0.964120 0.106102 -1.042360
C28   C     C_3   0.239757 0.033520 0.648011 -0.849660
H41   H     H_    0.712656 0.471310 0.033771 0.254284
H42   H     H_    0.714267 0.524265 0.491091 0.291577
H43   H     H_    0.214977 0.974534 0.987512 0.289746
H44   H     H_    0.213455 0.028585 0.535479 0.254149
H45   H     H_    0.712397 0.471186 0.247346 0.254518
H46   H     H_    0.701072 0.530200 0.698484 0.248560
H47   H     H_    0.200323 0.969418 0.194194 0.250710
H48   H     H_    0.212770 0.025925 0.748718 0.254864
H49   H     H_    0.751919 0.428982 0.149692 0.217561
H50   H     H_    0.742781 0.571901 0.604433 0.258638
H51   H     H_    0.242829 0.927450 0.104785 0.257359
H52   H     H_    0.252264 0.069532 0.658714 0.215271
H53   H     H_    0.912567 0.423406 0.379183 0.209452
H54   H     H_    0.911789 0.576419 0.879214 0.212477
H55   H     H_    0.411610 0.923662 0.379483 0.212406
H56   H     H_    0.411912 0.076172 0.878121 0.212338
O45   O     O_3   0.066460 0.522600 0.056690 -0.383243
O46   O     O_3   0.066460 0.477400 0.556690 -0.383452
O47   O     O_3   0.566460 0.022600 0.056690 -0.385787
O48   O     O_3   0.566460 0.977400 0.556690 -0.382130
P13   P     P_3+3 0.927498 0.646634 0.115498 0.505897
P14   P     P_3+3 0.927509 0.353357 0.616636 0.538951
P15   P     P_3+3 0.427002 0.146435 0.113796 0.517644
P16   P     P_3+3 0.427491 0.853350 0.615562 0.505732
C29   C     C_3   0.001248 0.293583 0.534665 0.234031
C30   C     C_3   0.001932 0.705729 0.031606 0.244916
C31   C     C_3   0.501831 0.794247 0.531630 0.244972
C32   C     C_3   0.518619 0.194537 0.086218 0.258788
H57   H     H_    0.977384 0.272736 0.443567 0.051671
H58   H     H_    0.978912 0.727200 0.940816 0.052727
H59   H     H_    0.478734 0.772791 0.440915 0.052562
H60   H     H_    0.518313 0.180499 0.964119 0.036550
H61   H     H_    0.081045 0.258376 0.498306 0.045058
H62   H     H_    0.083206 0.738979 0.996278 0.049094
H63   H     H_    0.583003 0.760928 0.496116 0.048851
H64   H     H_    0.595177 0.235789 0.073859 0.073575
H65   H     H_    0.859013 0.278036 0.578029 0.216467
H66   H     H_    0.858206 0.721761 0.077051 0.218763
H67   H     H_    0.358227 0.778183 0.577100 0.218829
H68   H     H_    0.354289 0.219867 0.081847 0.204591
H69   H     H_    0.915068 0.259041 0.195700 0.067227
H70   H     H_    0.915487 0.740639 0.692478 0.069828
H71   H     H_    0.415358 0.759272 0.192503 0.069798
H72   H     H_    0.489976 0.275870 0.603864 0.187244
C33   C     C_R   0.759007 0.287516 0.001143 0.046837
C34   C     C_R   0.759555 0.712721 0.498108 0.043269
C35   C     C_R   0.259769 0.787160 0.997936 0.043652
C36   C     C_R   0.253397 0.209950 0.505628 0.059289
C37   C     C_R   0.765153 0.326663 0.908295 0.139777
C38   C     C_R   0.766595 0.673903 0.404390 0.140243
C39   C     C_R   0.266921 0.825937 0.904073 0.139838
C40   C     C_R   0.260744 0.171243 0.411409 0.142826
C41   C     C_R   0.738570 0.328491 0.755297 -0.161451
C42   C     C_R   0.741332 0.672511 0.249760 -0.129253
C43   C     C_R   0.241892 0.827227 0.749189 -0.129252
C44   C     C_R   0.234019 0.169368 0.258546 -0.173883
C45   C     C_R   0.208512 0.791057 0.689323 -0.171714
C46   C     C_R   0.200884 0.205620 0.198573 -0.184218
C47   C     C_R   0.706050 0.291997 0.694714 -0.160466
C48   C     C_R   0.707994 0.708698 0.189863 -0.172602
C49   C     C_R   0.199355 0.752877 0.783374 0.111725
C50   C     C_R   0.193215 0.244351 0.290984 0.121273
C51   C     C_R   0.698417 0.253289 0.787296 0.137106
C52   C     C_R   0.699033 0.746957 0.283694 0.112129
C53   C     C_R   0.225572 0.750508 0.937773 0.031989
C54   C     C_R   0.219516 0.246734 0.445236 0.035075
C55   C     C_R   0.725018 0.250789 0.941091 0.026682
C56   C     C_R   0.725356 0.749368 0.437962 0.031971
C57   C     C_R   0.163770 0.717530 0.725228 -0.223561
C58   C     C_R   0.159166 0.280322 0.231058 -0.237413
C59   C     C_R   0.663565 0.217672 0.728640 -0.177625
C60   C     C_R   0.663503 0.782329 0.225516 -0.224024
C61   C     C_R   0.152866 0.679403 0.819218 -0.004504
C62   C     C_R   0.149769 0.319103 0.323163 -0.002543
C63   C     C_R   0.652580 0.179634 0.822804 -0.000024
C64   C     C_R   0.652719 0.820502 0.319382 -0.003849
C65   C     C_R   0.181012 0.676006 0.972882 0.020223
C66   C     C_R   0.177640 0.322351 0.477163 0.017632
C67   C     C_R   0.680932 0.176129 0.975941 0.009529
C68   C     C_R   0.680911 0.823912 0.472986 0.021135
C69   C     C_R   0.217273 0.711815 0.031856 0.008168
C70   C     C_R   0.212377 0.285882 0.537967 0.003328
C71   C     C_R   0.717333 0.211857 0.034562 0.004638
C72   C     C_R   0.717144 0.788090 0.531957 0.008331
C73   C     C_R   0.113744 0.645089 0.765230 0.098303
C74   C     C_R   0.112309 0.354200 0.266950 0.100979
C75   C     C_R   0.613411 0.145366 0.769256 0.133422
C76   C     C_R   0.613632 0.854831 0.265395 0.098278
C77   C     C_R   0.103610 0.608059 0.865192 -0.502611
C78   C     C_R   0.103207 0.391751 0.365501 -0.500455
C79   C     C_R   0.603193 0.108379 0.868397 -0.518314
C80   C     C_R   0.603521 0.891853 0.365378 -0.502054
C81   C     C_R   0.132614 0.603103 0.014950 0.201288
C82   C     C_R   0.131900 0.396527 0.515804 0.202174
C83   C     C_R   0.632494 0.103249 0.017265 0.185738
C84   C     C_R   0.632614 0.896861 0.515000 0.200153
C85   C     C_R   0.172817 0.637160 0.068159 -0.027900
C86   C     C_R   0.170803 0.361750 0.570749 -0.025907
C87   C     C_R   0.672987 0.137144 0.070559 -0.032315
C88   C     C_R   0.672780 0.862778 0.568223 -0.028441
C89   C     C_R   0.786135 0.285399 0.154082 0.009836
C90   C     C_R   0.786108 0.714615 0.651898 0.012457
C91   C     C_R   0.286229 0.785301 0.151837 0.012398
C92   C     C_R   0.280522 0.212073 0.658711 0.039530
C93   C     C_R   0.820903 0.322194 0.213004 0.027046
C94   C     C_R   0.820781 0.677800 0.711349 0.027357
C95   C     C_R   0.320866 0.822140 0.211324 0.027353
C96   C     C_R   0.316835 0.175962 0.715881 0.032341
C97   C     C_R   0.828131 0.361368 0.117380 -0.066886
C98   C     C_R   0.828201 0.638680 0.615781 -0.064706
C99   C     C_R   0.328308 0.861261 0.115719 -0.064854
C100  C     C_R   0.325576 0.137433 0.618478 -0.057213
C101  C     C_R   0.797827 0.363398 0.968663 -0.145282
C102  C     C_R   0.798797 0.637019 0.465612 -0.138624
C103  C     C_R   0.299011 0.862874 0.965385 -0.138609
C104  C     C_R   0.295314 0.135251 0.469590 -0.146101
H73   H     H_    0.742921 0.358057 0.681690 0.176944
H74   H     H_    0.747656 0.643583 0.174195 0.161593
H75   H     H_    0.248472 0.856030 0.673321 0.163524
H76   H     H_    0.238994 0.140052 0.184195 0.178612
H77   H     H_    0.189500 0.793109 0.569502 0.165371
H78   H     H_    0.181130 0.203298 0.079613 0.163360
H79   H     H_    0.686125 0.294357 0.575964 0.139591
H80   H     H_    0.688829 0.706587 0.070218 0.165244
H81   H     H_    0.144331 0.720481 0.606455 0.191802
H82   H     H_    0.139904 0.277405 0.112112 0.192464
H83   H     H_    0.644705 0.220499 0.609454 0.179476
H84   H     H_    0.643991 0.779352 0.106833 0.191876
H85   H     H_    0.798930 0.393597 0.898129 0.172199
H86   H     H_    0.799771 0.606821 0.394963 0.161851
H87   H     H_    0.299931 0.893082 0.894681 0.161080
H88   H     H_    0.298050 0.105559 0.397189 0.172134
C105  C     C_R   0.204496 0.633834 0.215075 -0.107487
C106  C     C_R   0.202503 0.364889 0.717670 -0.099783
C107  C     C_R   0.705365 0.133467 0.216319 -0.099416
C108  C     C_R   0.704436 0.866069 0.715183 -0.106301
C109  C     C_R   0.236875 0.670550 0.280722 0.014201
C110  C     C_R   0.233311 0.327622 0.785181 0.019916
C111  C     C_R   0.738040 0.170094 0.281956 0.014012
C112  C     C_R   0.736777 0.829337 0.780826 0.014606
C113  C     C_R   0.244113 0.709576 0.186169 0.035038
C114  C     C_R   0.239140 0.288075 0.692327 0.048548
C115  C     C_R   0.744658 0.209401 0.188139 0.031040
C116  C     C_R   0.744014 0.790329 0.686233 0.034789
C117  C     C_R   0.778874 0.246297 0.247386 0.023180
C118  C     C_R   0.778355 0.753514 0.745594 0.028700
C119  C     C_R   0.278452 0.746397 0.245555 0.028582
C120  C     C_R   0.272768 0.250971 0.752509 0.062339
C121  C     C_R   0.262167 0.669565 0.438389 -0.051991
C122  C     C_R   0.258669 0.328662 0.942761 -0.050646
C123  C     C_R   0.764075 0.168877 0.438920 -0.056019
C124  C     C_R   0.762007 0.830272 0.938569 -0.051366
C125  C     C_R   0.797802 0.205948 0.494456 -0.129058
C126  C     C_R   0.796210 0.793480 0.993850 -0.124355
C127  C     C_R   0.296344 0.706382 0.493744 -0.124545
C128  C     C_R   0.291916 0.291468 0.999230 -0.107998
C129  C     C_R   0.805650 0.244212 0.400377 0.061565
C130  C     C_R   0.804812 0.755511 0.899084 0.061120
C131  C     C_R   0.304899 0.744395 0.399055 0.061113
C132  C     C_R   0.299854 0.253206 0.905228 0.074585
C133  C     C_R   0.848502 0.319454 0.366871 -0.069137
C134  C     C_R   0.848124 0.680474 0.865684 -0.062133
C135  C     C_R   0.348154 0.819486 0.365723 -0.061914
C136  C     C_R   0.344781 0.178847 0.869370 -0.055673
C137  C     C_R   0.839728 0.280524 0.459146 -0.209164
C138  C     C_R   0.839122 0.719334 0.957906 -0.216812
C139  C     C_R   0.339170 0.780603 0.457927 -0.217398
C140  C     C_R   0.334908 0.217315 0.962966 -0.124364
C141  C     C_R   0.884073 0.355667 0.423763 0.166349
C142  C     C_R   0.883601 0.644231 0.923129 0.124212
C143  C     C_R   0.383571 0.855769 0.423244 0.123838
C144  C     C_R   0.381587 0.143118 0.924749 0.213413
C145  C     C_R   0.889281 0.394550 0.329757 -0.313917
C146  C     C_R   0.888661 0.605313 0.829515 -0.387717
C147  C     C_R   0.388577 0.894722 0.329691 -0.387082
C148  C     C_R   0.387802 0.104733 0.829698 -0.335461
C149  C     C_R   0.864242 0.397622 0.175179 0.133966
C150  C     C_R   0.863951 0.602320 0.674633 0.152347
C151  C     C_R   0.363959 0.897675 0.174698 0.153047
C152  C     C_R   0.363011 0.101849 0.675089 0.142160
H89   H     H_    0.204229 0.602347 0.278319 0.144741
H90   H     H_    0.203552 0.396682 0.779324 0.143904
H91   H     H_    0.705189 0.101811 0.278590 0.149358
H92   H     H_    0.704160 0.897540 0.778479 0.144689
H93   H     H_    0.817644 0.205395 0.613662 0.211705
H94   H     H_    0.815547 0.793906 0.113620 0.210310
H95   H     H_    0.315699 0.705933 0.613495 0.210298
H96   H     H_    0.311597 0.292070 0.118611 0.201919
C153  C     C_2   0.293531 0.491433 0.237003 0.725770
H97   H     H_    0.300371 0.460067 0.173825 0.045816
O49   O     O_2   0.324852 0.523961 0.216760 -0.547798
C154  C     C_2   0.293310 0.509443 0.738782 0.731279
H98   H     H_    0.300169 0.540267 0.672563 0.045890
O50   O     O_2   0.324999 0.476905 0.722919 -0.545170
C155  C     C_2   0.792973 0.989418 0.238782 0.732217
H99   H     H_    0.799535 0.958778 0.171391 0.046598
O51   O     O_2   0.825046 0.021818 0.224356 -0.548037
C156  C     C_2   0.793437 0.006896 0.737949 0.730925
H100  H     H_    0.801208 0.038028 0.674317 0.045507
O52   O     O_2   0.823817 0.973798 0.718294 -0.547422
C157  C     C_2   0.775016 0.545257 0.158265 0.515166
H101  H     H_    0.807568 0.571125 0.143927 0.014352
O53   O     O_2   0.725099 0.556816 0.173385 -0.596400
C158  C     C_2   0.771680 0.459906 0.680448 0.619221
H102  H     H_    0.742011 0.451863 0.770554 -0.060417
O54   O     O_2   0.790763 0.429316 0.601410 -0.607783
C159  C     C_2   0.270855 0.039572 0.179993 0.620748
H103  H     H_    0.240878 0.047324 0.269598 -0.061153
O55   O     O_2   0.289915 0.070378 0.101780 -0.610742
C160  C     C_2   0.275908 0.953383 0.653029 0.509417
H104  H     H_    0.308793 0.927712 0.640246 0.014952
O56   O     O_2   0.225784 0.941571 0.662933 -0.594448
C161  C     C_2   0.062203 0.573470 0.810381 0.750675
H105  H     H_    0.074335 0.547409 0.729166 0.018841
O57   O     O_2   0.012731 0.575436 0.849528 -0.575904
C162  C     C_2   0.062932 0.426910 0.309049 0.748897
H106  H     H_    0.075982 0.452530 0.227360 0.018992
O58   O     O_2   0.013262 0.425799 0.347047 -0.576873
C163  C     C_2   0.562171 0.073641 0.812038 0.763003
H107  H     H_    0.574913 0.047512 0.731796 0.019125
O59   O     O_2   0.512462 0.075477 0.849215 -0.580705
C164  C     C_2   0.561977 0.926355 0.310822 0.750145
H108  H     H_    0.573947 0.952477 0.229564 0.019199
O60   O     O_2   0.512546 0.924254 0.350193 -0.576421
C165  C     C_2   0.251257 0.632248 0.551936 0.520226
H109  H     H_    0.217972 0.607129 0.527320 -0.006733
O61   O     O_2   0.278751 0.629804 0.679187 -0.580629
C166  C     C_2   0.249120 0.366683 0.054598 0.522966
H110  H     H_    0.216622 0.392350 0.028984 -0.005247
O62   O     O_2   0.276922 0.369195 0.181363 -0.580311
C167  C     C_2   0.754792 0.130927 0.551499 0.529323
H111  H     H_    0.723385 0.104499 0.525377 -0.002395
O63   O     O_2   0.781763 0.129237 0.679691 -0.579564
C168  C     C_2   0.750969 0.867485 0.052324 0.521270
H112  H     H_    0.717828 0.892678 0.027455 -0.007541
O64   O     O_2   0.778162 0.869739 0.180072 -0.581300
N1    N     N_R   0.038710 0.225910 0.678784 0.305951
O65   O     O_R   0.009683 0.194350 0.601568 -0.320309
O66   O     O_R   0.059509 0.217953 0.822137 -0.326480
N2    N     N_R   0.041865 0.772474 0.176415 0.307064
O67   O     O_R   0.014258 0.804724 0.099025 -0.314678
O68   O     O_R   0.062569 0.779879 0.320219 -0.316666
N3    N     N_R   0.541667 0.727491 0.676480 0.307063
O69   O     O_R   0.513948 0.695253 0.599256 -0.315493
O70   O     O_R   0.562423 0.720086 0.820234 -0.317378
N4    N     N_R   0.524064 0.270019 0.962924 0.266979
O71   O     O_R   0.557215 0.286467 0.858371 -0.404210
O72   O     O_R   0.470391 0.282770 0.961876 -0.317102
N5    N     N_R   0.928481 0.238669 0.964043 0.301498
O73   O     O_R   0.885331 0.258520 0.887238 -0.398811
O74   O     O_R   0.944684 0.198696 0.918956 -0.256588
N6    N     N_R   0.930311 0.761613 0.462211 0.302036
O75   O     O_R   0.947830 0.801279 0.417544 -0.252999
O76   O     O_R   0.886924 0.742414 0.384176 -0.396532
N7    N     N_R   0.430273 0.738263 0.962372 0.302144
O77   O     O_R   0.386942 0.757428 0.884066 -0.396581
O78   O     O_R   0.447779 0.698580 0.918005 -0.253708
N8    N     N_R   0.405242 0.256593 0.528331 0.242575
O79   O     O_R   0.384739 0.284999 0.628227 -0.341125
O80   O     O_R   0.371140 0.239652 0.416035 -0.404880

loop_
_geom_bond_atom_site_label_1
_geom_bond_atom_site_label_2
_geom_bond_distance
_ccdc_geom_bond_type
O25   Ba1   2.856403 S    
C34   C56   1.416687 A    
C117  C129  1.404688 A    
P5    O37   1.756372 S    
C119  C131  1.405506 A    
C41   C47   1.393401 A    
P7    O39   1.756915 S    
C110  C122  1.426543 A    
C107  C111  1.413215 A    
P9    O33   1.544016 D    
C125  H93   1.084583 S    
O5    Ba2   2.810468 S    
C105  H89   1.070999 S    
C30   H58   1.108076 S    
C2    H62   1.110026 S    
C41   H73   1.078971 S    
P13   C142  1.870866 S    
C36   C92   1.408577 A    
C81   C85   1.424559 A    
C100  C104  1.407913 A    
C142  C146  1.402685 A    
C48   H80   1.083925 S    
C93   C97   1.424994 A    
O17   C21   1.402872 S    
C133  C137  1.408906 A    
C64   C68   1.424568 A    
C11   N7    1.458524 S    
C11   H71   1.108310 S    
C6    H10   1.110680 S    
P12   O36   1.539300 D    
C156  H100  1.083902 S    
C9    H69   1.107977 S    
P4    O8    1.571102 S    
P6    C81   1.885863 S    
O8    Ba3   2.810926 S    
O1    Ba1   2.854413 S    
C128  H96   1.084585 S    
C71   C115  1.414622 A    
C44   H76   1.078957 S    
P1    Ba1   3.440425 S    
C84   C88   1.425073 A    
P5    O25   1.544805 D    
N2    O67   1.301043 A    
C165  O61   1.221539 D    
O29   Ba1   2.775233 S    
C77   C81   1.407723 A    
O20   C24   1.402450 S    
C23   C159  1.499481 S    
C155  H99   1.083431 S    
C15   C19   1.529662 S    
C159  O55   1.221455 D    
O10   Ba2   2.773483 S    
Ba3   O48   2.979731 S    
P8    O40   1.756376 S    
O26   Ba2   2.855545 S    
Ba1   O46   2.979731 S    
C46   C50   1.400825 A    
N8    O80   1.300114 A    
C145  C149  1.403341 A    
O44   C8    1.401229 S    
P11   C76   1.879876 S    
O32   Ba4   2.775379 S    
P8    C83   1.878511 S    
C62   C74   1.415141 A    
C132  C140  1.404214 A    
C126  H94   1.084616 S    
C8    C12   1.528319 S    
O6    Ba1   2.810926 S    
C45   C49   1.401251 A    
O11   Ba3   2.773625 S    
N7    O77   1.300495 A    
C49   C57   1.399834 A    
O18   C22   1.407185 S    
C13   C17   1.529574 S    
O22   P13   1.751608 S    
C12   H20   1.109020 S    
P5    Ba1   3.441595 S    
Ba4   O47   2.979950 S    
C147  C151  1.402846 A    
C23   H39   1.107452 S    
C146  C150  1.402803 A    
O16   P15   1.544171 D    
C133  C141  1.415431 A    
C28   H48   1.110627 S    
P2    O18   1.746265 S    
P2    Ba2   3.440895 S    
C59   H83   1.079310 S    
O42   C6    1.408118 S    
O30   Ba2   2.775379 S    
O10   P13   1.742708 S    
C80   C164  1.457306 S    
C131  C139  1.403828 A    
C90   C94   1.424505 A    
O12   P15   1.747704 S    
C52   C60   1.400160 A    
C47   H79   1.083918 S    
C164  H108  1.079357 S    
C6    C10   1.531200 S    
C27   H43   1.110419 S    
P3    O7    1.570641 S    
C16   C20   1.529699 S    
C45   H77   1.083943 S    
C159  H103  1.084202 S    
C56   C72   1.410334 A    
C25   H41   1.110437 S    
H2    C30   1.113494 S    
P8    Ba4   3.441115 S    
C167  H111  1.080104 S    
C72   C116  1.415487 A    
C19   H31   1.111272 S    
O40   C15   1.398732 S    
N1    O65   1.301056 A    
P6    O45   1.575651 S    
C35   C53   1.416398 A    
C39   C103  1.400442 A    
C40   C44   1.403002 A    
N6    O75   1.300313 A    
O23   C31   1.408094 S    
C37   C101  1.400121 A    
O23   P16   1.751602 S    
C5    H13   1.110602 S    
C104  H88   1.072163 S    
C107  H91   1.071135 S    
P7    O27   1.544805 D    
C7    H15   1.110542 S    
C63   C75   1.414632 A    
C168  O64   1.221544 D    
C95   C135  1.420815 A    
C24   C160  1.504333 S    
C83   C87   1.425702 A    
C79   C163  1.458249 S    
C1    N1    1.457389 S    
C168  H112  1.080706 S    
C98   C150  1.426606 A    
Ba3   Ba4   4.643012 S    
C92   C96   1.424124 A    
C130  C138  1.403920 A    
C22   H38   1.107565 S    
C111  C123  1.427626 A    
P16   C143  1.870798 S    
N4    O71   1.300673 A    
C14   C18   1.529451 S    
H4    C32   1.112272 S    
P6    Ba2   3.441115 S    
C123  C167  1.492804 S    
P5    O46   1.576117 S    
C112  C116  1.416415 A    
C58   C62   1.407552 A    
C118  C130  1.405509 A    
C65   C69   1.421101 A    
P6    O38   1.757290 S    
P5    C82   1.888489 S    
C60   C64   1.408092 A    
C100  C152  1.426300 A    
P8    O28   1.544986 D    
C123  C125  1.407718 A    
P12   C75   1.869623 S    
P9    O29   1.749779 S    
P10   O34   1.544595 D    
C67   C71   1.420246 A    
C157  O53   1.222019 D    
C106  H90   1.071674 S    
C7    C11   1.531188 S    
C161  O57   1.215665 D    
C122  C166  1.491847 S    
C31   H59   1.108071 S    
C136  C140  1.409409 A    
C158  H102  1.084125 S    
C74   C78   1.409179 A    
C20   H36   1.109167 S    
O4    Ba4   2.855267 S    
H65   C137  1.079754 S    
P1    C149  1.892587 S    
C155  O51   1.220626 D    
C154  O50   1.220620 D    
C66   C86   1.419569 A    
C54   C70   1.410464 A    
C121  C165  1.491673 S    
C66   C70   1.421312 A    
C77   C161  1.457121 S    
C70   C114  1.415105 A    
P10   C73   1.879755 S    
C166  O62   1.221528 D    
C42   C48   1.394941 A    
C65   C85   1.419071 A    
C34   C90   1.408533 A    
C26   H46   1.111589 S    
C60   H84   1.081197 S    
C21   C157  1.504487 S    
P4    C152  1.886709 S    
C160  O56   1.222057 D    
P9    O41   1.754267 S    
C93   C133  1.419780 A    
C115  C117  1.419616 A    
O37   C14   1.398923 S    
C134  C138  1.408321 A    
C76   C80   1.408925 A    
Ba2   O45   2.979950 S    
C12   H72   1.110021 S    
C99   C103  1.408120 A    
C3    N3    1.457522 S    
C64   C76   1.416271 A    
C97   C101  1.406908 A    
C48   C52   1.401592 A    
C28   H52   1.101769 S    
C1    C29   1.527788 S    
C144  C148  1.400351 A    
C8    H16   1.113129 S    
C127  H95   1.084617 S    
C68   C88   1.419460 A    
C37   C41   1.402694 A    
C89   C93   1.423426 A    
C51   C55   1.409816 A    
N5    O74   1.300276 A    
H53   C145  1.078127 S    
C15   H23   1.100333 S    
C49   C53   1.410844 A    
C148  C152  1.401177 A    
C162  H106  1.079015 S    
O24   P15   1.754159 S    
C116  C118  1.420091 A    
C61   C65   1.424571 A    
C91   C95   1.424275 A    
C15   H27   1.109434 S    
C21   C25   1.535258 S    
C9    H17   1.112411 S    
C23   C27   1.529134 S    
C11   H19   1.112393 S    
C102  H86   1.072954 S    
C92   C120  1.411807 A    
O13   P14   1.540773 D    
C134  C142  1.416753 A    
C108  H92   1.070980 S    
N2    O68   1.300837 A    
C165  H109  1.080806 S    
C87   C107  1.410739 A    
C89   C117  1.412173 A    
P1    O1    1.544426 D    
C52   C56   1.410811 A    
P11   O31   1.752699 S    
C27   H47   1.111601 S    
O9    P14   1.741295 S    
P10   O42   1.754381 S    
P3    O3    1.544426 D    
C42   H74   1.080905 S    
P4    O20   1.750680 S    
C26   H42   1.110632 S    
C17   H33   1.109098 S    
N3    O69   1.301042 A    
O38   C13   1.399166 S    
Ba3   O47   2.808523 S    
P8    O47   1.575651 S    
C19   H35   1.109658 S    
C94   C98   1.424475 A    
Ba1   O45   2.808523 S    
C153  O49   1.220612 D    
C109  C113  1.416316 A    
P7    O48   1.576117 S    
C111  C115  1.417366 A    
C5    H9    1.110782 S    
C85   C105  1.410565 A    
C34   C38   1.406943 A    
C8    H12   1.110867 S    
C2    C30   1.527889 S    
H54   C146  1.078359 S    
C90   C118  1.411358 A    
C59   C63   1.406955 A    
O12   Ba4   2.773483 S    
C12   N8    1.453410 S    
O11   P16   1.742372 S    
C14   H22   1.100379 S    
C17   C153  1.498815 S    
O28   Ba4   2.855545 S    
C125  C129  1.398080 A    
P14   C141  1.869118 S    
O21   C29   1.407574 S    
C128  C132  1.398346 A    
P1    O5    1.570641 S    
C163  H107  1.079710 S    
Ba4   O48   2.808982 S    
C25   H49   1.102275 S    
P3    O19   1.746482 S    
C10   H18   1.112394 S    
C127  C131  1.397943 A    
O27   Ba3   2.856403 S    
C3    H7    1.112216 S    
C105  C109  1.411720 A    
C75   C79   1.403897 A    
C2    N2    1.457529 S    
P10   O30   1.752523 S    
P9    C74   1.879727 S    
C103  H87   1.073191 S    
P12   O44   1.748160 S    
C164  O60   1.215512 D    
O7    Ba4   2.810468 S    
C61   C73   1.415989 A    
C19   C155  1.498925 S    
C67   C87   1.418239 A    
C136  C144  1.417796 A    
C20   H32   1.111130 S    
C4    C32   1.527580 S    
N6    O76   1.300502 A    
Ba1   Ba2   4.643012 S    
C120  C132  1.405622 A    
H66   C138  1.079984 S    
P2    C150  1.890837 S    
C95   C99   1.424423 A    
P4    Ba4   3.440895 S    
P15   C144  1.866428 S    
C51   C59   1.397549 A    
H3    C31   1.113466 S    
C24   C28   1.535819 S    
C32   H60   1.113353 S    
H67   C139  1.079967 S    
C112  C124  1.426689 A    
N1    O66   1.300861 A    
N8    O79   1.300278 A    
P3    Ba3   3.440425 S    
C99   C151  1.426399 A    
C109  C121  1.426634 A    
O31   Ba3   2.775233 S    
O41   C5    1.407941 S    
C10   N6    1.458529 S    
C44   C46   1.394115 A    
C43   H75   1.080308 S    
O43   C7    1.408086 S    
C94   C134  1.420851 A    
C29   H57   1.108195 S    
C3    H63   1.110008 S    
C46   H78   1.083968 S    
C5    C9    1.531307 S    
C79   C83   1.404652 A    
C4    H64   1.109945 S    
C135  C139  1.408344 A    
O19   C23   1.407266 S    
C36   C54   1.416490 A    
C143  C147  1.402763 A    
C22   C158  1.499558 S    
C88   C108  1.410552 A    
C9    N5    1.458617 S    
C38   C102  1.400692 A    
C18   C154  1.498939 S    
C10   H70   1.108350 S    
P1    O17   1.750542 S    
C6    H14   1.110545 S    
C157  H101  1.084699 S    
C1    H61   1.109774 S    
P6    O26   1.544986 D    
C16   H24   1.100065 S    
P4    O4    1.544245 D    
C161  H105  1.079327 S    
C101  H85   1.072406 S    
C124  C126  1.407134 A    
C43   C45   1.394578 A    
C82   C86   1.425399 A    
O3    Ba3   2.854413 S    
C21   H37   1.101475 S    
P7    Ba3   3.441595 S    
C24   H40   1.100786 S    
O2    Ba2   2.855267 S    
N3    O70   1.300835 A    
O39   C16   1.399175 S    
C33   C55   1.415200 A    
C57   C61   1.407785 A    
O14   P13   1.540266 D    
C135  C143  1.416592 A    
C86   C106  1.410445 A    
C47   C51   1.400626 A    
C50   C58   1.399084 A    
C68   C72   1.421453 A    
H56   C148  1.077933 S    
C69   C113  1.415506 A    
C121  C127  1.407105 A    
C57   H81   1.081214 S    
C122  C128  1.407437 A    
C13   H21   1.099925 S    
P2    O2    1.544245 D    
C27   H51   1.102576 S    
C28   H44   1.110374 S    
P11   O43   1.754346 S    
C78   C82   1.408158 A    
C39   C43   1.403207 A    
C40   C104  1.401380 A    
C17   H29   1.111287 S    
H68   C140  1.080668 S    
P11   O35   1.544575 D    
C35   C91   1.408511 A    
C113  C119  1.419851 A    
C114  C120  1.420008 A    
C4    H8    1.108626 S    
Ba2   O46   2.808982 S    
C110  C114  1.416435 A    
C73   C77   1.408718 A    
C35   C39   1.406718 A    
C63   C67   1.422791 A    
C96   C100  1.424651 A    
C13   H25   1.109629 S    
O21   P14   1.751588 S    
N7    O78   1.300313 A    
C55   C71   1.410424 A    
C163  O59   1.215427 D    
C36   C40   1.407796 A    
C53   C69   1.410043 A    
C33   C37   1.407373 A    
C108  C112  1.411998 A    
C78   C162  1.456834 S    
O15   P16   1.540084 D    
C91   C119  1.411298 A    
C167  O63   1.221594 D    
C38   C42   1.403297 A    
C96   C136  1.420393 A    
N5    O73   1.300468 A    
C33   C89   1.407518 A    
C162  O58   1.215941 D    
C126  C130  1.397843 A    
O22   C30   1.408162 S    
C124  C168  1.491597 S    
P2    O6    1.571102 S    
C80   C84   1.407740 A    
C16   H28   1.109873 S    
H1    C29   1.113583 S    
C25   H45   1.110863 S    
P12   O32   1.761914 S    
C26   H50   1.102791 S    
C141  C145  1.403826 A    
C2    H6    1.112209 S    
C106  C110  1.412367 A    
C156  O52   1.220618 D    
H55   C147  1.078402 S    
C4    N4    1.458226 S    
C98   C102  1.408006 A    
C154  H98   1.083627 S    
P7    C84   1.887033 S    
C7    H11   1.110654 S    
C58   H82   1.080982 S    
C166  H110  1.081028 S    
N4    O72   1.301105 A    
C1    H5    1.112308 S    
C18   H30   1.111582 S    
C153  H97   1.084061 S    
C18   H34   1.109446 S    
C50   C54   1.410462 A    
C97   C149  1.425776 A    
C158  O54   1.221407 D    
C160  H104  1.084669 S    
C62   C66   1.424209 A    
C129  C137  1.403477 A    
O24   C32   1.408281 S    
P3    C151  1.890637 S    
C22   C26   1.528847 S    
C20   C156  1.498952 S    
C14   H26   1.109525 S    
O9    Ba1   2.773625 S    
C3    C31   1.527878 S    
