data_mof_unit_30783.cif
_audit_creation_date              2012-12-10T17:19:24-0500
_audit_creation_method            fapswitch 2.2
_symmetry_space_group_name_H-M    P1
_symmetry_Int_Tables_number       1
_space_group_crystal_system       triclinic
_cell_length_a                    15.096052
_cell_length_b                    10.86603
_cell_length_c                    9.601122
_cell_angle_alpha                 91.689154
_cell_angle_beta                  90.035756
_cell_angle_gamma                 94.30564
_cell_volume                      1569.77833261

loop_
_atom_site_label
_atom_site_type_symbol
_atom_type_description
_atom_site_fract_x
_atom_site_fract_y
_atom_site_fract_z
_atom_type_partial_charge
C1    C     C_R   0.506003 0.263569 0.498255 0.811938
C2    C     C_R   0.907819 0.516038 0.624242 0.089619
C3    C     C_R   0.952728 0.426304 0.253171 -0.206530
C4    C     C_R   0.044995 0.434468 0.252848 -0.211371
C5    C     C_R   0.092138 0.464735 0.375713 0.112801
C6    C     C_R   0.046343 0.490400 0.500034 0.072642
C7    C     C_R   0.094152 0.520460 0.624022 0.062320
C8    C     C_R   0.049175 0.546771 0.747140 -0.204271
C9    C     C_R   0.956425 0.545810 0.748941 0.181493
C10   C     C_R   0.184613 0.469609 0.376077 -0.209814
C11   C     C_R   0.232026 0.497909 0.499739 -0.073734
C12   C     C_R   0.328817 0.499498 0.499960 0.822479
C13   C     C_R   0.186679 0.523282 0.623335 -0.226731
C14   C     C_R   0.596787 0.140166 0.718683 -0.162844
C15   C     C_R   0.604509 0.092441 0.850179 -0.148413
C16   C     C_R   0.563202 0.977033 0.878234 0.179402
C17   C     C_R   0.525082 0.902673 0.768469 -0.136857
C18   C     C_R   0.522872 0.946648 0.630794 -0.018142
C19   C     C_R   0.546328 0.073247 0.613728 0.096898
C20   C     C_R   0.514530 0.130799 0.495795 -0.198582
C21   C     C_R   0.476930 0.059666 0.384507 -0.277089
C22   C     C_R   0.469605 0.932229 0.389546 0.605450
C23   C     C_R   0.496784 0.737972 0.503081 0.886335
C24   C     C_R   0.494051 0.873275 0.510664 -0.228730
C25   C     C_R   0.633730 0.655805 0.142217 0.668181
C26   C     C_R   0.700345 0.717891 0.065895 -0.245966
C27   C     C_R   0.695343 0.719099 0.923556 -0.342024
C28   C     C_R   0.625655 0.653648 0.855690 -0.130083
C29   C     C_R   0.562831 0.575462 0.926241 0.103986
C30   C     C_R   0.564373 0.575869 0.076155 -0.026794
C31   C     C_R   0.440564 0.427178 0.071339 0.668215
C32   C     C_R   0.440719 0.427285 0.923588 -0.131236
C33   C     C_R   0.670826 0.493583 0.499562 0.832644
C34   C     C_R   0.815428 0.518121 0.619583 -0.295607
C35   C     C_R   0.767270 0.482051 0.498539 -0.081802
C36   C     C_R   0.811561 0.436809 0.379447 0.136455
C37   C     C_R   0.905278 0.449118 0.376683 0.116857
C38   C     C_R   0.952993 0.485591 0.500292 -0.019649
Cu1   Cu    Cu3+1 0.499990 0.499990 0.640660 0.936252
Cu2   Cu    Cu3+1 0.500010 0.500010 0.359340 1.064514
H1    H     H_    0.780006 0.548611 0.710503 0.187069
H2    H     H_    0.627926 0.231411 0.701433 0.155339
H3    H     H_    0.638105 0.148572 0.932218 0.138928
H4    H     H_    0.490836 0.816527 0.796200 0.175612
H5    H     H_    0.752648 0.774993 0.118844 0.182719
H6    H     H_    0.743238 0.776327 0.865582 0.182850
H7    H     H_    0.622993 0.670299 0.747685 0.221326
H8    H     H_    0.392136 0.367475 0.866233 0.168274
H9    H     H_    0.919376 0.404603 0.154826 0.159943
H10   H     H_    0.079515 0.416421 0.156263 0.153712
H11   H     H_    0.219516 0.449401 0.280378 0.193545
H12   H     H_    0.223363 0.545960 0.718975 0.161264
H13   H     H_    0.086710 0.569127 0.842071 0.148873
H14   H     H_    0.451130 0.102930 0.294298 0.206057
N1    N     N_R   0.500860 0.501210 0.147910 -0.232725
N2    N     N_R   0.500890 0.501290 0.852040 -0.221161
O1    O     O_R   0.499990 0.319640 0.618810 -0.582898
O2    O     O_R   0.500000 0.319660 0.381240 -0.558112
O3    O     O_R   0.370250 0.499960 0.618800 -0.595557
O4    O     O_R   0.370260 0.499980 0.381230 -0.531081
O5    O     O_R   0.500000 0.680340 0.618760 -0.643478
O6    O     O_R   0.500010 0.680360 0.381190 -0.449186
O7    O     O_R   0.629740 0.500020 0.618770 -0.627521
O8    O     O_R   0.629750 0.500040 0.381200 -0.524348
C39   C     C_3   0.556792 0.937596 0.026225 -0.746465
H15   H     H_    0.624044 0.940344 0.073287 0.226213
H16   H     H_    0.517163 0.002704 0.086076 0.253185
H17   H     H_    0.523907 0.843242 0.034017 0.258309
F1    F     F_    0.432834 0.866811 0.278564 -0.667431
F2    F     F_    0.379821 0.351499 0.137271 -0.671281
F3    F     F_    0.638728 0.689708 0.277171 -0.659424
C40   C     C_3   0.760326 0.367288 0.261583 -0.847464
H18   H     H_    0.746036 0.431473 0.177971 0.237576
H19   H     H_    0.797806 0.291248 0.217642 0.215689
H20   H     H_    0.697772 0.319344 0.299100 0.233050
C41   C     C_3   0.911475 0.575778 0.884851 -0.878769
H21   H     H_    0.877012 0.661652 0.875057 0.238404
H22   H     H_    0.862922 0.498512 0.912459 0.231251
H23   H     H_    0.959771 0.590832 0.972157 0.235503

loop_
_geom_bond_atom_site_label_1
_geom_bond_atom_site_label_2
_ccdc_geom_bond_type
C28   H7    S    
Cu2   O4    S    
C35   C36   A    
C41   H23   S    
C3    H9    S    
C7    C8    A    
C26   C27   A    
C37   C38   A    
C18   C24   A    
C28   C29   A    
C41   H22   S    
C18   C19   A    
C21   H14   S    
C16   C17   A    
C15   C16   A    
Cu1   O1    S    
Cu2   O6    S    
C34   C35   A    
C26   H5    S    
C12   O3    A    
C31   F2    S    
C31   C32   A    
C8    C9    A    
C39   H16   S    
C23   C24   S    
C6    C38   A    
C25   F3    S    
C9    C41   S    
C22   F1    S    
C14   H2    S    
C39   H17   S    
C21   C22   A    
C32   H8    S    
C34   H1    S    
C40   H20   S    
C10   H11   S    
C23   O6    A    
Cu1   O5    S    
Cu2   O2    S    
C41   H21   S    
C40   H19   S    
Cu1   Cu2   S    
C40   H18   S    
C25   C26   A    
C4    H10   S    
C29   C30   A    
C1    O1    A    
C13   H12   S    
C2    C38   A    
Cu1   N2    S    
C7    C13   A    
C33   O7    A    
Cu2   N1    S    
Cu1   O3    S    
C17   C18   A    
C27   H6    S    
C22   C24   A    
C3    C4    A    
C25   C30   A    
C36   C37   A    
C1    C20   S    
C14   C19   A    
C4    C5    A    
C8    H13   S    
C11   C12   S    
C6    C7    A    
C29   N2    A    
Cu1   O7    S    
C30   N1    A    
Cu2   O8    S    
C19   C20   A    
C17   H4    S    
C15   H3    S    
C5    C10   A    
C1    O2    A    
C11   C13   A    
C2    C34   A    
C5    C6    A    
C33   O8    A    
C33   C35   S    
C10   C11   A    
C12   O4    A    
C23   O5    A    
C20   C21   A    
C3    C37   A    
C39   H15   S    
C27   C28   A    
C14   C15   A    
C16   C39   S    
C31   N1    A    
C2    C9    A    
C32   N2    A    
C36   C40   S    
