data_mof_unit_19786.cif
_audit_creation_date              2013-03-05T15:39:27-0500
_audit_creation_method            fapswitch 2.2
_symmetry_space_group_name_H-M    P1
_symmetry_Int_Tables_number       1
_space_group_crystal_system       triclinic
_cell_length_a                    10.870554
_cell_length_b                    10.886331
_cell_length_c                    10.895526
_cell_angle_alpha                 80.367185
_cell_angle_beta                  97.822149
_cell_angle_gamma                 89.93382
_cell_volume                      1258.99548323

loop_
_atom_site_label
_atom_site_type_symbol
_atom_site_description
_atom_site_fract_x
_atom_site_fract_y
_atom_site_fract_z
_atom_type_partial_charge
Zn1   Zn    Zn3+2 0.396020 0.396030 0.603970 0.965021
Zn2   Zn    Zn3+2 0.618560 0.587010 0.606350 0.981913
Zn3   Zn    Zn3+2 0.396030 0.620930 0.379070 1.057218
Zn4   Zn    Zn3+2 0.589390 0.396030 0.410610 0.978918
O1    O     O_3   0.500000 0.500000 0.500000 -0.508290
O2    O     O_R   0.767360 0.410530 0.454140 -0.657772
O3    O     O_R   0.222430 0.443930 0.556060 -0.654516
O4    O     O_R   0.597340 0.544190 0.781580 -0.636858
O5    O     O_R   0.412870 0.601350 0.208220 -0.584155
O6    O     O_R   0.597340 0.765700 0.560080 -0.652376
O7    O     O_R   0.548200 0.222430 0.451790 -0.609632
O8    O     O_R   0.441590 0.789440 0.401000 -0.610140
O9    O     O_R   0.412860 0.222430 0.587130 -0.673726
O10   O     O_R   0.441590 0.410520 0.779910 -0.648646
O11   O     O_R   0.548210 0.443940 0.230290 -0.668478
O12   O     O_R   0.787780 0.544200 0.591150 -0.640068
O13   O     O_R   0.222430 0.601350 0.398650 -0.623058
C1    C     C_R   0.833947 0.472633 0.526146 0.838274
C2    C     C_R   0.163997 0.526546 0.473618 0.906501
C3    C     C_R   0.524138 0.471246 0.837857 0.964988
C4    C     C_R   0.475114 0.525438 0.160118 0.806729
C5    C     C_R   0.521519 0.834766 0.475590 0.808494
C6    C     C_R   0.481348 0.163649 0.528901 0.927944
C7    C     C_2   0.490472 0.027141 0.554240 -0.232273
C8    C     C_2   0.519336 0.968810 0.460647 0.145545
C9    C     C_2   0.029922 0.535650 0.470110 -0.376914
H1    H     H_    0.981250 0.614201 0.407239 0.141556
C10   C     C_2   0.965664 0.451800 0.541349 -0.016272
C11   C     C_2   0.462038 0.529489 0.023758 0.090203
C12   C     C_2   0.537573 0.457707 0.972024 -0.174933
C13   C     C_3   0.477131 0.952858 0.684796 -0.431243
C14   C     C_3   0.465502 0.029998 0.789293 -0.347431
C15   C     C_3   0.475871 0.948418 0.918879 -0.729430
H2    H     H_    0.395643 0.885817 0.924100 0.303168
H3    H     H_    0.563762 0.892048 0.939423 0.257501
H4    H     H_    0.475186 0.008566 0.991701 0.273231
H5    H     H_    0.540737 0.098924 0.791442 0.209705
H6    H     H_    0.373680 0.079363 0.771727 0.258035
H7    H     H_    0.395195 0.892449 0.675731 0.243985
H8    H     H_    0.561322 0.892106 0.717189 0.246184
N1    N     N_R   0.518158 0.033578 0.333562 0.222532
O14   O     O_R   0.420608 0.099512 0.276528 -0.396038
O15   O     O_R   0.600919 0.003858 0.267132 -0.433728
C16   C     C_3   0.021020 0.332721 0.626813 -0.352246
C17   C     C_3   0.925865 0.244531 0.685089 -0.416692
C18   C     C_3   0.990251 0.129511 0.768727 -0.830395
H9    H     H_    0.044876 0.078155 0.713621 0.271778
H10   H     H_    0.053190 0.157027 0.848227 0.269435
H11   H     H_    0.919450 0.066384 0.807201 0.253061
H12   H     H_    0.872042 0.293817 0.742571 0.215383
H13   H     H_    0.860532 0.213031 0.609564 0.244613
H14   H     H_    0.072391 0.279008 0.570824 0.228891
H15   H     H_    0.086020 0.359460 0.705408 0.245412
N2    N     N_R   0.363814 0.608640 0.946752 0.196245
O16   O     O_R   0.257620 0.619326 0.987036 -0.366524
O17   O     O_R   0.381565 0.675578 0.840250 -0.451072
C19   C     C_3   0.641057 0.367729 0.045834 -0.393259
C20   C     C_3   0.717543 0.301900 0.965729 -0.418803
C21   C     C_3   0.813671 0.211035 0.048788 -0.784363
H16   H     H_    0.878674 0.261223 0.109777 0.265576
H17   H     H_    0.767073 0.137758 0.108519 0.295204
H18   H     H_    0.867872 0.165442 0.989026 0.248078
H19   H     H_    0.655256 0.249165 0.904869 0.210656
H20   H     H_    0.766913 0.372161 0.905333 0.233636
H21   H     H_    0.707433 0.420521 0.102981 0.235313
H22   H     H_    0.598042 0.293389 0.108086 0.278405

loop_
_geom_bond_atom_site_label_1
_geom_bond_atom_site_label_2
_geom_bond_distance
_ccdc_geom_bond_type
C6    C7    1.466066 S    
C12   C19   1.535982 S    
C11   C12   1.369137 D    
Zn3   O5    1.941543 S    
C14   H6    1.110900 S    
Zn1   O10   1.946254 S    
Zn2   O12   1.932672 S    
N1    O14   1.302090 A    
N2    O16   1.301337 A    
C9    C10   1.354837 D    
C13   C14   1.541552 S    
C19   H22   1.112274 S    
C14   C15   1.527006 S    
C16   H14   1.112309 S    
Zn4   O11   1.936368 S    
C15   H2    1.109132 S    
C19   C20   1.540162 S    
C7    C13   1.539438 S    
C21   H16   1.110850 S    
C3    C12   1.431673 S    
C17   C18   1.526654 S    
O6    C5    1.285491 A    
Zn4   O7    1.935526 S    
N1    O15   1.301109 A    
C18   H11   1.110404 S    
O5    C4    1.286716 A    
C9    H1    1.088433 S    
O4    C3    1.269290 A    
C17   H12   1.110819 S    
Zn1   O1    1.940194 S    
O7    C6    1.277037 A    
C15   H3    1.110844 S    
C13   H7    1.111177 S    
Zn3   O13   1.935843 S    
O3    C2    1.261834 A    
Zn1   O3    1.934879 S    
C20   H20   1.111180 S    
O2    C1    1.273022 A    
N2    O17   1.301175 A    
C21   H17   1.110588 S    
Zn2   O1    1.965854 S    
Zn1   O9    1.939887 S    
C11   N2    1.448643 S    
C17   H13   1.111333 S    
Zn2   O6    1.931471 S    
C18   H10   1.110902 S    
O8    C5    1.265652 A    
O11   C4    1.268492 A    
C15   H4    1.110770 S    
C1    C10   1.432180 S    
C7    C8    1.358272 D    
O9    C6    1.276565 A    
O10   C3    1.275818 A    
O12   C1    1.281019 A    
Zn4   O2    1.941306 S    
C8    N1    1.443262 S    
C20   H19   1.110781 S    
C2    C9    1.455585 S    
C18   H9    1.110984 S    
C21   H18   1.108783 S    
Zn3   O8    1.945298 S    
O13   C2    1.285939 A    
C13   H8    1.110020 S    
C14   H5    1.111100 S    
C20   C21   1.526442 S    
C4    C11   1.466309 S    
C16   H15   1.111984 S    
C10   C16   1.533413 S    
Zn2   O4    1.933368 S    
C16   C17   1.540096 S    
C19   H21   1.112214 S    
Zn4   O1    1.948820 S    
Zn3   O1    1.938369 S    
C5    C8    1.440780 S    
