data_mof_unit_40289.cif
_audit_creation_date              2012-12-10T19:48:47-0500
_audit_creation_method            fapswitch 2.2
_symmetry_space_group_name_H-M    P1
_symmetry_Int_Tables_number       1
_space_group_crystal_system       triclinic
_cell_length_a                    25.999077
_cell_length_b                    26.04387
_cell_length_c                    22.229283
_cell_angle_alpha                 89.924375
_cell_angle_beta                  54.078789
_cell_angle_gamma                 89.850159
_cell_volume                      12189.2874814

loop_
_atom_site_label
_atom_site_type_symbol
_atom_type_description
_atom_site_fract_x
_atom_site_fract_y
_atom_site_fract_z
_atom_type_partial_charge
C1    C     C_R   0.849380 0.749854 0.301041 0.800873
C2    C     C_R   0.445337 0.250520 0.500420 -0.052783
C3    C     C_R   0.295689 0.973747 0.440707 -0.098895
C4    C     C_R   0.752730 0.554251 0.506993 -0.275476
C5    C     C_R   0.750819 0.446197 0.504557 -0.272685
C6    C     C_R   0.248007 0.054261 0.500654 -0.197779
C7    C     C_R   0.248208 0.945362 0.500761 -0.210504
C8    C     C_R   0.701465 0.527182 0.568540 0.367966
C9    C     C_R   0.700521 0.473152 0.567019 0.398262
C10   C     C_R   0.194691 0.026905 0.560239 0.367007
C11   C     C_R   0.197753 0.972694 0.563021 0.322783
C12   C     C_3   0.871079 0.467030 0.417889 0.213233
C13   C     C_R   0.947959 0.245952 0.495819 -0.060896
C14   C     C_3   0.871949 0.525515 0.425662 0.196004
C15   C     C_3   0.357781 0.968695 0.366398 0.276689
C16   C     C_3   0.361429 0.028384 0.368904 0.285431
C17   C     C_R   0.749581 0.890010 0.500421 0.846413
C18   C     C_R   0.749720 0.110009 0.500350 0.866527
C19   C     C_R   0.249610 0.390025 0.500390 0.847874
C20   C     C_R   0.249802 0.610027 0.500321 0.870286
C21   C     C_R   0.890179 0.749977 0.500001 0.803766
C22   C     C_R   0.890263 0.249692 0.499796 0.801371
C23   C     C_R   0.390012 0.250011 0.499990 0.810350
C24   C     C_R   0.947480 0.752985 0.496925 -0.061640
C25   C     C_R   0.390272 0.749744 0.499810 0.805980
C26   C     C_R   0.610003 0.749747 0.499670 0.860765
C27   C     C_R   0.610024 0.250088 0.500019 0.868484
C28   C     C_R   0.109986 0.249791 0.499664 0.860243
C29   C     C_R   0.110041 0.750341 0.499660 0.870610
C30   C     C_R   0.556714 0.770776 0.439412 0.125231
C31   C     C_R   0.548821 0.218574 0.454512 0.134086
C32   C     C_R   0.056230 0.271889 0.440104 0.119722
C33   C     C_R   0.057935 0.732217 0.437293 0.123175
C34   C     C_R   0.556262 0.746108 0.495606 -0.139218
C35   C     C_R   0.503470 0.770889 0.439834 0.069421
C36   C     C_R   0.554311 0.250652 0.500325 -0.093929
C37   C     C_R   0.056217 0.246346 0.495566 -0.127945
C38   C     C_R   0.056117 0.753880 0.496025 -0.125247
C39   C     C_R   0.503840 0.715024 0.546155 -0.178631
C40   C     C_R   0.503030 0.284089 0.547681 -0.198125
C41   C     C_R   0.004265 0.214602 0.545321 -0.203169
C42   C     C_R   0.001725 0.781946 0.550056 -0.188578
C43   C     C_3   0.323748 0.812965 0.107254 0.184207
C44   C     C_3   0.299763 0.826571 0.186830 -0.419008
C45   C     C_3   0.249037 0.868429 0.219288 -0.861337
C46   C     C_R   0.496821 0.218441 0.454755 0.048263
C47   C     C_3   0.342031 0.163718 0.133904 0.096335
C48   C     C_3   0.337350 0.114298 0.100165 -0.298164
C49   C     C_3   0.302097 0.072281 0.158511 -0.900972
C50   C     C_3   0.849217 0.347187 0.107696 0.188081
C51   C     C_3   0.826491 0.353561 0.188351 -0.421670
C52   C     C_3   0.788163 0.402866 0.222563 -0.867410
C53   C     C_3   0.886479 0.632835 0.128923 0.098497
C54   C     C_3   0.906542 0.580761 0.089279 -0.288023
C55   C     C_3   0.895874 0.537274 0.141401 -0.943584
C56   C     C_3   0.668468 0.571895 0.674502 0.090427
C57   C     C_R   0.002816 0.271839 0.440769 0.059808
C58   C     C_3   0.608421 0.585061 0.751174 -0.299564
C59   C     C_3   0.623790 0.598959 0.805610 -0.929262
C60   C     C_3   0.660176 0.444328 0.684652 0.097356
C61   C     C_3   0.646898 0.390250 0.716926 -0.303990
C62   C     C_3   0.646836 0.388687 0.785660 -0.954322
C63   C     C_3   0.087359 0.043139 0.622874 0.151935
C64   C     C_3   0.080763 0.081490 0.575402 -0.350874
C65   C     C_3   0.021433 0.070795 0.578773 -0.973419
C66   C     C_3   0.168497 0.941171 0.674339 0.111767
C67   C     C_3   0.116337 0.912216 0.743784 -0.309621
C68   C     C_R   0.004530 0.731309 0.438251 0.033746
C69   C     C_3   0.135510 0.900928 0.795525 -0.934611
C70   C     C_3   0.660824 0.873081 0.320962 0.158657
C71   C     C_3   0.627358 0.914153 0.305643 -0.388198
C72   C     C_3   0.664232 0.964495 0.280187 -0.909504
C73   C     C_3   0.671328 0.155859 0.281008 0.065047
C74   C     C_3   0.724750 0.140760 0.287670 -0.336364
C75   C     C_3   0.762758 0.095163 0.237898 -0.843577
C76   C     C_3   0.154003 0.379097 0.326739 0.121963
C77   C     C_3   0.116736 0.418816 0.315091 -0.346758
C78   C     C_3   0.148745 0.471294 0.294492 -0.888705
C79   C     C_3   0.514472 0.824655 0.411701 -0.528898
C80   C     C_3   0.167008 0.640357 0.295478 0.082596
C81   C     C_3   0.224722 0.636761 0.297480 -0.326950
C82   C     C_3   0.264911 0.589331 0.256476 -0.875814
C83   C     C_3   0.521703 0.177407 0.397428 -0.528412
C84   C     C_3   0.011640 0.326222 0.415837 -0.495994
C85   C     C_R   0.849521 0.249894 0.301149 0.813715
C86   C     C_3   0.020455 0.679709 0.402184 -0.444210
C87   C     C_3   0.573546 0.824517 0.410796 0.310380
C88   C     C_3   0.581175 0.177373 0.397217 0.314893
C89   C     C_3   0.070816 0.326512 0.414587 0.300292
C90   C     C_3   0.080531 0.681326 0.399419 0.281992
C91   C     C_3   0.514903 0.694918 0.955973 -0.424737
C92   C     C_3   0.497014 0.300449 0.955943 -0.407281
C93   C     C_3   0.995183 0.200248 0.955787 -0.418705
C94   C     C_3   0.979145 0.789029 0.956368 -0.405055
C95   C     C_3   0.470095 0.782854 0.958548 0.299757
C96   C     C_R   0.349368 0.249874 0.301057 0.814451
C97   C     C_3   0.481477 0.203791 0.957404 0.312869
C98   C     C_3   0.983923 0.297651 0.958715 0.298851
C99   C     C_3   0.001855 0.693927 0.956398 0.305611
C100  C     C_3   0.429820 0.785218 0.046014 0.197691
C101  C     C_3   0.441447 0.201978 0.044839 0.209912
C102  C     C_3   0.943427 0.297878 0.046233 0.203081
C103  C     C_3   0.963150 0.692875 0.043682 0.212109
C104  C     C_1   0.388818 0.750118 0.221954 -0.083466
C105  C     C_1   0.388194 0.249108 0.221759 -0.065796
C106  C     C_1   0.889001 0.249878 0.221895 -0.087457
C107  C     C_R   0.349443 0.749974 0.301169 0.844773
C108  C     C_1   0.888166 0.748896 0.221717 -0.078670
C109  C     C_3   0.532240 0.750764 0.926895 0.055288
C110  C     C_3   0.531551 0.248174 0.926541 0.042716
C111  C     C_3   0.032031 0.251534 0.926812 0.059626
C112  C     C_3   0.032322 0.748267 0.926461 0.040654
C113  C     C_R   0.650509 0.749987 0.698945 0.817849
C114  C     C_R   0.650415 0.249918 0.698938 0.823516
C115  C     C_R   0.150476 0.250029 0.698930 0.836597
C116  C     C_R   0.150669 0.750229 0.698924 0.828628
C117  C     C_3   0.467114 0.694198 0.041990 0.341603
C118  C     C_R   0.450031 0.714987 0.546273 -0.205465
C119  C     C_3   0.449926 0.299545 0.042158 0.339718
C120  C     C_3   0.949609 0.200211 0.042168 0.305997
C121  C     C_3   0.932277 0.785702 0.042527 0.343319
C122  C     C_3   0.460567 0.749599 0.073654 0.051782
C123  C     C_3   0.459310 0.248893 0.073347 0.035393
C124  C     C_3   0.960534 0.249774 0.073538 0.063205
C125  C     C_3   0.959519 0.748388 0.073264 0.038377
C126  C     C_3   0.527152 0.771802 0.042334 -0.450843
C127  C     C_3   0.530174 0.242477 0.042085 -0.445637
C128  C     C_3   0.031615 0.254282 0.041927 -0.452599
C129  C     C_R   0.448989 0.284044 0.547705 -0.205869
C130  C     C_3   0.028326 0.764157 0.042391 -0.449843
C131  C     C_3   0.568115 0.774435 0.956552 -0.499305
C132  C     C_3   0.572173 0.240556 0.956280 -0.498543
C133  C     C_3   0.073337 0.255887 0.956113 -0.504229
C134  C     C_3   0.071421 0.761938 0.956591 -0.497381
C135  C     C_1   0.421375 0.749934 0.155227 0.062046
C136  C     C_1   0.420318 0.248868 0.154989 0.039440
C137  C     C_1   0.921511 0.249724 0.155145 0.058109
C138  C     C_1   0.920315 0.748436 0.154936 0.042582
C139  C     C_1   0.574881 0.750992 0.845184 0.031045
C140  C     C_R   0.950553 0.214249 0.545280 -0.207335
C141  C     C_1   0.574432 0.248472 0.844958 0.022509
C142  C     C_1   0.074667 0.251399 0.845123 0.031339
C143  C     C_1   0.075195 0.749459 0.844922 0.027521
C144  C     C_1   0.609791 0.750644 0.778361 -0.088866
C145  C     C_1   0.609517 0.249041 0.778215 -0.084040
C146  C     C_1   0.109649 0.250815 0.778319 -0.079284
C147  C     C_1   0.110145 0.749976 0.778193 -0.083448
C148  C     C_R   0.714635 0.974219 0.484162 -0.059320
C149  C     C_R   0.715272 0.026163 0.483288 -0.003557
C150  C     C_R   0.213592 0.474355 0.485886 -0.055467
C151  C     C_R   0.947805 0.781602 0.550396 -0.205140
C152  C     C_R   0.214053 0.526294 0.485401 -0.004857
C153  C     C_R   0.749762 0.945560 0.500973 -0.061464
C154  C     C_R   0.750106 0.054489 0.500643 -0.029182
C155  C     C_R   0.249977 0.445601 0.500767 -0.061000
C156  C     C_R   0.250276 0.554541 0.500662 -0.029081
C157  C     C_R   0.785275 0.972837 0.519904 -0.187907
C158  C     C_R   0.785362 0.026926 0.519862 -0.193190
C159  C     C_R   0.286844 0.472831 0.517798 -0.183020
C160  C     C_R   0.286963 0.526946 0.517796 -0.188653
C161  C     C_R   0.750679 0.609929 0.501838 0.842585
C162  C     C_R   0.447954 0.746104 0.495921 -0.065472
C163  C     C_R   0.750270 0.390188 0.501373 0.867861
C164  C     C_R   0.249780 0.109946 0.499900 0.896004
C165  C     C_R   0.249780 0.889913 0.499976 0.897392
C166  C     C_3   0.667994 0.030534 0.465966 0.226926
C167  C     C_3   0.667765 0.970588 0.466269 0.174997
C168  C     C_3   0.164836 0.530990 0.471273 0.223119
C169  C     C_3   0.165042 0.471079 0.470562 0.171524
C170  C     C_R   0.804709 0.526966 0.447968 -0.111172
C171  C     C_R   0.803033 0.473596 0.446574 -0.067141
C172  C     C_R   0.297262 0.025578 0.441954 -0.083871
H1    H     H_    0.502940 0.692810 0.587985 0.191341
H2    H     H_    0.609201 0.270913 0.933888 0.231635
H3    H     H_    0.845772 0.536852 0.191441 0.255311
H4    H     H_    0.567681 0.624864 0.082815 0.395116
H5    H     H_    0.528373 0.400577 0.078134 0.398379
H6    H     H_    0.052389 0.111211 0.003905 0.364783
H7    H     H_    0.960868 0.915950 0.083037 0.401274
H8    H     H_    0.548044 0.078842 0.655305 0.393102
H9    H     H_    0.601728 0.942691 0.630127 0.353678
H10   H     H_    0.048872 0.577459 0.662788 0.397828
H11   H     H_    0.103205 0.441097 0.632912 0.356499
H12   H     H_    0.697311 0.607318 0.650215 0.137979
H13   H     H_    0.108476 0.223899 0.933791 0.226575
H14   H     H_    0.697082 0.543634 0.680999 0.090078
H15   H     H_    0.583613 0.617874 0.746338 0.248718
H16   H     H_    0.575689 0.551673 0.773515 0.233499
H17   H     H_    0.651444 0.567743 0.808547 0.274817
H18   H     H_    0.578826 0.603912 0.861718 0.284559
H19   H     H_    0.651312 0.635267 0.788473 0.253703
H20   H     H_    0.625762 0.470919 0.729627 0.180718
H21   H     H_    0.709180 0.454859 0.665948 0.080338
H22   H     H_    0.600047 0.376937 0.732214 0.259044
H23   H     H_    0.684585 0.364069 0.674273 0.211219
H24   H     H_    0.095256 0.799734 0.934257 0.229577
H25   H     H_    0.692976 0.402549 0.771878 0.272751
H26   H     H_    0.639578 0.348704 0.806334 0.260300
H27   H     H_    0.607848 0.412992 0.830479 0.287148
H28   H     H_    0.045719 0.047687 0.681678 0.165556
H29   H     H_    0.084860 0.003305 0.606626 0.167308
H30   H     H_    0.077627 0.121054 0.595908 0.263382
H31   H     H_    0.123048 0.078845 0.516621 0.233749
H32   H     H_    0.023178 0.031295 0.558843 0.276116
H33   H     H_    0.018756 0.098422 0.542622 0.275192
H34   H     H_    0.978144 0.075138 0.636592 0.269587
H35   H     H_    0.580275 0.815168 0.938377 0.193627
H36   H     H_    0.175100 0.979383 0.691451 0.157236
H37   H     H_    0.213544 0.918758 0.646831 0.112098
H38   H     H_    0.072058 0.935545 0.773984 0.234901
H39   H     H_    0.106503 0.875360 0.727264 0.248571
H40   H     H_    0.178562 0.876203 0.767094 0.255369
H41   H     H_    0.096359 0.880440 0.845607 0.272128
H42   H     H_    0.145204 0.937260 0.813287 0.280375
H43   H     H_    0.865901 0.473466 0.287401 0.369018
H44   H     H_    0.878467 0.576334 0.297256 0.338989
H45   H     H_    0.303740 0.965239 0.247565 0.373588
H46   H     H_    0.597326 0.202948 0.937066 0.191913
H47   H     H_    0.288578 0.109636 0.305118 0.343081
H48   H     H_    0.709970 0.868052 0.269993 0.206854
H49   H     H_    0.665631 0.885591 0.365241 0.149556
H50   H     H_    0.622739 0.900102 0.261829 0.246904
H51   H     H_    0.579033 0.921686 0.356852 0.232709
H52   H     H_    0.666908 0.980425 0.324551 0.253001
H53   H     H_    0.639608 0.992866 0.267885 0.267901
H54   H     H_    0.713043 0.958408 0.229084 0.286484
H55   H     H_    0.692989 0.169619 0.223517 0.182345
H56   H     H_    0.641912 0.121723 0.289163 0.130364
H57   H     H_    0.100748 0.292386 0.936456 0.196108
H58   H     H_    0.757170 0.173946 0.271227 0.264163
H59   H     H_    0.704510 0.130685 0.346169 0.242450
H60   H     H_    0.786190 0.105278 0.178638 0.292602
H61   H     H_    0.731183 0.061659 0.252565 0.244996
H62   H     H_    0.799787 0.084328 0.245740 0.299931
H63   H     H_    0.203054 0.376649 0.274886 0.189523
H64   H     H_    0.158812 0.391443 0.370984 0.154001
H65   H     H_    0.113351 0.405475 0.270052 0.257597
H66   H     H_    0.067895 0.423199 0.366781 0.240708
H67   H     H_    0.149514 0.486436 0.340610 0.247558
H68   H     H_    0.109434 0.732772 0.937626 0.193364
H69   H     H_    0.121710 0.498617 0.284383 0.297837
H70   H     H_    0.198104 0.468568 0.243261 0.268885
H71   H     H_    0.183729 0.639594 0.236611 0.188731
H72   H     H_    0.135720 0.606123 0.322805 0.138819
H73   H     H_    0.254638 0.671485 0.270848 0.259343
H74   H     H_    0.208479 0.635362 0.356125 0.255003
H75   H     H_    0.284003 0.591255 0.196846 0.285016
H76   H     H_    0.236164 0.553951 0.281271 0.244336
H77   H     H_    0.305390 0.587482 0.260659 0.296929
H78   H     H_    0.551562 0.748397 0.060296 0.271810
H79   H     H_    0.545872 0.274084 0.061137 0.270486
H80   H     H_    0.046442 0.221954 0.061107 0.271136
H81   H     H_    0.504399 0.310126 0.584663 0.189519
H82   H     H_    0.029406 0.803180 0.061460 0.271483
H83   H     H_    0.559345 0.674377 0.938029 0.223730
H84   H     H_    0.533180 0.331134 0.937031 0.225434
H85   H     H_    0.029984 0.168150 0.934800 0.195190
H86   H     H_    0.001300 0.827709 0.938600 0.220108
H87   H     H_    0.522425 0.811074 0.064824 0.191064
H88   H     H_    0.536937 0.206381 0.063591 0.185241
H89   H     H_    0.039615 0.289876 0.063046 0.188832
H90   H     H_    0.047743 0.737872 0.064108 0.182745
H91   H     H_    0.813286 0.952553 0.534007 0.165216
H92   H     H_    0.003634 0.192069 0.586722 0.185126
H93   H     H_    0.813318 0.046981 0.534086 0.163006
H94   H     H_    0.315867 0.452487 0.530369 0.164736
H95   H     H_    0.315995 0.546997 0.530449 0.163026
H96   H     H_    0.409157 0.692721 0.588133 0.181874
H97   H     H_    0.410399 0.310096 0.584677 0.181794
H98   H     H_    0.910090 0.191323 0.586449 0.179635
H99   H     H_    0.905618 0.801577 0.594603 0.178414
H100  H     H_    0.689517 0.046902 0.409781 0.036619
H101  H     H_    0.690255 0.954074 0.410121 0.044536
H102  H     H_    0.184513 0.547882 0.415912 0.038683
H103  H     H_    0.999524 0.801960 0.594198 0.183690
H104  H     H_    0.186402 0.455289 0.414308 0.041521
H105  H     H_    0.876178 0.446140 0.457815 0.054178
H106  H     H_    0.873005 0.535974 0.473472 0.059292
H107  H     H_    0.393782 0.948657 0.369829 0.047232
H108  H     H_    0.398100 0.040911 0.376567 0.041988
H109  H     H_    0.524840 0.826676 0.355592 0.236251
H110  H     H_    0.530303 0.191593 0.345042 0.235055
H111  H     H_    0.021600 0.329577 0.360029 0.254148
H112  H     H_    0.029716 0.681197 0.346613 0.252195
H113  H     H_    0.477115 0.851654 0.453270 0.183874
H114  H     H_    0.433306 0.825304 0.061393 0.058809
H115  H     H_    0.493530 0.141476 0.420059 0.191097
H116  H     H_    0.973404 0.351948 0.459010 0.182851
H117  H     H_    0.986430 0.649543 0.440059 0.201235
H118  H     H_    0.570882 0.851198 0.451646 0.154783
H119  H     H_    0.588343 0.141753 0.419295 0.140253
H120  H     H_    0.067447 0.352173 0.456807 0.156066
H121  H     H_    0.083245 0.651904 0.433910 0.147486
H122  H     H_    0.419941 0.682859 0.056307 0.172667
H123  H     H_    0.400865 0.299187 0.057297 0.169515
H124  H     H_    0.900050 0.201400 0.058866 0.165897
H125  H     H_    0.456837 0.166153 0.058069 0.061955
H126  H     H_    0.887040 0.769005 0.056892 0.172634
H127  H     H_    0.494655 0.674106 0.930736 0.217819
H128  H     H_    0.471208 0.310048 0.931510 0.221263
H129  H     H_    0.967803 0.193482 0.932644 0.226002
H130  H     H_    0.952915 0.783905 0.931431 0.220406
H131  H     H_    0.484838 0.822824 0.937519 0.058341
H132  H     H_    0.508420 0.167038 0.935755 0.054927
H133  H     H_    0.012427 0.333608 0.938640 0.057726
H134  H     H_    0.041533 0.665819 0.933656 0.054399
H135  H     H_    0.360539 0.699384 0.947855 0.387914
H136  H     H_    0.958264 0.332195 0.062811 0.052982
H137  H     H_    0.351117 0.248571 0.947726 0.389531
H138  H     H_    0.853011 0.261482 0.945787 0.387291
H139  H     H_    0.862385 0.684782 0.950870 0.391718
H140  H     H_    0.282405 0.801802 0.107520 0.196690
H141  H     H_    0.345398 0.847113 0.070167 0.143001
H142  H     H_    0.279319 0.791782 0.222394 0.242906
H143  H     H_    0.339895 0.840357 0.187341 0.246616
H144  H     H_    0.268515 0.903768 0.184913 0.256742
H145  H     H_    0.233171 0.877681 0.276562 0.293337
H146  H     H_    0.207341 0.855144 0.221608 0.262753
H147  H     H_    0.991881 0.668740 0.055610 0.052972
H148  H     H_    0.293206 0.178187 0.176025 0.166964
H149  H     H_    0.363165 0.155803 0.164459 0.132012
H150  H     H_    0.311483 0.122488 0.075392 0.270344
H151  H     H_    0.385777 0.100248 0.055671 0.238198
H152  H     H_    0.329114 0.061136 0.180762 0.319932
H153  H     H_    0.297133 0.037908 0.132810 0.268094
H154  H     H_    0.253968 0.085701 0.204750 0.267198
H155  H     H_    0.807387 0.349812 0.106081 0.197129
H156  H     H_    0.881498 0.379215 0.072515 0.142646
H157  H     H_    0.796274 0.320309 0.221743 0.236132
H158  H     H_    0.613646 0.753647 0.933178 0.230733
H159  H     H_    0.868076 0.354737 0.190526 0.246521
H160  H     H_    0.817617 0.436741 0.190739 0.266871
H161  H     H_    0.772621 0.406346 0.280786 0.284915
H162  H     H_    0.745361 0.402283 0.222733 0.258758
H163  H     H_    0.834202 0.632511 0.171489 0.163212
H164  H     H_    0.907540 0.639048 0.159898 0.126514
H165  H     H_    0.878369 0.572924 0.067379 0.268107
H166  H     H_    0.957703 0.581607 0.041967 0.238015
H167  H     H_    0.928090 0.541837 0.158347 0.315194
H168  H     H_    0.906765 0.499975 0.112058 0.274641
O1    O     O_3   0.750020 0.750020 0.500000 -0.507754
O2    O     O_R   0.741140 0.134170 0.457020 -0.624776
O3    O     O_2   0.923374 0.618877 0.366820 -0.270221
O4    O     O_2   0.995026 0.546329 0.317055 -0.240401
O5    O     O_3   0.918822 0.558081 0.278055 -0.534916
O6    O     O_2   0.410408 0.941079 0.224260 -0.278930
O7    O     O_2   0.328095 0.884901 0.320476 -0.313764
O8    O     O_3   0.292058 0.970853 0.298223 -0.482477
O9    O     O_2   0.389550 0.118760 0.299528 -0.305860
O10   O     O_2   0.403769 0.044567 0.225166 -0.249827
O11   O     O_3   0.288090 0.075857 0.325979 -0.539530
O12   O     O_3   0.630078 0.825040 0.337530 -0.609051
O13   O     O_R   0.241140 0.365830 0.457020 -0.610338
O14   O     O_3   0.635400 0.196723 0.330236 -0.608859
O15   O     O_3   0.126935 0.329585 0.341192 -0.606811
O16   O     O_3   0.135764 0.687813 0.326198 -0.612624
O17   O     O_R   0.241140 0.634170 0.457020 -0.633880
O18   O     O_R   0.862350 0.719680 0.336040 -0.623528
O19   O     O_R   0.862350 0.280320 0.336040 -0.590350
O20   O     O_R   0.362350 0.219680 0.336040 -0.596796
O21   O     O_R   0.362350 0.780320 0.336040 -0.596906
O22   O     O_R   0.698420 0.780360 0.663960 -0.639605
O23   O     O_R   0.698420 0.219640 0.663960 -0.634206
O24   O     O_R   0.198420 0.280360 0.663960 -0.637674
O25   O     O_3   0.750020 0.249980 0.500000 -0.508250
O26   O     O_R   0.198420 0.719640 0.663960 -0.629022
O27   O     O_R   0.801620 0.780400 0.336040 -0.616051
O28   O     O_R   0.801620 0.219600 0.336040 -0.654320
O29   O     O_R   0.301620 0.280400 0.336040 -0.628918
O30   O     O_R   0.301620 0.719600 0.336040 -0.660996
O31   O     O_R   0.637700 0.719640 0.663960 -0.626610
O32   O     O_R   0.637700 0.280360 0.663960 -0.641749
O33   O     O_R   0.137700 0.219640 0.663960 -0.620945
O34   O     O_R   0.137700 0.780360 0.663960 -0.645205
O35   O     O_R   0.801870 0.634220 0.457010 -0.605503
O36   O     O_3   0.250020 0.250020 0.500000 -0.506189
O37   O     O_R   0.801870 0.365780 0.457010 -0.600927
O38   O     O_R   0.301870 0.134220 0.457010 -0.613819
O39   O     O_R   0.301870 0.865780 0.457010 -0.625995
O40   O     O_R   0.758890 0.865820 0.542980 -0.649417
O41   O     O_R   0.758890 0.134180 0.542980 -0.645130
O42   O     O_R   0.258890 0.365820 0.542980 -0.648903
O43   O     O_R   0.258890 0.634180 0.542980 -0.641322
O44   O     O_R   0.887320 0.719660 0.457000 -0.610389
O45   O     O_R   0.887320 0.280340 0.457000 -0.623843
O46   O     O_R   0.387320 0.219660 0.457000 -0.636585
O47   O     O_3   0.250020 0.749980 0.500000 -0.502001
O48   O     O_R   0.387320 0.780340 0.457000 -0.643675
O49   O     O_R   0.655700 0.780400 0.457020 -0.609105
O50   O     O_R   0.655700 0.219600 0.457020 -0.605425
O51   O     O_R   0.155700 0.280400 0.457020 -0.606482
O52   O     O_R   0.155700 0.719600 0.457020 -0.619075
O53   O     O_R   0.844340 0.780370 0.542980 -0.656373
O54   O     O_R   0.844340 0.219630 0.542980 -0.656834
O55   O     O_R   0.344340 0.280370 0.542980 -0.654954
O56   O     O_R   0.344340 0.719630 0.542980 -0.654691
O57   O     O_R   0.612730 0.719670 0.543000 -0.639847
O58   O     O_R   0.698170 0.634220 0.542990 -0.613787
O59   O     O_R   0.612730 0.280330 0.543000 -0.646046
O60   O     O_R   0.112730 0.219670 0.543000 -0.664925
O61   O     O_R   0.112730 0.780330 0.543000 -0.643925
O62   O     O_2   0.376346 0.802175 0.942556 -0.293800
O63   O     O_2   0.466933 0.753736 0.842307 -0.289489
O64   O     O_3   0.386527 0.706354 0.966226 -0.543713
O65   O     O_2   0.472723 0.215065 0.840969 -0.295616
O66   O     O_2   0.399951 0.155033 0.938781 -0.289179
O67   O     O_3   0.377598 0.252496 0.966078 -0.532128
O68   O     O_2   0.904274 0.352302 0.942103 -0.288682
O69   O     O_R   0.698170 0.365780 0.542990 -0.610898
O70   O     O_2   0.975834 0.293499 0.841217 -0.285853
O71   O     O_3   0.879245 0.254864 0.963969 -0.543029
O72   O     O_2   0.990961 0.683138 0.841459 -0.297588
O73   O     O_2   0.946881 0.615159 0.934161 -0.286091
O74   O     O_3   0.884882 0.701136 0.969497 -0.532158
O75   O     O_3   0.365517 0.770264 0.080832 -0.589898
O76   O     O_3   0.374929 0.202096 0.078487 -0.568031
O77   O     O_3   0.876901 0.298075 0.080160 -0.591793
O78   O     O_3   0.900817 0.672865 0.077964 -0.568687
O79   O     O_2   0.439084 0.640300 0.162954 -0.310558
O80   O     O_R   0.198170 0.134220 0.542990 -0.629545
O81   O     O_2   0.490024 0.593870 0.045634 -0.274165
O82   O     O_3   0.559803 0.654773 0.061664 -0.572040
O83   O     O_2   0.441617 0.402631 0.047667 -0.270464
O84   O     O_2   0.408096 0.359823 0.163130 -0.296491
O85   O     O_3   0.529162 0.366521 0.057823 -0.573594
O86   O     O_2   0.911658 0.139289 0.161511 -0.282763
O87   O     O_2   0.937704 0.097158 0.049061 -0.298836
O88   O     O_3   0.030611 0.129953 0.051667 -0.539366
O89   O     O_2   0.883335 0.878497 0.049521 -0.281984
O90   O     O_2   0.863455 0.847100 0.164962 -0.303787
O91   O     O_R   0.198170 0.865780 0.542990 -0.609416
O92   O     O_3   0.976371 0.881183 0.061808 -0.572120
O93   O     O_2   0.609231 0.121389 0.519067 -0.353677
O94   O     O_2   0.541282 0.048744 0.541220 -0.230927
O95   O     O_3   0.585125 0.056764 0.620576 -0.495148
O96   O     O_2   0.546113 0.945194 0.524938 -0.246919
O97   O     O_2   0.610914 0.880262 0.529953 -0.350751
O98   O     O_3   0.569874 0.955499 0.622770 -0.422397
O99   O     O_2   0.106614 0.621588 0.527938 -0.355466
O100  O     O_2   0.037828 0.549250 0.551237 -0.226743
O101  O     O_3   0.085563 0.555530 0.626618 -0.487330
O102  O     O_R   0.741140 0.865830 0.457020 -0.612227
O103  O     O_2   0.042780 0.445572 0.532847 -0.244554
O104  O     O_2   0.109673 0.380187 0.533082 -0.350532
O105  O     O_3   0.070364 0.454286 0.627472 -0.414410
O106  O     O_3   0.650581 0.552663 0.629592 -0.583476
O107  O     O_3   0.651102 0.446398 0.627673 -0.581751
O108  O     O_3   0.142797 0.053131 0.619302 -0.616771
O109  O     O_3   0.150120 0.946990 0.626233 -0.621317
O110  O     O_2   0.979058 0.459525 0.272823 -0.197298
O111  O     O_2   0.925640 0.381063 0.337948 -0.248611
O112  O     O_3   0.873235 0.436800 0.291725 -0.538193
S1    S     S_3+6 0.424540 0.761613 0.924980 0.037717
S2    S     S_3+6 0.596840 0.936730 0.536626 0.074524
S3    S     S_3+6 0.096123 0.565263 0.545251 0.068105
S4    S     S_3+6 0.095110 0.436626 0.541690 0.076751
S5    S     S_3+6 0.915050 0.436113 0.327581 0.102563
S6    S     S_3+6 0.929121 0.563380 0.345590 0.080823
S7    S     S_3+6 0.348033 0.939881 0.299922 0.072621
S8    S     S_3+6 0.362315 0.067531 0.301516 0.058657
S9    S     S_3+6 0.432726 0.205834 0.923328 0.046366
S10   S     S_3+6 0.935656 0.300501 0.924037 0.041503
S11   S     S_3+6 0.956321 0.672154 0.922899 0.046185
S12   S     S_3+6 0.488027 0.644022 0.080360 0.002201
S13   S     S_3+6 0.455678 0.358835 0.080111 0.010905
S14   S     S_3+6 0.956042 0.140059 0.078174 0.007290
S15   S     S_3+6 0.911686 0.849540 0.082121 0.004995
S16   S     S_3+6 0.598358 0.065258 0.537554 0.064577
Zn1   Zn    Zn3+2 0.675940 0.706640 0.561420 1.006781
Zn2   Zn    Zn3+2 0.762700 0.206610 0.561410 0.985957
Zn3   Zn    Zn3+2 0.262700 0.293390 0.561410 0.989574
Zn4   Zn    Zn3+2 0.262700 0.706610 0.561410 0.995708
Zn5   Zn    Zn3+2 0.737340 0.793410 0.438590 1.035385
Zn6   Zn    Zn3+2 0.737340 0.206590 0.438590 1.015681
Zn7   Zn    Zn3+2 0.237340 0.293410 0.438590 1.035657
Zn8   Zn    Zn3+2 0.237340 0.706590 0.438590 1.011576
Zn9   Zn    Zn3+2 0.675940 0.293360 0.561420 1.002922
Zn10  Zn    Zn3+2 0.175940 0.206640 0.561420 0.995738
Zn11  Zn    Zn3+2 0.175940 0.793360 0.561420 1.012171
Zn12  Zn    Zn3+2 0.824100 0.706650 0.438580 1.017019
Zn13  Zn    Zn3+2 0.824100 0.293350 0.438580 1.036078
Zn14  Zn    Zn3+2 0.324100 0.206650 0.438580 1.017782
Zn15  Zn    Zn3+2 0.324100 0.793350 0.438580 1.013427
Zn16  Zn    Zn3+2 0.762700 0.793390 0.561410 0.979166

loop_
_geom_bond_atom_site_label_1
_geom_bond_atom_site_label_2
_ccdc_geom_bond_type
C99   C103  S    
C50   H155  S    
C157  C158  A    
C104  C135  T    
C19   C155  S    
C142  C146  T    
C82   H77   S    
C59   H19   S    
C14   C170  S    
C17   C153  S    
C167  H101  S    
C79   C87   S    
C21   O44   A    
C92   C119  S    
C154  C158  A    
O64   S1    S    
C82   H75   S    
C72   H52   S    
H44   O5    S    
C103  O78   S    
C111  C142  S    
O54   Zn2   S    
C152  C156  A    
O55   Zn3   S    
C114  O32   A    
O13   Zn7   S    
C67   H39   S    
C93   C120  S    
C19   O42   A    
O60   Zn10  S    
C95   S1    S    
C14   H106  S    
C134  H24   S    
C83   C88   S    
O47   Zn4   S    
C1    O27   A    
C130  C134  S    
O82   S12   S    
C32   C57   A    
C94   H130  S    
C14   S6    S    
C45   H145  S    
O40   Zn16  S    
O102  Zn5   S    
C51   C52   S    
C124  C137  S    
O39   Zn15  S    
C86   C90   S    
O65   S9    D    
C73   H55   S    
C56   H12   S    
C48   H150  S    
C98   C102  S    
C1    O18   A    
C88   O14   S    
O36   Zn3   S    
C43   C44   S    
C45   H144  S    
C101  H125  S    
C24   C151  A    
O41   Zn2   S    
C89   H120  S    
O100  S3    D    
O85   S13   S    
C121  H126  S    
C128  H89   S    
C148  C149  A    
C76   O15   S    
O83   S13   D    
O70   S10   D    
C93   H85   S    
C130  H82   S    
C168  C169  S    
C53   H163  S    
C51   H159  S    
C143  C147  T    
C72   H53   S    
C29   O61   A    
C77   H66   S    
O63   S1    D    
C148  C153  A    
C164  O80   A    
C118  C162  A    
O34   Zn11  S    
C111  C133  S    
C69   H42   S    
O66   S9    D    
C112  C134  S    
C74   H59   S    
C115  O33   A    
O59   Zn9   S    
C116  C147  S    
O20   Zn14  S    
C119  C123  S    
C125  C138  S    
C79   H109  S    
C39   C118  A    
C33   C38   A    
C113  C144  S    
C82   H76   S    
O62   S1    D    
O11   S8    S    
C16   H108  S    
C50   O77   S    
O17   Zn8   S    
C28   O60   A    
O23   Zn2   S    
C91   H83   S    
C128  H80   S    
O35   Zn12  S    
C132  H46   S    
O49   Zn5   S    
O47   Zn15  S    
C21   C24   S    
C148  C167  S    
C86   H112  S    
C4    C161  S    
C67   C69   S    
C30   C87   S    
O29   Zn7   S    
C104  C107  S    
C40   C129  A    
C107  O30   A    
C114  O23   A    
O98   S2    S    
O71   S10   S    
C131  H35   S    
C6    C172  A    
C53   C54   S    
C5    C9    A    
C115  C146  S    
C4    C170  A    
C5    C163  S    
C62   H27   S    
O53   Zn16  S    
O88   S14   S    
C49   H154  S    
C22   O45   A    
O43   Zn4   S    
C65   H33   S    
C170  C171  A    
C100  H114  S    
C54   H166  S    
C87   H118  S    
O37   Zn13  S    
O1    Zn16  S    
O32   Zn9   S    
O9    S8    D    
O1    Zn5   S    
C41   C140  A    
C51   H157  S    
C31   C46   A    
C29   C38   S    
C165  O91   A    
C22   O54   A    
C18   C154  S    
C168  H102  S    
C66   C67   S    
C26   O49   A    
C98   H133  S    
C169  H104  S    
C60   O107  S    
O97   S2    D    
C60   H21   S    
C84   H111  S    
C78   H69   S    
C30   C34   A    
C155  C159  A    
C34   C39   A    
C119  H123  S    
C43   H140  S    
C156  C160  A    
C29   O52   A    
C120  H124  S    
O57   Zn1   S    
O25   Zn13  S    
C106  C137  T    
C97   S9    S    
C55   H168  S    
O110  S5    D    
O99   S3    D    
C110  C141  S    
C117  C122  S    
C121  C125  S    
O1    Zn1   S    
C161  O58   A    
C123  C127  S    
C60   H20   S    
O94   S16   D    
C76   H64   S    
C132  H2    S    
C32   C37   A    
H5    O85   S    
C42   C151  A    
C70   H48   S    
O105  S4    S    
C23   O55   A    
C150  C155  A    
C18   O41   A    
C85   C106  S    
C163  O37   A    
H4    O82   S    
C50   H156  S    
C54   C55   S    
C95   H131  S    
C63   H29   S    
C166  S16   S    
C58   H15   S    
C31   C36   A    
O84   S13   D    
C41   H92   S    
C62   H25   S    
O30   Zn8   S    
C27   O59   A    
O61   Zn11  S    
C141  C145  T    
C102  H136  S    
C85   O19   A    
C80   H71   S    
O103  S4    D    
C15   H107  S    
C71   C72   S    
C83   H110  S    
C80   O16   S    
C92   C110  S    
C94   H86   S    
C28   C37   S    
O7    S7    D    
H11   O105  S    
C94   C112  S    
C56   C58   S    
O22   Zn16  S    
C47   O76   S    
C120  S14   S    
C75   H60   S    
C103  C125  S    
O81   S12   D    
O24   Zn3   S    
C10   C11   A    
O56   Zn4   S    
C63   C64   S    
O80   Zn10  S    
C25   O56   A    
C2    C23   S    
C86   H117  S    
O91   Zn11  S    
O4    S6    D    
C12   H105  S    
C33   C68   A    
H10   O101  S    
C79   H113  S    
C96   C105  S    
C78   H67   S    
C73   C74   S    
C17   O102  A    
C39   H1    S    
C87   O12   S    
O44   Zn12  S    
C107  O21   A    
O18   Zn12  S    
O89   S15   D    
C77   C78   S    
C159  H94   S    
C126  H87   S    
O74   S11   S    
C112  C143  S    
O68   S10   D    
C115  O24   A    
C3    C7    A    
C3    C172  A    
H47   O11   S    
C52   H161  S    
C63   H28   S    
O31   Zn1   S    
C75   H62   S    
O25   Zn6   S    
C27   O50   A    
H139  O74   S    
C11   O109  S    
C109  C131  S    
C91   C117  S    
C110  C132  S    
C70   C71   S    
C61   H23   S    
O3    S6    D    
C4    C8    A    
C124  C128  S    
O5    S6    S    
C7    C165  S    
C158  H93   S    
C72   H54   S    
C77   H65   S    
C102  O77   S    
C102  C124  S    
C81   H74   S    
C152  C168  S    
C12   C171  S    
C121  S15   S    
C90   H121  S    
C83   H115  S    
C103  H147  S    
C13   C140  A    
C69   H41   S    
C114  C145  S    
O48   Zn15  S    
C8    O106  S    
C95   C100  S    
C58   C59   S    
C16   S8    S    
O95   S16   S    
C47   H149  S    
C60   C61   S    
O26   Zn4   S    
C149  C154  A    
C28   O51   A    
C66   H36   S    
C97   C101  S    
C159  C160  A    
O86   S14   D    
C21   O53   A    
C117  S12   S    
C50   C51   S    
C19   O13   A    
C57   C84   S    
C97   H132  S    
C78   H70   S    
O101  S3    S    
C130  H90   S    
O8    S7    S    
C89   O15   S    
C118  H96   S    
C42   H103  S    
C92   H84   S    
C48   C49   S    
C64   H31   S    
C56   H14   S    
C43   O75   S    
C95   C109  S    
H7    O92   S    
C44   H143  S    
C45   H146  S    
O25   Zn9   S    
C44   C45   S    
C71   H50   S    
C66   O109  S    
O36   Zn10  S    
C31   C88   S    
C166  H100  S    
C101  O76   S    
C6    C10   A    
C73   H56   S    
C164  O38   A    
C27   C36   S    
O19   Zn13  S    
C117  H122  S    
C126  H78   S    
C64   C65   S    
C49   H153  S    
H45   O8    S    
C108  C138  T    
C113  O22   A    
C65   H32   S    
O36   Zn7   S    
C140  H98   S    
C13   C22   S    
O21   Zn15  S    
C116  O26   A    
C153  C157  A    
C96   O29   A    
O1    Zn12  S    
C133  H57   S    
C122  C135  S    
O96   S2    D    
C24   C68   A    
C46   C83   S    
C94   C121  S    
C53   H164  S    
C13   C57   A    
O46   Zn14  S    
C44   H142  S    
O45   Zn13  S    
C47   H148  S    
C59   H18   S    
O112  S5    S    
C128  C133  S    
C23   O46   A    
C99   S11   S    
C70   O12   S    
C88   H119  S    
C68   C86   S    
C17   O40   A    
O73   S11   D    
C74   H58   S    
C70   H49   S    
C81   C82   S    
C2    C46   A    
C7    C11   A    
C101  C123  S    
C30   C35   A    
C92   H128  S    
C169  S4    S    
H135  O64   S    
O93   S16   D    
C93   H129  S    
C49   H152  S    
C38   C42   A    
C96   O20   A    
C150  C169  S    
O104  S4    D    
C55   H167  S    
C15   C16   S    
O38   Zn14  S    
O79   S12   D    
C67   H38   S    
O2    Zn6   S    
C35   C79   S    
O72   S11   D    
C127  C132  S    
C99   H134  S    
C125  C130  S    
C26   C34   S    
C32   C89   S    
C8    C9    A    
C52   H160  S    
C15   S7    S    
C75   H61   S    
C91   H127  S    
C127  H79   S    
C85   O28   A    
O51   Zn7   S    
C37   C41   A    
C100  O75   S    
O33   Zn10  S    
C61   C62   S    
C167  S2    S    
C116  O34   A    
C48   H151  S    
C35   C162  A    
C71   H51   S    
C74   C75   S    
C43   H141  S    
C58   H16   S    
O90   S15   D    
C81   H73   S    
C36   C40   A    
C129  H97   S    
C76   C77   S    
C62   H26   S    
O25   Zn2   S    
O42   Zn3   S    
H138  O71   S    
C69   H40   S    
C131  H158  S    
C98   S10   S    
C80   H72   S    
C65   H34   S    
O111  S5    D    
O50   Zn6   S    
C25   O48   A    
C54   H165  S    
O67   S9    S    
C163  O69   A    
O47   Zn8   S    
C113  O31   A    
C122  C126  S    
O69   Zn9   S    
C168  S3    S    
C139  C144  T    
C16   C172  S    
C47   C48   S    
C12   S5    S    
C25   C162  S    
C5    C171  A    
H8    O95   S    
H9    O98   S    
C84   H116  S    
C66   H37   S    
O58   Zn1   S    
C55   H3    S    
C18   O2    A    
C160  H95   S    
C105  C136  T    
C93   C111  S    
C166  C167  S    
C150  C152  A    
C53   O78   S    
C90   O16   S    
O10   S8    D    
C84   C89   S    
C40   H81   S    
C63   O108  S    
O36   Zn14  S    
C3    C15   S    
O6    S7    D    
C165  O39   A    
C64   H30   S    
H6    O88   S    
C98   C111  S    
C20   C156  S    
C157  H91   S    
C134  H68   S    
O28   Zn6   S    
C149  C166  S    
C6    C164  S    
C80   C81   S    
O52   Zn8   S    
C133  H13   S    
C26   O57   A    
O92   S15   S    
C123  C136  S    
C109  C139  S    
C9    O107  S    
C91   C109  S    
C12   C14   S    
C33   C90   S    
C97   C110  S    
C151  H99   S    
O87   S14   D    
C126  C131  S    
C52   H162  S    
C99   C112  S    
H43   O112  S    
C161  O35   A    
C76   H63   S    
C100  C122  S    
C73   O14   S    
C56   O106  S    
C119  S13   S    
C59   H17   S    
C1    C108  S    
C20   O43   A    
C2    C129  A    
H137  O67   S    
C127  H88   S    
O47   Zn11  S    
C20   O17   A    
O27   Zn5   S    
C61   H22   S    
C10   O108  S    
C120  C124  S    
