data_mof_unit_32472.cif
_audit_creation_date              2012-12-10T17:33:01-0500
_audit_creation_method            fapswitch 2.2
_symmetry_space_group_name_H-M    P1
_symmetry_Int_Tables_number       1
_space_group_crystal_system       triclinic
_cell_length_a                    12.354854
_cell_length_b                    13.184682
_cell_length_c                    14.277956
_cell_angle_alpha                 93.331145
_cell_angle_beta                  107.936206
_cell_angle_gamma                 116.950217
_cell_volume                      1918.13447236

loop_
_atom_site_label
_atom_site_type_symbol
_atom_type_description
_atom_site_fract_x
_atom_site_fract_y
_atom_site_fract_z
_atom_type_partial_charge
C1    C     C_R   0.651994 0.715220 0.510382 0.816967
C2    C     C_R   0.831989 0.476670 0.917509 0.086462
C3    C     C_R   0.783943 0.497118 0.990457 0.107402
C4    C     C_R   0.930795 0.444486 0.944596 0.034511
C5    C     C_R   0.993238 0.449360 0.048064 0.012319
C6    C     C_R   0.933945 0.458781 0.117494 0.139186
C7    C     C_R   0.832797 0.484773 0.088116 -0.205931
C8    C     C_R   0.966306 0.403949 0.871175 -0.196392
C9    C     C_R   0.067964 0.379040 0.899193 -0.217399
C10   C     C_R   0.142879 0.400895 0.000996 0.169574
C11   C     C_R   0.109781 0.441455 0.076231 0.087318
C12   C     C_R   0.618369 0.516309 0.686766 0.793851
C13   C     C_R   0.252509 0.385118 0.028632 -0.199304
C14   C     C_R   0.331512 0.411959 0.130355 -0.197242
C15   C     C_R   0.199365 0.480458 0.176464 -0.268109
C16   C     C_R   0.135809 0.963234 0.358823 0.162656
C17   C     C_R   0.248313 0.160865 0.461939 -0.085775
C18   C     C_R   0.736023 0.927866 0.578451 0.145685
C19   C     C_R   0.825298 0.046399 0.592214 0.169973
C20   C     C_R   0.922899 0.077252 0.552422 -0.260310
C21   C     C_R   0.931045 0.991637 0.495210 0.063202
C22   C     C_R   0.828537 0.874408 0.467665 0.031843
C23   C     C_R   0.345091 0.284811 0.484627 0.817568
C24   C     C_R   0.036806 0.019742 0.462524 0.059862
C25   C     C_R   0.030777 0.934833 0.391941 0.146646
C26   C     C_R   0.918601 0.824244 0.354134 -0.219887
C27   C     C_R   0.818918 0.794901 0.390627 -0.192146
C28   C     C_R   0.149739 0.129879 0.499998 -0.262096
C29   C     C_R   0.243256 0.077353 0.393170 -0.231211
C30   C     C_R   0.737535 0.840538 0.516660 -0.160937
C31   C     C_R   0.255425 0.688460 0.660336 -0.304863
C32   C     C_R   0.653620 0.338624 0.366050 0.054804
C33   C     C_R   0.730124 0.299031 0.340265 -0.237832
C34   C     C_R   0.380414 0.481854 0.313035 0.787930
C35   C     C_R   0.865509 0.357792 0.392534 -0.172417
C36   C     C_R   0.927081 0.458993 0.470441 -0.017007
C37   C     C_R   0.843941 0.494530 0.496125 0.287120
C38   C     C_R   0.067226 0.525104 0.524697 -0.042049
C39   C     C_R   0.119948 0.622523 0.605261 0.176884
C40   C     C_R   0.037417 0.653825 0.630774 -0.282792
C41   C     C_R   0.902977 0.591622 0.577488 -0.192705
C42   C     C_R   0.158645 0.500157 0.502559 0.001601
C43   C     C_R   0.339340 0.658888 0.635384 0.073373
C44   C     C_R   0.678652 0.516400 0.792869 -0.055252
C45   C     C_R   0.305183 0.460162 0.204898 -0.050298
C46   C     C_R   0.683693 0.525642 0.963964 -0.185934
C47   C     C_R   0.630426 0.534109 0.865463 -0.186354
C48   C     C_R   0.781181 0.491421 0.820093 -0.238922
Cu1   Cu    Cu3+1 0.416420 0.526630 0.522910 0.938490
Cu2   Cu    Cu3+1 0.583580 0.473370 0.477090 0.916319
H1    H     H_    0.276759 0.351681 0.971625 0.134187
H2    H     H_    0.320636 0.101883 0.363936 0.143399
H3    H     H_    0.907146 0.759160 0.296330 0.169164
H4    H     H_    0.163750 0.194528 0.559108 0.154760
H5    H     H_    0.732688 0.709956 0.355088 0.172087
H6    H     H_    0.443806 0.709495 0.677982 0.140243
H7    H     H_    0.189672 0.529404 0.233242 0.161504
H8    H     H_    0.077339 0.727940 0.692809 0.155298
H9    H     H_    0.296293 0.762728 0.722416 0.139935
H10   H     H_    0.127059 0.428707 0.441542 0.124491
H11   H     H_    0.919580 0.321826 0.371017 0.145608
H12   H     H_    0.684152 0.221891 0.279957 0.148822
H13   H     H_    0.848885 0.622552 0.603625 0.206230
H14   H     H_    0.091268 0.346903 0.840777 0.142255
H15   H     H_    0.645193 0.539738 0.019136 0.131363
N1    N     N_R   0.290690 0.566960 0.557640 -0.176873
N2    N     N_R   0.709100 0.433710 0.442970 -0.203068
O1    O     O_R   0.545970 0.684450 0.528810 -0.540070
O2    O     O_R   0.687130 0.639470 0.490120 -0.608559
O3    O     O_R   0.519670 0.535100 0.660030 -0.582540
O4    O     O_R   0.660830 0.490120 0.621340 -0.600998
O5    O     O_R   0.312870 0.360530 0.509880 -0.585652
O6    O     O_R   0.454030 0.315550 0.471190 -0.585522
O7    O     O_R   0.339170 0.509880 0.378660 -0.586989
O8    O     O_R   0.480330 0.464900 0.339970 -0.595099
H16   H     H_    0.789641 0.492368 0.141981 0.155327
N3    N     N_3   0.131157 0.877338 0.288409 -0.604269
H17   H     H_    0.140371 0.814660 0.326654 0.214388
H18   H     H_    0.211435 0.914933 0.266353 0.216027
N4    N     N_3   0.645593 0.896260 0.629263 -0.577609
H19   H     H_    0.698807 0.930653 0.707071 0.230880
H20   H     H_    0.586260 0.933620 0.604518 0.222173
H21   H     H_    0.988495 0.169453 0.564357 0.136487
N5    N     N_3   0.819049 0.134859 0.650597 -0.600362
H22   H     H_    0.735440 0.137769 0.607676 0.216084
H23   H     H_    0.898912 0.217515 0.662033 0.210076
H24   H     H_    0.548575 0.291684 0.325528 0.122775
H25   H     H_    0.413303 0.395771 0.150460 0.150310
H26   H     H_    0.550990 0.553473 0.846037 0.153050
H27   H     H_    0.821228 0.485308 0.764208 0.152697
N6    N     N_3   0.956437 0.423037 0.211340 -0.609344
H28   H     H_    0.987636 0.361549 0.210342 0.226585
H29   H     H_    0.022126 0.496473 0.271247 0.215985
H30   H     H_    0.913783 0.386098 0.790904 0.146382

loop_
_geom_bond_atom_site_label_1
_geom_bond_atom_site_label_2
_ccdc_geom_bond_type
Cu1   O1    S    
C9    H14   S    
C17   C29   A    
C35   C36   A    
C4    C8    A    
N3    H17   S    
C26   C27   A    
C17   C23   S    
C31   C43   A    
C36   C37   A    
Cu2   O2    S    
N5    H23   S    
C38   C42   A    
C3    C7    A    
C5    C6    A    
C27   H5    S    
C6    N6    S    
C1    O1    A    
C18   C19   A    
C31   H9    S    
C13   H1    S    
C11   C15   A    
C19   C20   A    
C8    C9    A    
Cu1   O5    S    
C18   C30   A    
Cu2   N2    S    
C44   C47   A    
C34   O8    A    
C48   H27   S    
C21   C22   A    
C15   H7    S    
C23   O6    A    
C14   C45   A    
N3    H18   S    
C40   H8    S    
Cu1   N1    S    
C8    H30   S    
C24   C25   A    
C46   H15   S    
N4    H20   S    
Cu2   O6    S    
C42   H10   S    
N6    H28   S    
C28   H4    S    
C33   H12   S    
C2    C48   A    
C16   C29   A    
C32   H24   S    
C1    O2    A    
C2    C4    A    
Cu2   O4    S    
N6    H29   S    
C35   H11   S    
C34   C45   S    
N5    H22   S    
C6    C7    A    
C34   O7    A    
C32   N2    A    
C40   C41   A    
C12   O4    A    
C47   H26   S    
C22   C27   A    
C21   C24   A    
C41   H13   S    
C19   N5    S    
C26   H3    S    
C39   C40   A    
C9    C10   A    
C16   C25   A    
C12   O3    A    
C46   C47   A    
C22   C30   A    
C17   C28   A    
C23   O5    A    
C24   C28   A    
N4    H19   S    
C10   C13   A    
C5    C11   A    
C7    H16   S    
C3    C46   A    
Cu1   O3    S    
C32   C33   A    
C36   C38   A    
C2    C3    A    
C25   C26   A    
C14   H25   S    
C12   C44   S    
Cu2   O8    S    
C38   C39   A    
C43   N1    A    
C37   N2    A    
C1    C30   S    
C33   C35   A    
C31   C39   A    
C37   C41   A    
C10   C11   A    
C43   H6    S    
C4    C5    A    
C20   C21   A    
C18   N4    S    
Cu1   Cu2   S    
C20   H21   S    
C42   N1    A    
C15   C45   A    
Cu1   O7    S    
C16   N3    S    
C13   C14   A    
C44   C48   A    
C29   H2    S    
