data_mof_unit_23379.cif
_audit_creation_date              2012-12-11T15:29:29-0500
_audit_creation_method            fapswitch 2.2
_symmetry_space_group_name_H-M    P1
_symmetry_Int_Tables_number       1
_space_group_crystal_system       triclinic
_cell_length_a                    13.562345
_cell_length_b                    13.593727
_cell_length_c                    27.505445
_cell_angle_alpha                 90.6044
_cell_angle_beta                  90.213751
_cell_angle_gamma                 60.146304
_cell_volume                      4397.80717144

loop_
_atom_site_label
_atom_site_type_symbol
_atom_type_description
_atom_site_fract_x
_atom_site_fract_y
_atom_site_fract_z
_atom_type_partial_charge
C1    C     C_R   0.621362 0.101086 0.569529 0.560160
C2    C     C_1   0.629169 0.728885 0.614651 0.043828
C3    C     C_3   0.634664 0.599938 0.772013 0.015495
C4    C     C_3   0.671218 0.669008 0.805116 0.009479
C5    C     C_3   0.553233 0.709199 0.744692 0.036122
C6    C     C_3   0.649962 0.684985 0.709001 0.028358
C7    C     C_3   0.588455 0.779412 0.777926 -0.183799
C8    C     C_3   0.686148 0.753855 0.741519 -0.020750
C9    C     C_1   0.683104 0.646249 0.857810 0.032219
C10   C     C_1   0.641512 0.701886 0.656513 0.038714
C11   C     C_3   0.106191 0.156510 0.738992 -0.031868
C12   C     C_R   0.599947 0.778072 0.567738 0.549667
C13   C     C_3   0.173639 0.058500 0.774608 -0.005024
C14   C     C_1   0.108321 0.190458 0.903696 0.082363
C15   C     C_1   0.251905 0.129331 0.621252 0.069697
C16   C     C_3   0.108261 0.241319 0.776055 -0.002819
C17   C     C_3   0.174983 0.143458 0.811647 0.081352
C18   C     C_3   0.220373 0.224741 0.754488 -0.096394
C19   C     C_3   0.218663 0.138284 0.717600 0.025300
C20   C     C_3   0.286341 0.126180 0.790361 0.010292
C21   C     C_3   0.287368 0.039138 0.752947 -0.140238
C22   C     C_1   0.144384 0.161555 0.863184 0.116377
C23   C     C_R   0.283498 0.119336 0.570841 0.552369
C24   C     C_1   0.236321 0.134174 0.664635 0.073595
C25   C     C_3   0.638850 0.271850 0.738504 -0.136051
C26   C     C_3   0.556867 0.257856 0.773211 0.003770
C27   C     C_1   0.686629 0.206737 0.902562 0.067505
C28   C     C_1   0.641822 0.132784 0.616829 0.068252
C29   C     C_3   0.738535 0.198502 0.773506 -0.006097
C30   C     C_3   0.656085 0.186295 0.808016 0.024138
C31   C     C_3   0.762610 0.089091 0.746342 0.041062
C32   C     C_3   0.663203 0.161567 0.711676 0.028144
C33   C     C_3   0.680157 0.076843 0.780958 -0.043882
C34   C     C_R   0.622896 0.100601 0.431959 0.574140
C35   C     C_3   0.580719 0.148438 0.745989 -0.048171
C36   C     C_1   0.666168 0.197062 0.860716 0.070962
C37   C     C_1   0.655847 0.149005 0.658831 0.079877
C38   C     C_R   0.642621 0.716700 0.384519 0.023945
C39   C     C_R   0.727924 0.725791 0.359659 -0.118860
C40   C     C_R   0.743802 0.702156 0.310415 -0.118926
C41   C     C_R   0.677117 0.665754 0.285693 0.043953
C42   C     C_R   0.601386 0.643684 0.311662 -0.110701
C43   C     C_R   0.583435 0.670006 0.360933 -0.125544
C44   C     C_R   0.582911 0.691301 0.205486 -0.118913
C45   C     C_R   0.602105 0.776250 0.430849 0.542540
C46   C     C_R   0.589567 0.673796 0.155505 -0.121565
C47   C     C_R   0.793463 0.599484 0.159020 -0.109524
C48   C     C_R   0.787137 0.614540 0.208916 -0.074470
C49   C     C_R   0.682451 0.656932 0.232667 0.054547
C50   C     C_R   0.695662 0.623265 0.132361 0.022575
C51   C     C_R   0.217923 0.141001 0.385338 0.025347
C52   C     C_R   0.233846 0.047912 0.356920 -0.120158
C53   C     C_R   0.203592 0.062434 0.308278 -0.122318
C54   C     C_R   0.154855 0.170539 0.287683 0.038370
C55   C     C_R   0.129168 0.265147 0.317204 -0.104290
C56   C     C_R   0.278048 0.120511 0.431471 0.539823
C57   C     C_R   0.161258 0.250365 0.365806 -0.121374
C58   C     C_R   0.160629 0.257352 0.209238 -0.111225
C59   C     C_R   0.139186 0.272036 0.159586 -0.121732
C60   C     C_R   0.077699 0.132158 0.160755 -0.119240
C61   C     C_R   0.096900 0.119281 0.210314 -0.099017
C62   C     C_R   0.136564 0.183150 0.235088 0.055368
C63   C     C_R   0.094947 0.211452 0.135264 0.026351
C64   C     C_R   0.647535 0.138821 0.385910 0.013249
C65   C     C_R   0.582765 0.251628 0.368973 0.002960
C66   C     C_R   0.590932 0.273243 0.319995 -0.167319
C67   C     C_3   0.731560 0.576352 0.736018 -0.060895
C68   C     C_R   0.666922 0.186812 0.288807 -0.038896
C69   C     C_R   0.740074 0.077295 0.306601 0.016331
C70   C     C_R   0.728714 0.054536 0.354921 -0.111018
C71   C     C_R   0.623977 0.166954 0.203493 -0.132820
C72   C     C_R   0.638009 0.174853 0.153856 -0.142609
C73   C     C_R   0.736727 0.278908 0.171649 -0.079373
C74   C     C_R   0.725283 0.269912 0.221602 0.012298
C75   C     C_R   0.669106 0.212094 0.237386 -0.028186
C76   C     C_R   0.695477 0.229734 0.138174 0.013613
C77   C     C_R   0.051399 0.233626 0.948936 0.553461
C78   C     C_3   0.768165 0.645087 0.768966 -0.014886
C79   C     C_R   0.711739 0.562431 0.946466 0.549421
C80   C     C_R   0.721791 0.224085 0.949519 0.552229
C81   C     C_R   0.046105 0.244736 0.086724 0.535213
C82   C     C_R   0.709921 0.571052 0.084511 0.538218
C83   C     C_R   0.720315 0.233762 0.087395 0.528209
C84   C     C_1   0.694535 0.614561 0.899451 0.041185
Cr1   Cr    Cr6+3 0.417550 0.169090 0.500530 1.098881
Cr2   Cr    Cr6+3 0.669180 0.913420 0.499920 1.055611
Cr3   Cr    Cr6+3 0.413260 0.917540 0.499520 1.064026
Cr4   Cr    Cr6+3 0.909770 0.175810 0.018240 1.066179
Cr5   Cr    Cr6+3 0.913300 0.427650 0.016090 1.068193
Cr6   Cr    Cr6+3 0.657770 0.431010 0.016900 1.060694
H1    H     H_    0.238107 0.294189 0.746220 0.165050
H2    H     H_    0.622631 0.350942 0.720370 0.200120
H3    H     H_    0.513069 0.693463 0.135495 0.134871
H4    H     H_    0.802816 0.719808 0.291279 0.145620
H5    H     H_    0.876741 0.559774 0.142161 0.139296
H6    H     H_    0.518618 0.660543 0.379710 0.136659
H7    H     H_    0.076713 0.062336 0.229492 0.111702
H8    H     H_    0.147087 0.323442 0.387355 0.136509
H9    H     H_    0.606325 0.136689 0.127957 0.118494
H10   H     H_    0.538872 0.358223 0.305969 0.103016
H11   H     H_    0.530073 0.862352 0.795018 0.150646
H12   H     H_    0.781442 0.320981 0.158451 0.156458
O1    O     O_R   0.301780 0.195490 0.553940 -0.490501
O2    O     O_R   0.658840 0.818280 0.449970 -0.509848
O3    O     O_R   0.503160 0.801780 0.445740 -0.515464
O4    O     O_R   0.319320 0.022190 0.450230 -0.504477
O5    O     O_3   0.499990 0.000010 0.499990 -0.278973
O6    O     O_R   0.819250 0.149410 0.965240 -0.474279
O7    O     O_R   0.006940 0.180310 0.968270 -0.481490
O8    O     O_R   0.028420 0.332670 0.963010 -0.479926
O9    O     O_R   0.810130 0.520390 0.966030 -0.474455
O10   O     O_R   0.636050 0.541380 0.962520 -0.495431
O11   O     O_R   0.666480 0.323610 0.968170 -0.492624
O12   O     O_R   0.522450 0.158840 0.550250 -0.473302
O13   O     O_R   0.817280 0.156800 0.072180 -0.513356
O14   O     O_R   0.005110 0.187160 0.067410 -0.511507
O15   O     O_R   0.026450 0.340060 0.069950 -0.519461
O16   O     O_R   0.808300 0.527240 0.065170 -0.508673
O17   O     O_R   0.634070 0.548770 0.069460 -0.512463
O18   O     O_R   0.664650 0.330470 0.067300 -0.496670
O19   O     O_3   0.826940 0.344820 0.017080 -0.272153
O20   O     O_R   0.694460 0.003360 0.553820 -0.489792
O21   O     O_R   0.657750 0.819520 0.549120 -0.496669
O22   O     O_R   0.501990 0.803120 0.552700 -0.479216
O23   O     O_R   0.318230 0.023430 0.549370 -0.490201
O24   O     O_R   0.302950 0.194150 0.446980 -0.513821
O25   O     O_R   0.523540 0.157600 0.451100 -0.453774
O26   O     O_R   0.695630 0.002030 0.446860 -0.530476
C85   C     C_2   0.885541 0.619670 0.781948 0.346135
H13   H     H_    0.952336 0.584033 0.754731 0.125654
O27   O     O_2   0.905734 0.642212 0.822529 -0.380421
C86   C     C_2   0.380783 0.111067 0.823403 0.193676
H14   H     H_    0.412355 0.170066 0.822313 0.135868
O28   O     O_2   0.420412 0.034043 0.852681 -0.519127
C87   C     C_2   0.016628 0.352369 0.795189 0.206929
H15   H     H_    0.929199 0.384372 0.785394 0.073815
O29   O     O_2   0.040638 0.404216 0.824963 -0.460699
C88   C     C_2   0.440271 0.350222 0.787034 0.295518
H16   H     H_    0.377173 0.393261 0.758988 0.150360
O30   O     O_2   0.415638 0.377337 0.829581 -0.460400
C89   C     C_2   0.495046 0.120591 0.725904 0.159176
H17   H     H_    0.494075 0.045452 0.737694 0.079536
O31   O     O_2   0.428057 0.181046 0.695043 -0.531306
C90   C     C_2   0.700756 0.974104 0.808560 0.257551
H18   H     H_    0.631075 0.959128 0.815774 0.121422
O32   O     O_2   0.794792 0.909800 0.824951 -0.411042
C91   C     C_2   0.878150 0.994801 0.732424 0.303572
H19   H     H_    0.940192 0.949110 0.760490 0.175673
O33   O     O_2   0.903017 0.968968 0.689791 -0.469659
C92   C     C_2   0.826031 0.227225 0.790181 0.177106
H20   H     H_    0.829077 0.297311 0.773796 0.104893
O34   O     O_2   0.894815 0.171024 0.821363 -0.494316
H21   H     H_    0.775557 0.760909 0.377038 0.147869
C93   C     C_2   0.804730 0.470137 0.707893 0.204874
H22   H     H_    0.893951 0.442382 0.702470 0.131842
O35   O     O_2   0.762734 0.418733 0.688367 -0.466486
H23   H     H_    0.500548 0.728352 0.223020 0.104097
H24   H     H_    0.865160 0.587157 0.229046 0.121200
H25   H     H_    0.552379 0.611182 0.293449 0.108367
H26   H     H_    0.277828 0.962510 0.371084 0.138617
H27   H     H_    0.194365 0.305187 0.227523 0.103972
H28   H     H_    0.152891 0.333758 0.140714 0.130480
C94   C     C_2   0.716989 0.834188 0.718270 0.218737
H29   H     H_    0.653777 0.905875 0.698101 0.094827
O36   O     O_2   0.814622 0.815614 0.719343 -0.450366
H30   H     H_    0.224737 0.988026 0.286230 0.106659
H31   H     H_    0.042214 0.085076 0.143181 0.138528
H32   H     H_    0.088251 0.349797 0.302275 0.122819
C95   C     C_2   0.508271 0.349738 0.400622 0.241109
H33   H     H_    0.438658 0.425344 0.384738 0.091474
O37   O     O_2   0.527394 0.350191 0.444008 -0.474150
H34   H     H_    0.581808 0.121711 0.215719 0.128557
C96   C     C_2   0.776650 0.316015 0.256446 0.210552
H35   H     H_    0.770400 0.308060 0.295326 0.128152
O38   O     O_2   0.827468 0.363278 0.242094 -0.522582
C97   C     C_2   0.827302 0.985899 0.275060 0.211766
H36   H     H_    0.841577 0.003624 0.238211 0.123369
O39   O     O_2   0.885180 0.889276 0.289968 -0.537055
H37   H     H_    0.780582 0.968589 0.367787 0.179067
C98   C     C_2   0.433579 0.742102 0.731338 0.270054
H38   H     H_    0.372617 0.756343 0.759776 0.145448
O40   O     O_2   0.404018 0.753344 0.688863 -0.483206
C99   C     C_2   0.604709 0.515959 0.791831 0.237798
H39   H     H_    0.665512 0.446593 0.813863 0.097550
O41   O     O_2   0.510706 0.527577 0.784893 -0.483686
C100  C     C_2   0.149643 0.964644 0.785032 0.241969
H40   H     H_    0.150412 0.910726 0.755528 0.117637
O42   O     O_2   0.129487 0.948166 0.826396 -0.429575
C101  C     C_2   0.010998 0.169652 0.707003 0.230050
H41   H     H_    0.966873 0.124309 0.715031 0.136895
O43   O     O_2   0.983990 0.229999 0.671305 -0.468407
H42   H     H_    0.363194 0.958608 0.742238 0.114754

loop_
_geom_bond_atom_site_label_1
_geom_bond_atom_site_label_2
_ccdc_geom_bond_type
C44   C49   A    
C58   C62   A    
C66   C68   A    
C4    C9    S    
C52   H26   S    
Cr3   O4    S    
C41   C42   A    
C34   O25   A    
Cr2   O5    S    
Cr6   O10   S    
C72   C76   A    
C2    C12   S    
C73   C76   A    
C7    C8    S    
C53   C54   A    
C98   H38   S    
C68   C75   S    
C12   O21   A    
C11   C19   S    
C79   O10   A    
C63   C81   S    
C60   C63   A    
C18   H1    S    
C82   O17   A    
Cr1   O12   S    
C94   O36   D    
C78   C85   S    
C18   C19   S    
C99   O41   D    
C5    C6    S    
Cr4   O6    S    
C70   H37   S    
Cr6   O11   S    
C81   O15   A    
C17   C20   S    
C51   C56   S    
C73   C74   A    
C14   C77   S    
C66   H10   S    
C101  O43   D    
C1    O20   A    
C38   C45   S    
C91   H19   S    
C29   C92   S    
C23   O1    A    
C42   H25   S    
C98   O40   D    
C16   C17   S    
C12   O22   A    
Cr2   O20   S    
C1    C28   S    
C31   C33   S    
C51   C57   A    
C69   C97   S    
C56   O24   A    
C93   O35   D    
C61   C62   A    
Cr1   O1    S    
C23   O23   A    
C31   C91   S    
C25   C32   S    
C15   C23   S    
Cr2   O2    S    
C30   C33   S    
Cr5   O9    S    
C8    C78   S    
C44   H23   S    
C95   O37   D    
Cr1   O24   S    
C77   O8    A    
C67   C78   S    
C55   H32   S    
C20   C86   S    
C4    C7    S    
C30   C36   S    
Cr3   O22   S    
C76   C83   S    
C41   C49   S    
C45   O3    A    
C44   C46   A    
C47   C50   A    
C96   O38   D    
C33   C90   S    
C25   C29   S    
C3    C67   S    
C91   O33   D    
C60   H31   S    
C74   C75   A    
Cr2   O26   S    
C51   C52   A    
C32   C35   S    
C83   O13   A    
C87   H15   S    
C74   C96   S    
C90   O32   D    
C27   C80   S    
C39   C40   A    
C5    C7    S    
C68   C69   A    
C21   H42   S    
C6    C8    S    
C80   O11   A    
C54   C62   S    
C3    C5    S    
C25   C26   S    
C96   H35   S    
C48   H24   S    
Cr5   O8    S    
C65   C95   S    
C60   C61   A    
C11   C101  S    
Cr6   O18   S    
C83   O18   A    
Cr4   O14   S    
C99   H39   S    
C5    C98   S    
C4    C78   S    
C29   C30   S    
C45   O2    A    
C67   C93   S    
C11   C16   S    
C26   C35   S    
C47   C48   A    
Cr3   O3    S    
C34   C64   S    
C43   H6    S    
C13   C21   S    
C95   H33   S    
C32   C37   S    
Cr5   O16   S    
C77   O7    A    
C56   O4    A    
C93   H22   S    
C88   O30   D    
C35   C89   S    
Cr4   O7    S    
C34   O26   A    
C97   H36   S    
C39   H21   S    
C26   C30   S    
C64   C70   A    
C55   C57   A    
C7    H11   S    
Cr6   O19   S    
C92   O34   D    
Cr1   O25   S    
C1    O12   A    
C82   O16   A    
C100  O42   D    
C3    C4    S    
C2    C10   T    
Cr3   O23   S    
C52   C53   A    
C50   C82   S    
C85   H13   S    
C16   C87   S    
C101  H41   S    
C87   O29   D    
C80   O6    A    
C54   C55   A    
C15   C24   T    
C25   H2    S    
C13   C100  S    
C79   C84   S    
C19   C21   S    
C92   H20   S    
C31   C32   S    
C61   H7    S    
C40   H4    S    
Cr4   O19   S    
C26   C88   S    
C8    C94   S    
C16   C18   S    
C6    C10   S    
C13   C17   S    
C27   C36   T    
C46   C50   A    
C59   C63   A    
C17   C22   S    
C79   O9    A    
C90   H18   S    
C64   C65   A    
C14   C22   T    
Cr4   O13   S    
C89   O31   D    
C19   C24   S    
C58   C59   A    
C28   C37   T    
C38   C43   A    
C29   C31   S    
C59   H28   S    
C6    C67   S    
C89   H17   S    
Cr6   O17   S    
C71   C75   A    
C11   C13   S    
C38   C39   A    
C46   H3    S    
Cr5   O19   S    
Cr5   O15   S    
C48   C49   A    
C57   H8    S    
C81   O14   A    
C97   O39   D    
C33   C35   S    
C86   H14   S    
C18   C20   S    
C69   C70   A    
C94   H29   S    
C88   H16   S    
C9    C84   T    
C53   H30   S    
C71   C72   A    
Cr3   O5    S    
C20   C21   S    
C86   O28   D    
C65   C66   A    
C42   C43   A    
Cr2   O21   S    
C47   H5    S    
C71   H34   S    
C40   C41   A    
C100  H40   S    
Cr1   O5    S    
C58   H27   S    
C3    C99   S    
C73   H12   S    
C85   O27   D    
C72   H9    S    
