data_mof_unit_49655.cif
_audit_creation_date              2012-12-10T19:08:09-0500
_audit_creation_method            fapswitch 2.2
_symmetry_space_group_name_H-M    P1
_symmetry_Int_Tables_number       1
_space_group_crystal_system       triclinic
_cell_length_a                    9.051828
_cell_length_b                    10.832596
_cell_length_c                    9.591171
_cell_angle_alpha                 90.376538
_cell_angle_beta                  89.747394
_cell_angle_gamma                 91.054233
_cell_volume                      940.272167419

loop_
_atom_site_label
_atom_site_type_symbol
_atom_type_description
_atom_site_fract_x
_atom_site_fract_y
_atom_site_fract_z
_atom_type_partial_charge
C1    C     C_R   0.495445 0.262493 0.499445 0.790155
C2    C     C_R   0.477261 0.934677 0.371416 -0.221724
C3    C     C_R   0.479725 0.870824 0.498788 -0.094157
C4    C     C_R   0.457462 0.937420 0.622070 0.136785
C5    C     C_3   0.539506 0.935890 0.756592 -0.495018
C6    C     C_3   0.536073 0.075663 0.756348 -0.458509
C7    C     C_R   0.622652 0.536492 0.073745 0.246825
C8    C     C_R   0.385031 0.451230 0.075476 -0.088914
C9    C     C_R   0.385541 0.448073 0.927742 0.444331
C10   C     C_R   0.624328 0.536168 0.926728 0.084615
C11   C     C_3   0.705432 0.659427 0.926670 -0.200822
C12   C     C_R   0.220855 0.500025 0.500173 0.842429
C13   C     C_3   0.701580 0.656904 0.086380 0.176343
C14   C     C_R   0.496612 0.737695 0.500155 0.780919
C15   C     C_R   0.779129 0.499971 0.499797 0.836249
C16   C     C_1   0.065632 0.500086 0.500250 -0.161674
C17   C     C_1   0.934372 0.500028 0.499665 -0.183433
C18   C     C_R   0.455959 0.064609 0.621267 0.119705
C19   C     C_R   0.477350 0.129391 0.497490 -0.093069
C20   C     C_R   0.476252 0.063417 0.370750 -0.212766
Cu1   Cu    Cu3+1 0.499990 0.499980 0.640670 0.939779
Cu2   Cu    Cu3+1 0.500010 0.500020 0.359330 0.952726
H1    H     H_    0.483312 0.110585 0.271653 0.168678
H2    H     H_    0.635617 0.732160 0.883534 0.136006
H3    H     H_    0.633184 0.730849 0.133832 0.076873
H4    H     H_    0.484353 0.886228 0.272595 0.158706
H5    H     H_    0.472313 0.894375 0.842139 0.193407
H6    H     H_    0.652899 0.900175 0.743254 0.192084
H7    H     H_    0.465569 0.114520 0.840459 0.199259
H8    H     H_    0.647363 0.119894 0.745455 0.206871
H9    H     H_    0.291747 0.411914 0.131563 0.179422
N1    N     N_R   0.500920 0.500930 0.147930 -0.254225
N2    N     N_R   0.500930 0.500890 0.852020 -0.239475
O1    O     O_R   0.500000 0.319640 0.618810 -0.603634
O2    O     O_R   0.500020 0.319680 0.381230 -0.581449
O3    O     O_R   0.288380 0.499980 0.618770 -0.559763
O4    O     O_R   0.288400 0.500020 0.381190 -0.580553
O5    O     O_R   0.499980 0.680320 0.618770 -0.579083
O6    O     O_R   0.500000 0.680360 0.381190 -0.593881
O7    O     O_R   0.711600 0.499980 0.618810 -0.590632
O8    O     O_R   0.711620 0.500020 0.381230 -0.540856
O9    O     O_3   0.839930 0.641225 0.148820 -0.706847
H10   H     H_    0.844103 0.698234 0.230193 0.321051
O10   O     O_3   0.267748 0.389557 0.864594 -0.736557
H11   H     H_    0.307698 0.341514 0.785840 0.356991
C21   C     C_3   0.861501 0.656552 0.860571 -0.242473
C22   C     C_3   0.949766 0.777370 0.884384 -0.372098
C23   C     C_3   0.102364 0.771398 0.816087 -0.812743
H12   H     H_    0.166733 0.695263 0.861604 0.274505
H13   H     H_    0.091836 0.756114 0.701860 0.246369
H14   H     H_    0.163618 0.859804 0.834064 0.236203
H15   H     H_    0.889332 0.855680 0.838987 0.201403
H16   H     H_    0.964448 0.796286 0.997272 0.259063
H17   H     H_    0.924159 0.576832 0.900504 0.246592
H18   H     H_    0.850110 0.645593 0.746786 0.200013

loop_
_geom_bond_atom_site_label_1
_geom_bond_atom_site_label_2
_ccdc_geom_bond_type
C21   H18   S    
C7    C10   A    
C22   H15   S    
Cu1   O1    S    
C14   O5    A    
C5    H6    S    
C19   C20   A    
C20   H1    S    
C22   H16   S    
C4    C18   A    
C21   H17   S    
C23   H13   S    
C2    C3    A    
C2    H4    S    
Cu1   O3    S    
Cu1   Cu2   S    
C9    N2    A    
Cu2   O2    S    
C11   C13   S    
C13   H3    S    
C16   C17   T    
C3    C14   S    
Cu2   N1    S    
Cu2   O6    S    
C23   H12   S    
C6    H8    S    
C1    O1    A    
C10   N2    A    
C5    C6    S    
C6    C18   S    
C15   O7    A    
C1    C19   S    
Cu2   O8    S    
C12   O3    A    
O9    H10   S    
C2    C20   A    
C3    C4    A    
C8    N1    A    
C12   C16   S    
C11   H2    S    
C7    C13   S    
C6    H7    S    
Cu1   N2    S    
O10   H11   S    
C15   O8    A    
C18   C19   A    
C10   C11   S    
C12   O4    A    
C15   C17   S    
C1    O2    A    
C21   C22   S    
C13   O9    S    
C11   C21   S    
C7    N1    A    
C14   O6    A    
C5    H5    S    
C8    H9    S    
C4    C5    S    
Cu2   O4    S    
C23   H14   S    
Cu1   O5    S    
C22   C23   S    
C8    C9    A    
C9    O10   S    
Cu1   O7    S    
