data_mof_unit_57310.cif
_audit_creation_date              2012-12-10T18:51:37-0500
_audit_creation_method            fapswitch 2.2
_symmetry_space_group_name_H-M    P1
_symmetry_Int_Tables_number       1
_space_group_crystal_system       triclinic
_cell_length_a                    10.70409
_cell_length_b                    9.845304
_cell_length_c                    10.569784
_cell_angle_alpha                 89.006899
_cell_angle_beta                  89.875855
_cell_angle_gamma                 89.998056
_cell_volume                      1113.7269657

loop_
_atom_site_label
_atom_site_type_symbol
_atom_type_description
_atom_site_fract_x
_atom_site_fract_y
_atom_site_fract_z
_atom_type_partial_charge
C1    C     C_R   0.872541 0.500031 0.500138 -0.002241
C2    C     C_R   0.127464 0.499954 0.499429 -0.005001
C3    C     C_R   0.259909 0.499990 0.499531 0.947289
C4    C     C_R   0.740096 0.500005 0.500227 0.961063
C5    C     C_R   0.500839 0.501343 0.257699 0.988441
C6    C     C_R   0.500859 0.498662 0.742413 1.018268
C7    C     C_3   0.496992 0.630211 0.036299 -0.110589
C8    C     C_3   0.506582 0.369211 0.964124 -0.116985
C9    C     C_3   0.601876 0.567580 0.955650 -0.132160
C10   C     C_3   0.401515 0.432123 0.045134 -0.115135
C11   C     C_3   0.396933 0.558504 0.956959 -0.140833
C12   C     C_3   0.606487 0.441321 0.043729 -0.146461
C13   C     C_3   0.501900 0.496118 0.876772 -0.196076
C14   C     C_3   0.501777 0.503855 0.123493 -0.179872
C15   C     C_R   0.596854 0.070924 0.551988 -0.050819
C16   C     C_R   0.403201 0.929080 0.447892 -0.045745
C17   C     C_R   0.403325 0.072893 0.447601 -0.053950
C18   C     C_R   0.596719 0.927118 0.552303 -0.054256
C19   C     C_R   0.063920 0.378204 0.523028 -0.187268
C20   C     C_R   0.936081 0.621759 0.476408 -0.173265
C21   C     C_R   0.936030 0.378257 0.523448 -0.163151
C22   C     C_R   0.063979 0.621704 0.475981 -0.144356
H1    H     H_    0.674462 0.124467 0.593393 0.149889
H2    H     H_    0.325711 0.875548 0.406231 0.155791
H3    H     H_    0.326118 0.127994 0.405331 0.142934
H4    H     H_    0.674012 0.872051 0.594410 0.149504
H5    H     H_    0.112606 0.283539 0.541915 0.167942
H6    H     H_    0.887380 0.716416 0.457526 0.166221
H7    H     H_    0.887297 0.283635 0.542592 0.164762
H8    H     H_    0.112722 0.716309 0.456795 0.165068
N1    N     N_R   0.500000 0.857200 0.500000 -0.083705
N2    N     N_R   0.500000 0.142800 0.500000 -0.083005
O1    O     O_R   0.316770 0.614620 0.499990 -0.613855
O2    O     O_R   0.683230 0.385380 0.500010 -0.617840
O3    O     O_R   0.683230 0.614620 0.500010 -0.628323
O4    O     O_R   0.316770 0.385380 0.499990 -0.648669
O5    O     O_R   0.499970 0.614650 0.313950 -0.607954
O6    O     O_R   0.500030 0.385350 0.686050 -0.620479
O7    O     O_R   0.500030 0.614650 0.686050 -0.572231
O8    O     O_R   0.499970 0.385350 0.313950 -0.603284
Zn1   Zn    Zn3+2 0.500000 0.653120 0.500000 1.022307
Zn2   Zn    Zn3+2 0.500000 0.346880 0.500000 1.006995
C23   C     C_2   0.277487 0.622388 0.910225 0.961679
O9    O     O_2   0.204697 0.671502 0.985998 -0.513786
O10   O     O_R   0.249011 0.624077 0.781401 -0.819731
H9    H     H_    0.165796 0.669117 0.762428 0.345347
C24   C     C_2   0.726301 0.378290 0.090417 0.975689
O11   O     O_2   0.802121 0.335766 0.014103 -0.554702
O12   O     O_R   0.751818 0.370382 0.219785 -0.808038
H10   H     H_    0.835779 0.326971 0.238652 0.344294
C25   C     C_2   0.487544 0.775822 0.075980 0.997472
O13   O     O_2   0.569209 0.856995 0.046130 -0.591955
O14   O     O_R   0.383994 0.818124 0.145583 -0.743586
H11   H     H_    0.386730 0.918702 0.164421 0.357720
C26   C     C_2   0.520920 0.225217 0.920558 1.003002
O15   O     O_2   0.439668 0.141097 0.942746 -0.561106
O16   O     O_R   0.628543 0.188190 0.854638 -0.763604
H12   H     H_    0.629236 0.088332 0.832783 0.348766
C27   C     C_2   0.717677 0.639633 0.909345 0.998291
O17   O     O_2   0.788692 0.689862 0.985901 -0.559053
O18   O     O_R   0.745290 0.646874 0.780270 -0.818194
H13   H     H_    0.826179 0.697007 0.761680 0.338390
C28   C     C_2   0.287151 0.368021 0.104143 0.951016
O19   O     O_2   0.262474 0.248823 0.086479 -0.565849
O20   O     O_R   0.209571 0.446380 0.180385 -0.775977
H14   H     H_    0.135941 0.392978 0.215590 0.344950

loop_
_geom_bond_atom_site_label_1
_geom_bond_atom_site_label_2
_ccdc_geom_bond_type
C2    C22   A    
C15   C18   A    
C23   O9    D    
C28   O20   S    
C1    C21   A    
C8    C13   S    
C5    O5    A    
O2    Zn2   S    
C7    C14   S    
C19   H5    S    
C9    C27   S    
O4    Zn2   S    
C24   O11   D    
C18   H4    S    
C8    C12   S    
C1    C4    S    
C17   H3    S    
C26   O15   D    
C15   H1    S    
C2    C3    S    
O16   H12   S    
C4    O3    A    
O1    Zn1   S    
C27   O17   D    
C24   O12   S    
N1    Zn1   S    
O14   H11   S    
C16   N1    A    
C7    C11   S    
C23   O10   S    
C5    C14   S    
C21   H7    S    
C3    O4    A    
C12   C24   S    
C8    C26   S    
O8    Zn2   S    
C19   C21   A    
C12   C14   S    
O6    Zn2   S    
C26   O16   S    
O5    Zn1   S    
O18   H13   S    
O3    Zn1   S    
C9    C12   S    
C4    O2    A    
C11   C23   S    
C27   O18   S    
C10   C11   S    
C3    O1    A    
C7    C25   S    
C25   O13   D    
C20   H6    S    
C11   C13   S    
O7    Zn1   S    
C16   H2    S    
O12   H10   S    
C10   C14   S    
C5    O8    A    
C7    C9    S    
C17   N2    A    
C9    C13   S    
C6    O7    A    
C16   C17   A    
C1    C20   A    
N2    Zn2   S    
C18   N1    A    
C22   H8    S    
C25   O14   S    
C2    C19   A    
O10   H9    S    
C6    O6    A    
O20   H14   S    
C8    C10   S    
C10   C28   S    
C20   C22   A    
C28   O19   D    
C6    C13   S    
C15   N2    A    
