data_mof_unit_51205.cif
_audit_creation_date              2012-12-10T16:57:51-0500
_audit_creation_method            fapswitch 2.2
_symmetry_space_group_name_H-M    P1
_symmetry_Int_Tables_number       1
_space_group_crystal_system       triclinic
_cell_length_a                    10.644373
_cell_length_b                    10.917991
_cell_length_c                    9.781248
_cell_angle_alpha                 89.767512
_cell_angle_beta                  89.658253
_cell_angle_gamma                 91.246269
_cell_volume                      1136.43030305

loop_
_atom_site_label
_atom_site_type_symbol
_atom_type_description
_atom_site_fract_x
_atom_site_fract_y
_atom_site_fract_z
_atom_type_partial_charge
C1    C     C_R   0.499589 0.265369 0.499682 0.835569
C2    C     C_3   0.963668 0.600683 0.433757 0.464239
C3    C     C_3   0.042165 0.499452 0.368475 -0.177594
C4    C     C_3   0.122941 0.500704 0.499243 -0.095414
C5    C     C_2   0.503852 0.932169 0.387090 -0.264065
C6    C     C_2   0.513943 0.866313 0.501810 -0.371835
C7    C     C_2   0.516619 0.066430 0.384961 0.468722
C8    C     C_2   0.494978 0.132466 0.499028 -0.409992
C9    C     C_2   0.415850 0.440215 0.920991 0.484999
C10   C     C_2   0.421901 0.436824 0.075745 -0.094755
C11   C     C_R   0.259670 0.499500 0.500020 0.796853
C12   C     C_R   0.502730 0.734336 0.499995 0.878332
C13   C     C_R   0.740381 0.502287 0.499855 0.829270
C14   C     C_3   0.038420 0.400826 0.566286 -0.242760
C15   C     C_3   0.955141 0.400788 0.436659 -0.278949
C16   C     C_3   0.877343 0.503452 0.499920 -0.079939
C17   C     C_3   0.960418 0.504511 0.627183 0.496050
C18   C     C_3   0.045998 0.604719 0.562868 -0.352904
Cu1   Cu    Cu3+1 0.500030 0.500020 0.638630 1.030209
Cu2   Cu    Cu3+1 0.499970 0.499980 0.361370 1.058967
H1    H     H_    0.915227 0.318257 0.385424 0.158930
H2    H     H_    0.470791 0.089476 0.595861 0.118530
H3    H     H_    0.588187 0.480082 0.874450 0.252858
H4    H     H_    0.351077 0.380984 0.127961 0.115030
H5    H     H_    0.070177 0.318268 0.620653 0.148643
H6    H     H_    0.086487 0.687267 0.613248 0.136806
H7    H     H_    0.078234 0.498023 0.261748 0.146985
H8    H     H_    0.488297 0.886946 0.289684 0.206846
H9    H     H_    0.535137 0.907981 0.599532 0.161918
N1    N     N_2   0.498620 0.498660 0.846910 -0.241334
N2    N     N_2   0.498590 0.498630 0.153040 -0.013543
O1    O     O_R   0.500020 0.321960 0.617040 -0.595647
O2    O     O_R   0.499980 0.321920 0.382900 -0.538648
O3    O     O_R   0.316870 0.499990 0.617050 -0.535258
O4    O     O_R   0.316830 0.499950 0.382910 -0.617620
O5    O     O_R   0.500020 0.678080 0.617100 -0.565023
O6    O     O_R   0.499980 0.678040 0.382960 -0.524454
O7    O     O_R   0.683170 0.500050 0.617090 -0.562747
O8    O     O_R   0.683130 0.500010 0.382950 -0.508947
O9    O     O_3   0.317294 0.379601 0.856537 -0.579308
C19   C     C_3   0.328082 0.251995 0.878452 0.059581
H10   H     H_    0.302211 0.226657 0.985268 0.139001
H11   H     H_    0.425157 0.220672 0.856329 0.152383
C20   C     C_3   0.238544 0.182815 0.784529 -0.805633
H12   H     H_    0.258379 0.207980 0.676338 0.245906
H13   H     H_    0.250729 0.082658 0.797250 0.207061
H14   H     H_    0.140029 0.204902 0.810927 0.228946
S1    S     S_3+6 0.614191 0.603540 0.093432 0.081107
O10   O     O_2   0.723978 0.535365 0.036768 -0.324141
O11   O     O_2   0.561498 0.688281 0.987559 -0.330394
O12   O     O_3   0.674048 0.692396 0.217619 -0.442388
H15   H     H_    0.708297 0.766425 0.170578 0.347475
O13   O     O_3   0.910160 0.507095 0.761166 -0.553654
C21   C     C_3   0.007059 0.503988 0.859585 0.103853
H16   H     H_    0.100081 0.476702 0.818541 0.178127
H17   H     H_    0.979847 0.434880 0.938589 0.173182
C22   C     C_3   0.021703 0.628160 0.929016 -0.741194
H18   H     H_    0.931087 0.655931 0.974615 0.293702
H19   H     H_    0.092736 0.622596 0.011385 0.191677
H20   H     H_    0.053333 0.698959 0.854082 0.223854
O14   O     O_3   0.915878 0.702621 0.363653 -0.549511
C23   C     C_3   0.016405 0.780657 0.321792 0.097641
H21   H     H_    0.085440 0.730974 0.257809 0.136905
H22   H     H_    0.064962 0.820770 0.412116 0.134759
C24   C     C_3   0.965572 0.885326 0.236860 -0.805767
H23   H     H_    0.893836 0.935149 0.296402 0.237760
H24   H     H_    0.922484 0.849174 0.141729 0.244261
H25   H     H_    0.043348 0.950208 0.208707 0.203633
O15   O     O_3   0.537390 0.124290 0.260047 -0.561617
C25   C     C_3   0.661255 0.102433 0.215525 0.069003
H26   H     H_    0.669806 0.006068 0.180663 0.149375
H27   H     H_    0.730909 0.121479 0.298007 0.125740
C26   C     C_3   0.692922 0.187268 0.095850 -0.751263
H28   H     H_    0.686864 0.284278 0.128563 0.274790
H29   H     H_    0.789887 0.170499 0.058968 0.196705
H30   H     H_    0.626120 0.170444 0.010823 0.230119

loop_
_geom_bond_atom_site_label_1
_geom_bond_atom_site_label_2
_ccdc_geom_bond_type
C2    C18   S    
C1    C8    S    
C26   H29   S    
C26   H28   S    
Cu1   Cu2   S    
C18   H6    S    
C1    O2    A    
C7    C8    D    
O13   C21   S    
Cu1   O5    S    
C6    C12   S    
C5    C6    D    
C22   H19   S    
C15   C16   S    
C19   H10   S    
C12   O6    A    
C23   H22   S    
Cu2   O4    S    
C10   N2    D    
S1    O12   S    
C16   C17   S    
C24   H24   S    
C8    H2    S    
C25   H26   S    
C12   O5    A    
C2    C16   S    
C9    C10   S    
C20   H14   S    
C4    C18   S    
S1    O11   D    
C19   H11   S    
C14   C17   S    
O15   C25   S    
Cu1   O1    S    
C20   H13   S    
C21   H17   S    
O12   H15   S    
H3    N1    S    
C5    C7    S    
Cu2   O8    S    
C22   H20   S    
C10   H4    S    
C9    O9    S    
C23   H21   S    
Cu1   O7    S    
C5    H8    S    
C24   H25   S    
C25   C26   S    
C17   C18   S    
C4    C11   S    
C13   O7    A    
C9    N1    D    
Cu2   O2    S    
S1    O10   D    
N2    S1    S    
C26   H30   S    
C3    C4    S    
C17   O13   S    
C3    C15   S    
C20   H12   S    
C21   H16   S    
O9    C19   S    
C23   C24   S    
C11   O3    A    
Cu1   O3    S    
C7    O15   S    
C2    O14   S    
C3    H7    S    
C2    C3    S    
Cu2   O6    S    
C22   H18   S    
C11   O4    A    
C19   C20   S    
C1    O1    A    
C14   H5    S    
C4    C14   S    
O14   C23   S    
C13   O8    A    
C15   H1    S    
C6    H9    S    
C24   H23   S    
C13   C16   S    
C14   C15   S    
C25   H27   S    
Cu1   N1    S    
Cu2   N2    S    
C21   C22   S    
