data_mof_unit_22398.cif
_audit_creation_date              2012-12-10T18:59:17-0500
_audit_creation_method            fapswitch 2.2
_symmetry_space_group_name_H-M    P1
_symmetry_Int_Tables_number       1
_space_group_crystal_system       triclinic
_cell_length_a                    10.819538
_cell_length_b                    10.820614
_cell_length_c                    9.534163
_cell_angle_alpha                 89.799184
_cell_angle_beta                  89.91319
_cell_angle_gamma                 88.576108
_cell_volume                      1115.85036273

loop_
_atom_site_label
_atom_site_type_symbol
_atom_type_description
_atom_site_fract_x
_atom_site_fract_y
_atom_site_fract_z
_atom_type_partial_charge
C1    C     C_R   0.497801 0.262237 0.499984 0.768490
C2    C     C_R   0.072618 0.390119 0.577570 0.084264
C3    C     C_R   0.129626 0.485279 0.500872 -0.089605
C4    C     C_R   0.060016 0.569166 0.421129 -0.224042
C5    C     C_R   0.932939 0.564956 0.421782 -0.200489
C6    C     C_R   0.872122 0.475545 0.500306 -0.113303
C7    C     C_R   0.527274 0.062453 0.623115 0.161902
C8    C     C_R   0.508921 0.128761 0.498761 -0.090119
C9    C     C_R   0.511293 0.064385 0.370826 -0.218089
C10   C     C_R   0.513651 0.935648 0.370618 -0.226657
C11   C     C_R   0.513216 0.870371 0.498370 -0.114490
C12   C     C_R   0.262590 0.497702 0.500175 0.784516
C13   C     C_R   0.529005 0.935362 0.622989 0.152500
C14   C     C_3   0.461495 0.929008 0.759529 -0.452653
C15   C     C_3   0.460313 0.069496 0.759932 -0.500466
C16   C     C_R   0.568420 0.583366 0.073173 0.188534
C17   C     C_R   0.424424 0.425458 0.074886 -0.070825
C18   C     C_R   0.424332 0.425536 0.925944 -0.096296
C19   C     C_R   0.569149 0.582416 0.925627 0.256860
C20   C     C_3   0.706166 0.592121 0.919470 0.227653
C21   C     C_3   0.705448 0.596232 0.078840 -0.570163
C22   C     C_R   0.502025 0.737608 0.499721 0.818858
C23   C     C_R   0.737538 0.488571 0.500332 0.792981
C24   C     C_R   0.144868 0.299441 0.649876 -0.194265
C25   C     C_R   0.090341 0.205164 0.724175 -0.223988
C26   C     C_R   0.963659 0.194378 0.721896 -0.092066
C27   C     C_R   0.889036 0.277983 0.646644 0.121855
C28   C     C_R   0.941376 0.382262 0.576669 0.035484
Cu1   Cu    Cu3+1 0.499990 0.499980 0.640670 0.938845
Cu2   Cu    Cu3+1 0.500010 0.500020 0.359330 0.938894
H1    H     H_    0.104386 0.641015 0.361247 0.150352
H2    H     H_    0.519745 0.887159 0.844031 0.223436
H3    H     H_    0.366327 0.111985 0.749942 0.186920
H4    H     H_    0.518253 0.108654 0.844256 0.204240
H5    H     H_    0.365190 0.363229 0.131172 0.142506
H6    H     H_    0.365033 0.363366 0.870411 0.144083
H7    H     H_    0.751603 0.507201 0.874948 0.094092
H8    H     H_    0.753925 0.514609 0.126272 0.193092
H9    H     H_    0.731815 0.686840 0.122944 0.206150
H10   H     H_    0.244507 0.297845 0.647879 0.151032
H11   H     H_    0.146750 0.137350 0.780048 0.140765
H12   H     H_    0.922715 0.117102 0.775511 0.146193
H13   H     H_    0.881174 0.634755 0.362877 0.149611
H14   H     H_    0.505322 0.112757 0.271316 0.166136
H15   H     H_    0.509111 0.888112 0.271023 0.169871
H16   H     H_    0.367880 0.889859 0.748894 0.196901
N1    N     N_R   0.500790 0.500930 0.147930 -0.181093
N2    N     N_R   0.500790 0.500890 0.852020 -0.221850
O1    O     O_R   0.500000 0.319640 0.618810 -0.600533
O2    O     O_R   0.500010 0.319680 0.381230 -0.588068
O3    O     O_R   0.319640 0.499980 0.618820 -0.586937
O4    O     O_R   0.319650 0.500020 0.381230 -0.577336
O5    O     O_R   0.499990 0.680320 0.618770 -0.554939
O6    O     O_R   0.500000 0.680360 0.381190 -0.583140
O7    O     O_R   0.680350 0.499980 0.618770 -0.588870
O8    O     O_R   0.680360 0.500020 0.381180 -0.576171
O9    O     O_3   0.738960 0.705258 0.857102 -0.589690
C29   C     C_3   0.867074 0.703045 0.828851 0.075780
H17   H     H_    0.892874 0.624906 0.757940 0.151855
H18   H     H_    0.920416 0.694046 0.928410 0.141154
C30   C     C_3   0.900477 0.823600 0.755955 -0.311234
H19   H     H_    0.847967 0.832748 0.656117 0.225303
H20   H     H_    0.873907 0.902680 0.824588 0.214120
C31   C     C_3   0.038699 0.827562 0.724266 -0.946152
H21   H     H_    0.092814 0.823038 0.823148 0.253740
H22   H     H_    0.059471 0.915172 0.669099 0.259234
H23   H     H_    0.067343 0.748968 0.655998 0.267562
N3    N     N_3   0.763513 0.244619 0.633909 -0.612874
H24   H     H_    0.710585 0.298037 0.703169 0.258067
H25   H     H_    0.736896 0.252566 0.529164 0.212573

loop_
_geom_bond_atom_site_label_1
_geom_bond_atom_site_label_2
_ccdc_geom_bond_type
Cu2   O8    S    
C30   C31   S    
C18   N2    A    
C23   O7    A    
C16   C21   S    
C3    C12   S    
C20   O9    S    
C1    C8    S    
C11   C13   A    
C9    C10   A    
C15   H4    S    
Cu1   O7    S    
C19   C20   S    
C21   H9    S    
C7    C13   A    
C31   H21   S    
C10   H15   S    
C7    C15   S    
C17   C18   A    
C25   C26   A    
C23   O8    A    
C22   O6    A    
Cu1   O1    S    
C13   C14   S    
C20   C21   S    
C2    C24   A    
C20   H7    S    
Cu2   O6    S    
C26   C27   A    
Cu1   Cu2   S    
Cu1   O5    S    
C29   C30   S    
C16   C19   A    
C5    C6    A    
C6    C23   S    
C16   N1    A    
C1    O1    A    
C12   O4    A    
Cu1   O3    S    
C2    C3    A    
C22   O5    A    
O9    C29   S    
C5    H13   S    
C30   H19   S    
Cu2   O2    S    
C4    H1    S    
C10   C11   A    
Cu1   N2    S    
C29   H18   S    
C3    C4    A    
C31   H23   S    
Cu2   N1    S    
C7    C8    A    
C12   O3    A    
C24   C25   A    
C26   H12   S    
C11   C22   S    
N3    H25   S    
C1    O2    A    
C25   H11   S    
C27   C28   A    
C30   H20   S    
Cu2   O4    S    
C14   C15   S    
N3    H24   S    
C9    H14   S    
C2    C28   A    
C27   N3    S    
C17   H5    S    
C24   H10   S    
C29   H17   S    
C19   N2    A    
C4    C5    A    
C18   H6    S    
C15   H3    S    
C6    C28   A    
C21   H8    S    
C17   N1    A    
C14   H2    S    
C8    C9    A    
C14   H16   S    
C31   H22   S    
