data_mof_unit_38592.cif
_audit_creation_date              2012-12-10T17:37:20-0500
_audit_creation_method            fapswitch 2.2
_symmetry_space_group_name_H-M    P1
_symmetry_Int_Tables_number       1
_space_group_crystal_system       triclinic
_cell_length_a                    12.464108
_cell_length_b                    13.180161
_cell_length_c                    15.812509
_cell_angle_alpha                 76.085918
_cell_angle_beta                  101.291601
_cell_angle_gamma                 117.293513
_cell_volume                      2229.68224946

loop_
_atom_site_label
_atom_site_type_symbol
_atom_type_description
_atom_site_fract_x
_atom_site_fract_y
_atom_site_fract_z
_atom_type_partial_charge
C1    C     C_R   0.855207 0.286296 0.509276 0.898262
C2    C     C_3   0.002213 0.497350 0.917585 -0.087957
C3    C     C_3   0.099377 0.582834 0.027678 0.398903
C4    C     C_3   0.996347 0.495907 0.083713 -0.055786
C5    C     C_3   0.004899 0.597303 0.953503 0.599875
C6    C     C_3   0.900070 0.510483 0.009571 -0.415688
C7    C     C_1   0.001908 0.498850 0.825572 0.094374
C8    C     C_1   0.996046 0.496037 0.175286 0.093265
C9    C     C_R   0.288170 0.020860 0.369986 -0.121838
C10   C     C_R   0.229132 0.836611 0.467716 -0.041910
C11   C     C_R   0.808136 0.085754 0.583124 -0.172304
C12   C     C_R   0.000392 0.500196 0.659729 0.837291
C13   C     C_R   0.724750 0.972421 0.608094 -0.127703
C14   C     C_R   0.604227 0.935184 0.572987 -0.109322
C15   C     C_R   0.565336 0.009938 0.508116 0.024235
C16   C     C_R   0.654229 0.120922 0.475377 -0.082146
C17   C     C_R   0.441886 0.977570 0.473721 0.015900
C18   C     C_R   0.410493 0.052906 0.403591 -0.025163
C19   C     C_R   0.501741 0.156772 0.365775 0.317017
C20   C     C_R   0.622868 0.186956 0.398942 0.467073
C21   C     C_R   0.348396 0.871483 0.506307 -0.150610
C22   C     C_R   0.198219 0.913023 0.401459 -0.179867
C23   C     C_R   0.145068 0.713800 0.486896 0.772218
C24   C     C_R   0.773225 0.161903 0.519022 -0.043186
C25   C     C_R   0.338190 0.320894 0.638276 0.505195
C26   C     C_R   0.765535 0.654211 0.387003 0.811861
C27   C     C_R   0.680805 0.699043 0.371755 -0.360228
C28   C     C_R   0.580290 0.645433 0.419110 -0.196782
C29   C     C_R   0.557991 0.541059 0.478845 -0.027213
C30   C     C_R   0.652852 0.503726 0.498724 -0.051447
C31   C     C_R   0.447766 0.475823 0.522272 -0.271377
C32   C     C_R   0.441242 0.383438 0.592050 -0.334492
C33   C     C_R   0.537035 0.352938 0.614732 0.625167
C34   C     C_R   0.999366 0.499468 0.340337 0.850037
C35   C     C_R   0.638921 0.409903 0.569842 0.499199
C36   C     C_R   0.339722 0.492925 0.496855 0.548195
C37   C     C_R   0.244577 0.355073 0.620117 0.420815
C38   C     C_3   0.993951 0.396400 0.047481 0.402997
C39   C     C_3   0.898794 0.410380 0.973769 0.379958
C40   C     C_1   0.001114 0.499884 0.749625 -0.141855
C41   C     C_1   0.997043 0.497246 0.250788 -0.125128
C42   C     C_3   0.099265 0.483225 0.991824 -0.518692
Cu1   Cu    Cu3+1 0.098270 0.475420 0.519690 1.012331
Cu2   Cu    Cu3+1 0.901730 0.524580 0.480310 1.081727
H1    H     H_    0.365678 0.811575 0.560264 0.132449
H2    H     H_    0.898984 0.115101 0.616572 0.192636
H3    H     H_    0.544898 0.846711 0.597141 0.121630
H4    H     H_    0.752591 0.914171 0.657656 0.156309
H5    H     H_    0.522977 0.689252 0.409238 0.224353
H6    H     H_    0.694335 0.777234 0.324270 0.175390
H7    H     H_    0.820471 0.522447 0.017964 0.182968
H8    H     H_    0.179385 0.472474 0.982914 0.163282
H9    H     H_    0.106099 0.886997 0.370694 0.196282
H10   H     H_    0.262181 0.077185 0.316980 0.173992
N1    N     N_R   0.246280 0.438200 0.549540 -0.282295
N2    N     N_R   0.754330 0.561180 0.450980 -0.229680
O1    O     O_R   0.972510 0.318130 0.524770 -0.566608
O2    O     O_R   0.806530 0.359650 0.491510 -0.494350
O3    O     O_R   0.082970 0.479240 0.637550 -0.582708
O4    O     O_R   0.916990 0.520750 0.604290 -0.503535
O5    O     O_R   0.193470 0.640350 0.508490 -0.564060
O6    O     O_R   0.027490 0.681870 0.475230 -0.546853
O7    O     O_R   0.083010 0.479250 0.395710 -0.568077
O8    O     O_R   0.917030 0.520760 0.362450 -0.505977
O9    O     O_3   0.796939 0.319367 0.939538 -0.555912
C43   C     C_3   0.709133 0.263643 0.000050 0.089768
H11   H     H_    0.669468 0.322018 0.005204 0.154415
H12   H     H_    0.748207 0.235896 0.066035 0.178639
C44   C     C_3   0.607580 0.156113 0.968280 -0.710730
H13   H     H_    0.644213 0.095324 0.963540 0.238906
H14   H     H_    0.537292 0.111996 0.015075 0.196920
H15   H     H_    0.565233 0.180603 0.902889 0.296734
F1    F     F_    0.710117 0.275690 0.351351 -0.668494
O10   O     O_3   0.141224 0.292796 0.663864 -0.533639
C45   C     C_3   0.168481 0.308110 0.752438 0.103288
H16   H     H_    0.207423 0.401479 0.757399 0.127838
H17   H     H_    0.233518 0.273092 0.788665 0.195269
C46   C     C_3   0.052341 0.242939 0.797795 -0.754055
H18   H     H_    0.017823 0.148258 0.800464 0.254761
H19   H     H_    0.070722 0.260882 0.865555 0.180894
H20   H     H_    0.981588 0.270369 0.761571 0.256852
F2    F     F_    0.534172 0.266273 0.682878 -0.559422
F3    F     F_    0.325687 0.224189 0.698495 -0.600345
O11   O     O_3   0.323665 0.559682 0.417814 -0.557576
C47   C     C_3   0.307480 0.501290 0.348386 0.045989
H21   H     H_    0.218773 0.423484 0.348195 0.172574
H22   H     H_    0.378590 0.471412 0.352764 0.131277
C48   C     C_3   0.312656 0.583331 0.261490 -0.723600
H23   H     H_    0.286407 0.535044 0.206443 0.221459
H24   H     H_    0.250111 0.623427 0.256951 0.271497
H25   H     H_    0.406157 0.653304 0.255775 0.226373
F4    F     F_    0.863717 0.708684 0.340963 -0.672695
O12   O     O_3   0.984434 0.291861 0.102882 -0.574766
C49   C     C_3   0.001429 0.222763 0.056003 0.064103
H26   H     H_    0.096746 0.263400 0.039407 0.144912
H27   H     H_    0.938316 0.208898 0.994924 0.179207
C50   C     C_3   0.976366 0.104905 0.112864 -0.743824
H28   H     H_    0.881268 0.061478 0.129937 0.249557
H29   H     H_    0.990042 0.049781 0.076792 0.212534
H30   H     H_    0.039112 0.115278 0.174006 0.249610
F5    F     F_    0.722144 0.370413 0.604457 -0.616161
F6    F     F_    0.013013 0.701750 0.903429 -0.642173
O13   O     O_3   0.200175 0.674615 0.061917 -0.566998
C51   C     C_3   0.290377 0.728233 0.003334 0.107630
H31   H     H_    0.253758 0.756428 0.936498 0.189051
H32   H     H_    0.329054 0.668282 0.000101 0.131064
C52   C     C_3   0.392455 0.834801 0.036051 -0.758943
H33   H     H_    0.432210 0.809416 0.102254 0.241686
H34   H     H_    0.464501 0.877512 0.990658 0.202027
H35   H     H_    0.357135 0.897156 0.039364 0.263429
O14   O     O_3   0.473955 0.221700 0.289534 -0.552653
C53   C     C_3   0.486335 0.326250 0.308320 0.102843
H36   H     H_    0.579225 0.377068 0.338222 0.190597
H37   H     H_    0.419071 0.308080 0.353556 0.103063
C54   C     C_3   0.463699 0.400498 0.223336 -0.777459
H38   H     H_    0.367595 0.358204 0.195913 0.238688
H39   H     H_    0.483603 0.487194 0.235499 0.198800
H40   H     H_    0.523922 0.412305 0.174943 0.266836

loop_
_geom_bond_atom_site_label_1
_geom_bond_atom_site_label_2
_ccdc_geom_bond_type
C43   H12   S    
C37   O10   S    
C3    C42   S    
O12   C49   S    
C39   O9    S    
C19   C20   A    
C4    C8    S    
C53   H37   S    
C50   H28   S    
Cu1   O7    S    
C47   H21   S    
Cu2   O8    S    
C26   C27   A    
C30   C35   A    
C28   C29   A    
C2    C42   S    
C38   C42   S    
C5    C6    S    
C46   H19   S    
C9    C22   A    
C43   C44   S    
C26   F4    S    
C15   C16   A    
C11   C24   A    
C18   C19   A    
C44   H14   S    
C53   H36   S    
C45   H16   S    
C2    C7    S    
C25   C37   A    
C12   O3    A    
C2    C39   S    
C23   O6    A    
O14   C53   S    
Cu2   O2    S    
C54   H39   S    
C7    C40   T    
C6    H7    S    
C33   F2    S    
C27   H6    S    
Cu1   O3    S    
C25   C32   A    
C43   H11   S    
C16   C24   A    
C13   C14   A    
C52   H34   S    
C49   H26   S    
C34   C41   S    
C51   H32   S    
C51   H31   S    
C50   H29   S    
C22   H9    S    
C21   H1    S    
C47   H22   S    
C10   C21   A    
O10   C45   S    
O11   C47   S    
C4    C6    S    
C46   H18   S    
C49   C50   S    
C3    C5    S    
C30   N2    A    
C10   C22   A    
C12   O4    A    
C12   C40   S    
C44   H15   S    
Cu1   Cu2   S    
C29   C30   A    
C1    O1    A    
C28   H5    S    
Cu2   N2    S    
C31   C32   A    
C14   C15   A    
C48   H25   S    
C16   C20   A    
C54   H40   S    
C34   O8    A    
C17   C18   A    
C8    C41   T    
C49   H27   S    
C45   H17   S    
Cu1   N1    S    
C4    C38   S    
C52   H35   S    
C2    C5    S    
C52   H33   S    
C3    C4    S    
O13   C51   S    
C50   H30   S    
Cu1   O5    S    
C47   C48   S    
C3    O13   S    
C15   C17   A    
C5    F6    S    
C31   C36   A    
C36   O11   S    
C48   H24   S    
C35   F5    S    
C26   N2    A    
C13   H4    S    
C14   H3    S    
C19   O14   S    
C10   C23   S    
Cu2   O6    S    
C32   C33   A    
C29   C31   A    
C36   N1    A    
C1    O2    A    
C11   C13   A    
C46   H20   S    
C38   C39   S    
Cu2   O4    S    
C38   O12   S    
C34   O7    A    
C33   C35   A    
C20   F1    S    
C53   C54   S    
C44   H13   S    
C45   C46   S    
C17   C21   A    
Cu1   O1    S    
C37   N1    A    
C9    C18   A    
C23   O5    A    
C48   H23   S    
C1    C24   S    
O9    C43   S    
C27   C28   A    
C25   F3    S    
C6    C39   S    
C11   H2    S    
C9    H10   S    
C51   C52   S    
C54   H38   S    
C42   H8    S    
