data_mof_unit_18535.cif
_audit_creation_date              2012-12-11T15:34:40-0500
_audit_creation_method            fapswitch 2.2
_symmetry_space_group_name_H-M    P1
_symmetry_Int_Tables_number       1
_space_group_crystal_system       triclinic
_cell_length_a                    15.047352
_cell_length_b                    15.061037
_cell_length_c                    34.939763
_cell_angle_alpha                 90.574924
_cell_angle_beta                  90.057652
_cell_angle_gamma                 60.035272
_cell_volume                      6859.51301677

loop_
_atom_site_label
_atom_site_type_symbol
_atom_type_description
_atom_site_fract_x
_atom_site_fract_y
_atom_site_fract_z
_atom_type_partial_charge
C1    C     C_R   0.302178 0.608387 0.555663 0.542991
C2    C     C_R   0.210752 0.724081 0.391415 -0.119484
C3    C     C_R   0.733737 0.112767 0.268419 -0.171499
C4    C     C_R   0.741561 0.103647 0.228771 -0.126778
C5    C     C_R   0.675685 0.186286 0.205789 -0.016530
C6    C     C_R   0.720763 0.227837 0.348214 -0.098308
C7    C     C_R   0.705226 0.249502 0.387289 -0.113465
C8    C     C_R   0.557100 0.225829 0.385337 -0.105043
C9    C     C_R   0.738840 0.601482 0.647240 -0.086301
C10   C     C_R   0.572891 0.204118 0.346273 -0.061103
C11   C     C_R   0.651894 0.209661 0.327402 0.066472
C12   C     C_R   0.620449 0.253183 0.405846 0.024036
C13   C     C_R   0.180579 0.734085 0.353364 -0.125429
C14   C     C_R   0.082023 0.710451 0.094347 0.023971
C15   C     C_R   0.099183 0.618435 0.110710 -0.116372
C16   C     C_R   0.131262 0.596553 0.148579 -0.102288
C17   C     C_R   0.146087 0.666610 0.170538 0.031850
C18   C     C_R   0.136301 0.754711 0.153211 -0.124009
C19   C     C_R   0.105145 0.776138 0.115387 -0.121274
C20   C     C_R   0.225728 0.683324 0.230651 -0.068746
C21   C     C_3   0.823090 0.514974 0.325976 -0.229365
C22   C     C_3   0.842749 0.404720 0.323645 -0.292925
C23   C     C_3   0.936199 0.336811 0.298769 -0.456242
C24   C     C_R   0.180629 0.652061 0.334017 0.040360
C25   C     C_3   0.860268 0.154130 0.160453 -0.239553
C26   C     C_3   0.829788 0.266614 0.167698 -0.288052
C27   C     C_3   0.917541 0.275243 0.185772 -0.458533
C28   C     C_R   0.555994 0.717774 0.651329 -0.140717
C29   C     C_R   0.241719 0.631652 0.410500 0.026101
C30   C     C_R   0.736391 0.024541 0.943063 0.551848
C31   C     C_R   0.745878 0.722878 0.945077 0.545673
C32   C     C_R   0.037353 0.734352 0.948067 0.553168
C33   C     C_R   0.722343 0.040164 0.052665 0.565608
C34   C     C_R   0.733297 0.734101 0.054584 0.537729
C35   C     C_R   0.651706 0.666167 0.669145 -0.022636
C36   C     C_R   0.027432 0.744937 0.057884 0.545835
C37   C     C_R   0.546067 0.697584 0.613159 -0.177070
C38   C     C_R   0.671591 0.677354 0.788254 0.383673
C39   C     C_R   0.659874 0.673534 0.710898 0.337174
C40   C     C_R   0.763253 0.601285 0.849080 -0.083942
C41   C     C_R   0.779931 0.611125 0.887685 -0.101803
C42   C     C_R   0.626626 0.778626 0.889553 -0.118363
C43   C     C_R   0.609578 0.768443 0.850972 -0.081384
C44   C     C_R   0.680148 0.681507 0.830065 0.045174
C45   C     C_R   0.611377 0.589065 0.555025 0.580252
C46   C     C_R   0.230692 0.683504 0.270332 -0.042351
C47   C     C_R   0.714260 0.701770 0.907823 0.013145
C48   C     C_R   0.725857 0.067208 0.904422 0.021908
C49   C     C_R   0.636366 0.095576 0.883160 -0.102923
C50   C     C_R   0.635006 0.111625 0.843900 -0.057405
C51   C     C_R   0.722962 0.099357 0.825363 0.061932
C52   C     C_R   0.809752 0.078774 0.846778 -0.100597
C53   C     C_R   0.811337 0.062635 0.886095 -0.116022
C54   C     C_R   0.726971 0.190548 0.767904 -0.160964
C55   C     C_R   0.718945 0.205940 0.728576 -0.124420
C56   C     C_R   0.707376 0.137975 0.704162 -0.015752
C57   C     C_R   0.172145 0.653625 0.292202 0.050580
C58   C     C_R   0.590587 0.300312 0.553565 0.536460
C59   C     C_R   0.708460 0.051725 0.719447 -0.101917
C60   C     C_R   0.718673 0.034160 0.758963 0.246642
C61   C     C_R   0.724306 0.106650 0.783494 0.005217
C62   C     C_R   0.602463 0.164863 0.645496 -0.112885
C63   C     C_R   0.573517 0.204658 0.608728 -0.121617
C64   C     C_R   0.720136 0.230213 0.605735 -0.117511
C65   C     C_R   0.748299 0.191504 0.642531 -0.112510
C66   C     C_R   0.687959 0.161535 0.663125 0.030035
C67   C     C_R   0.630296 0.240810 0.589008 0.015217
C68   C     C_R   0.110062 0.621445 0.273891 -0.103630
C69   C     C_R   0.086518 0.698955 0.910194 -0.023693
C70   C     C_R   0.299340 0.610605 0.446359 0.549384
C71   C     C_R   0.121636 0.756012 0.890307 -0.133850
C72   C     C_R   0.142760 0.739456 0.851271 -0.172182
C73   C     C_R   0.129075 0.665872 0.831419 0.014168
C74   C     C_R   0.099147 0.603966 0.851469 0.287853
C75   C     C_R   0.079800 0.620175 0.890852 -0.097859
C76   C     C_R   0.222496 0.575402 0.771977 -0.055217
C77   C     C_R   0.232320 0.570552 0.732269 -0.100896
C78   C     C_R   0.160650 0.651518 0.709716 0.025355
C79   C     C_R   0.104189 0.622303 0.234090 -0.104346
C80   C     C_R   0.078521 0.737201 0.727461 -0.084667
C81   C     C_R   0.068135 0.741449 0.767225 -0.051606
C82   C     C_R   0.608304 0.590353 0.445399 0.602319
C83   C     C_R   0.139968 0.660365 0.789576 0.066121
C84   C     C_R   0.176825 0.731017 0.649843 -0.116577
C85   C     C_R   0.211168 0.720754 0.612098 -0.120304
C86   C     C_R   0.236881 0.548562 0.609320 -0.116379
C87   C     C_R   0.203375 0.558609 0.647097 -0.099797
C88   C     C_R   0.176747 0.648439 0.668043 0.032624
C89   C     C_R   0.245289 0.627918 0.592001 0.022015
C90   C     C_R   0.161315 0.654218 0.212175 0.038846
C91   C     C_R   0.691528 0.716323 0.090010 0.015176
C92   C     C_R   0.608931 0.798215 0.109237 -0.121388
C93   C     C_R   0.583924 0.786077 0.146542 -0.117895
C94   C     C_R   0.587861 0.302933 0.443717 0.543103
C95   C     C_R   0.640754 0.691715 0.165093 0.029784
C96   C     C_R   0.717566 0.607655 0.144674 -0.118900
C97   C     C_R   0.742760 0.619857 0.107487 -0.122178
C98   C     C_R   0.634656 0.594999 0.222064 -0.130142
C99   C     C_R   0.634537 0.583525 0.261641 -0.112465
C100  C     C_R   0.629716 0.659819 0.286255 0.026671
C101  C     C_R   0.201290 0.563779 0.354107 -0.056801
C102  C     C_R   0.621045 0.749415 0.271096 -0.120376
C103  C     C_R   0.620719 0.761262 0.231584 -0.115598
C104  C     C_R   0.628815 0.683613 0.206673 0.031591
C105  C     C_R   0.539696 0.702053 0.347664 -0.126410
C106  C     C_R   0.631574 0.625406 0.591783 0.004144
C107  C     C_R   0.534544 0.688444 0.386511 -0.166886
C108  C     C_R   0.720463 0.579974 0.388942 0.252306
C109  C     C_R   0.724590 0.583810 0.348196 0.008022
C110  C     C_R   0.632447 0.647231 0.328008 0.006988
C111  C     C_R   0.623221 0.623876 0.407322 0.011141
C112  C     C_R   0.231674 0.553586 0.392205 -0.090338
C113  C     C_R   0.698892 0.104486 0.087810 -0.011477
C114  C     C_R   0.780451 0.109401 0.105630 -0.165551
C115  C     C_R   0.771989 0.145863 0.143233 -0.001759
C116  C     C_R   0.681122 0.173638 0.163902 -0.015390
C117  C     C_R   0.595677 0.181498 0.144853 -0.101293
C118  C     C_R   0.730476 0.581375 0.608625 0.251086
C119  C     C_R   0.602088 0.150861 0.106598 0.256338
C120  C     C_R   0.599802 0.277352 0.222794 -0.125652
C121  C     C_R   0.590529 0.287332 0.262671 0.247244
C122  C     C_R   0.658316 0.203710 0.285592 0.009023
Cr1   Cr    Cr6+3 0.421670 0.426920 0.499620 1.030605
Cr2   Cr    Cr6+3 0.427030 0.651190 0.500980 1.027112
Cr3   Cr    Cr6+3 0.651280 0.421870 0.499380 1.127194
Cr4   Cr    Cr6+3 0.910810 0.908010 0.001130 1.019553
Cr5   Cr    Cr6+3 0.682800 0.909890 0.998370 1.090247
Cr6   Cr    Cr6+3 0.908370 0.682300 0.002180 1.031571
H1    H     H_    0.881532 0.040670 0.901624 0.132242
H2    H     H_    0.469562 0.734006 0.601201 0.148428
H3    H     H_    0.765974 0.256801 0.591251 0.168836
H4    H     H_    0.127203 0.817419 0.904400 0.143558
H5    H     H_    0.052198 0.576121 0.905890 0.172194
H6    H     H_    0.202470 0.494544 0.660530 0.130569
H7    H     H_    0.297600 0.504852 0.719201 0.112269
H8    H     H_    0.279701 0.513513 0.789014 0.144076
H9    H     H_    0.165869 0.787121 0.836109 0.122010
H10   H     H_    0.022719 0.800545 0.710576 0.127654
H11   H     H_    0.004269 0.807823 0.780619 0.161424
H12   H     H_    0.815129 0.188544 0.655514 0.126822
H13   H     H_    0.156787 0.800940 0.665565 0.110402
H14   H     H_    0.847633 0.550247 0.901093 0.167926
H15   H     H_    0.216352 0.783373 0.599448 0.133833
H16   H     H_    0.261897 0.476317 0.594520 0.134859
H17   H     H_    0.567589 0.873131 0.096374 0.178895
H18   H     H_    0.806250 0.554995 0.093258 0.131374
H19   H     H_    0.639238 0.514883 0.273043 0.147752
H20   H     H_    0.640274 0.534339 0.203507 0.097121
H21   H     H_    0.523055 0.851599 0.161482 0.120831
H22   H     H_    0.616633 0.809136 0.289901 0.115808
H23   H     H_    0.717543 0.273405 0.717341 0.131566
H24   H     H_    0.813625 0.564059 0.660584 0.192782
H25   H     H_    0.618016 0.829502 0.220553 0.111240
H26   H     H_    0.469518 0.751115 0.332332 0.127963
H27   H     H_    0.459382 0.725108 0.399859 0.147869
H28   H     H_    0.762891 0.534131 0.158276 0.101614
H29   H     H_    0.852938 0.080897 0.090738 0.136571
H30   H     H_    0.520390 0.188342 0.330362 0.133146
H31   H     H_    0.547906 0.340016 0.204762 0.147204
H32   H     H_    0.487527 0.769401 0.667382 0.150119
H33   H     H_    0.785488 0.048252 0.285795 0.118585
H34   H     H_    0.732045 0.246034 0.786394 0.126575
H35   H     H_    0.798157 0.031492 0.215941 0.119711
H36   H     H_    0.782842 0.230963 0.333803 0.103521
H37   H     H_    0.755513 0.270050 0.402296 0.145494
H38   H     H_    0.524487 0.208121 0.160478 0.173570
H39   H     H_    0.491541 0.227531 0.398869 0.133432
H40   H     H_    0.082929 0.565922 0.094942 0.131852
H41   H     H_    0.092871 0.847545 0.103510 0.130787
H42   H     H_    0.162748 0.803670 0.338393 0.098020
H43   H     H_    0.817771 0.532476 0.833796 0.168211
H44   H     H_    0.281574 0.705582 0.283965 0.126184
H45   H     H_    0.566606 0.130054 0.827700 0.149975
H46   H     H_    0.271960 0.706413 0.214418 0.110795
H47   H     H_    0.140483 0.527006 0.161139 0.122163
H48   H     H_    0.064556 0.597930 0.290384 0.106113
H49   H     H_    0.052347 0.601392 0.220573 0.101503
H50   H     H_    0.201525 0.499742 0.339616 0.140838
H51   H     H_    0.254346 0.481743 0.406349 0.139937
H52   H     H_    0.146227 0.810638 0.169523 0.097418
H53   H     H_    0.216459 0.786020 0.404971 0.132061
H54   H     H_    0.574361 0.849238 0.904406 0.137005
H55   H     H_    0.544262 0.831084 0.837112 0.162495
H56   H     H_    0.701047 0.998558 0.700461 0.129865
H57   H     H_    0.569224 0.100002 0.896419 0.143593
H58   H     H_    0.006324 0.453228 0.590041 0.369990
H59   H     H_    0.704303 0.845133 0.727085 0.351601
H60   H     H_    0.989392 0.514674 0.777828 0.378729
H61   H     H_    0.924362 0.367026 0.269205 0.148584
H62   H     H_    0.005890 0.333638 0.310993 0.173675
H63   H     H_    0.948018 0.257917 0.297530 0.140896
H64   H     H_    0.855375 0.371499 0.352667 0.212427
H65   H     H_    0.775019 0.404104 0.311359 0.166255
H66   H     H_    0.819297 0.543265 0.296494 0.136624
H67   H     H_    0.554610 0.142488 0.661025 0.118660
H68   H     H_    0.890125 0.515422 0.338500 0.209610
H69   H     H_    0.866230 0.579624 0.471825 0.393196
H70   H     H_    0.324565 0.274693 0.094029 0.366818
H71   H     H_    0.497990 0.505716 0.240393 0.321174
H72   H     H_    0.939105 0.234997 0.213620 0.153323
H73   H     H_    0.985401 0.241351 0.166431 0.159230
H74   H     H_    0.892976 0.357237 0.190883 0.135510
H75   H     H_    0.808652 0.308478 0.140150 0.165605
H76   H     H_    0.762409 0.304244 0.187193 0.168301
H77   H     H_    0.886026 0.110455 0.187429 0.143710
H78   H     H_    0.504118 0.211644 0.596553 0.134605
H79   H     H_    0.927679 0.119309 0.140820 0.131535
H80   H     H_    0.877685 0.070577 0.832767 0.113810
N1    N     N_R   0.752792 0.608135 0.767113 -0.197545
N2    N     N_R   0.746975 0.606115 0.729204 -0.213220
N3    N     N_R   0.578625 0.743016 0.732030 -0.229867
N4    N     N_R   0.584587 0.745303 0.769984 -0.206826
O1    O     O_R   0.502070 0.323090 0.541280 -0.518436
O2    O     O_R   0.831550 0.656950 0.958960 -0.516468
O3    O     O_R   0.998590 0.685540 0.963930 -0.499196
O4    O     O_R   0.338340 0.520690 0.539540 -0.500896
O5    O     O_R   0.008220 0.831200 0.045060 -0.520946
O6    O     O_R   0.813270 0.997930 0.038810 -0.520581
O7    O     O_R   0.657500 0.016560 0.039940 -0.421526
O8    O     O_R   0.685680 0.820940 0.038120 -0.493701
O9    O     O_R   0.822130 0.666070 0.043610 -0.520291
O10   O     O_R   0.989860 0.694000 0.042400 -0.500227
O11   O     O_3   0.833990 0.833400 0.000560 -0.252172
O12   O     O_R   0.520720 0.641670 0.461580 -0.517169
O13   O     O_R   0.324760 0.674070 0.543580 -0.519434
O14   O     O_R   0.522400 0.640310 0.540110 -0.517710
O15   O     O_R   0.675940 0.500630 0.542210 -0.420130
O16   O     O_R   0.641790 0.337020 0.538150 -0.500799
O17   O     O_R   0.500260 0.324550 0.456580 -0.515038
O18   O     O_R   0.336660 0.522040 0.461020 -0.497500
O19   O     O_R   0.322940 0.675540 0.458880 -0.521438
O20   O     O_2   0.862554 0.393838 0.581746 -0.280411
O21   O     O_2   0.839076 0.539830 0.543499 -0.247772
O22   O     O_3   0.945587 0.499147 0.605867 -0.535472
O23   O     O_R   0.674120 0.502090 0.457500 -0.425958
O24   O     O_2   0.797601 0.879872 0.809645 -0.244683
O25   O     O_2   0.620182 0.945013 0.789559 -0.306343
O26   O     O_3   0.766400 0.830483 0.741778 -0.485582
O27   O     O_2   0.175100 0.425071 0.813649 -0.292551
O28   O     O_2   0.024928 0.473934 0.854259 -0.318945
O29   O     O_3   0.997999 0.569522 0.790043 -0.469122
O30   O     O_2   0.885869 0.418222 0.419706 -0.277554
O31   O     O_2   0.906286 0.563260 0.400523 -0.328120
O32   O     O_3   0.802859 0.583394 0.461797 -0.473667
O33   O     O_2   0.484402 0.207775 0.043650 -0.261970
O34   O     O_R   0.640110 0.338380 0.459630 -0.504369
O35   O     O_2   0.480656 0.077447 0.084252 -0.297539
O36   O     O_3   0.385302 0.266383 0.108174 -0.541206
O37   O     O_2   0.410361 0.388150 0.299168 -0.266920
O38   O     O_2   0.536535 0.440275 0.314178 -0.307478
O39   O     O_3   0.441536 0.494881 0.248996 -0.524190
O40   O     O_3   0.499990 0.499990 0.499990 -0.263184
O41   O     O_R   0.017640 0.822070 0.960410 -0.513864
O42   O     O_R   0.822000 0.989470 0.960340 -0.505225
O43   O     O_R   0.666920 0.007430 0.955290 -0.502435
O44   O     O_R   0.694410 0.812480 0.959650 -0.501568
S1    S     S_3+6 0.845761 0.500924 0.583401 0.025653
S2    S     S_3+6 0.725046 0.920991 0.776426 0.005659
S3    S     S_3+6 0.075320 0.513487 0.827634 0.006120
S4    S     S_3+6 0.833488 0.532964 0.417355 0.008578
S5    S     S_3+6 0.486882 0.173961 0.084171 0.012236
S6    S     S_3+6 0.493333 0.404356 0.282739 -0.018578

loop_
_geom_bond_atom_site_label_1
_geom_bond_atom_site_label_2
_ccdc_geom_bond_type
O22   S1    S    
C87   C88   A    
H69   O32   S    
C100  C110  S    
C27   H74   S    
C56   C59   A    
C73   C74   A    
C27   H72   S    
C29   C112  A    
C93   H21   S    
C95   C96   A    
O32   S4    S    
C23   H61   S    
C55   C56   A    
O33   S5    D    
C85   H15   S    
C23   H63   S    
C114  C115  A    
C76   H8    S    
Cr5   O7    S    
C9    H24   S    
C118  S1    S    
C96   H28   S    
C77   C78   A    
C37   H2    S    
C101  C112  A    
C45   O14   A    
C105  C107  A    
C26   C27   S    
C31   O44   A    
C50   H45   S    
Cr5   O43   S    
C84   H13   S    
O27   S3    D    
C105  C110  A    
C18   C19   A    
C29   C70   S    
C117  C119  A    
C14   C36   S    
C35   C39   S    
C8    C10   A    
C34   O8    A    
C82   O12   A    
C78   C88   S    
C115  C116  A    
C98   C99   A    
C28   H32   S    
C108  C109  A    
C76   C83   A    
C24   C101  A    
C45   O15   A    
C60   S2    S    
C69   C71   A    
C2    C13   A    
C34   C91   S    
O38   S6    D    
C79   C90   A    
C101  H50   S    
C71   H4    S    
C70   O19   A    
C65   H12   S    
C103  H25   S    
C20   H46   S    
Cr2   O12   S    
C28   C35   A    
H70   O36   S    
C16   C17   A    
C63   H78   S    
C51   C61   S    
C32   O41   A    
C120  H31   S    
C30   O42   A    
C22   H65   S    
O26   S2    S    
C1    O13   A    
O37   S6    D    
Cr3   O16   S    
C10   H30   S    
Cr4   O5    S    
Cr5   O11   S    
C42   C47   A    
Cr1   O40   S    
C33   C113  S    
C68   C79   A    
C105  H26   S    
C7    H37   S    
C120  C121  A    
C18   H52   S    
C59   C60   A    
C93   C95   A    
C31   C47   S    
C21   C22   S    
C106  C118  A    
C9    C118  A    
C32   O3    A    
C87   H6    S    
C12   C94   S    
Cr3   O34   S    
C59   H56   S    
C56   C66   S    
O30   S4    D    
C62   H67   S    
C25   H77   S    
C38   N1    A    
Cr6   O11   S    
C100  C102  A    
C95   C104  S    
C81   C83   A    
Cr1   O4    S    
Cr5   O8    S    
C50   C51   A    
C6    C7    A    
C33   O7    A    
C68   H48   S    
C48   C53   A    
C2    C29   A    
C63   C67   A    
C98   C104  A    
O25   S2    D    
C74   C75   A    
C62   C66   A    
C5    C120  A    
C86   H16   S    
Cr5   O44   S    
C64   C67   A    
C19   H41   S    
C84   C85   A    
C72   C73   A    
N1    N2    A    
Cr6   O10   S    
C91   C92   A    
C31   O2    A    
C85   C89   A    
C86   C87   A    
C24   C57   S    
O21   S1    D    
Cr6   O3    S    
C25   C26   S    
C33   O6    A    
C20   C90   A    
C42   H54   S    
C51   C52   A    
C13   C24   A    
C60   C61   A    
C2    H53   S    
C36   O5    A    
C26   H76   S    
C43   C44   A    
C70   O18   A    
C114  H29   S    
C38   C44   S    
C62   C63   A    
Cr3   O23   S    
C8    H39   S    
C121  S6    S    
C75   H5    S    
C21   C109  S    
N3    N4    A    
Cr1   O17   S    
C64   H3    S    
C117  H38   S    
C8    C12   A    
C21   H68   S    
C96   C97   A    
C1    O4    A    
C79   H49   S    
C17   C18   A    
C41   C47   A    
C4    H35   S    
C39   N3    A    
Cr4   O42   S    
C113  C119  A    
C76   C77   A    
C55   H23   S    
C94   O34   A    
C121  C122  A    
O35   S5    D    
C102  H22   S    
C112  H51   S    
C16   H47   S    
H71   O39   S    
C48   C49   A    
C34   O9    A    
C6    H36   S    
C65   C66   A    
O20   S1    D    
Cr1   O1    S    
C5    C116  S    
C45   C106  S    
C21   H66   S    
C72   H9    S    
C15   H40   S    
C108  S4    S    
C11   C122  S    
C53   H1    S    
C42   C43   A    
C57   C68   A    
C22   H64   S    
C3    C4    A    
C36   O10   A    
C6    C11   A    
H59   O26   S    
C58   O16   A    
C52   C53   A    
C113  C114  A    
C30   C48   S    
C81   H11   S    
C58   O1    A    
C99   H19   S    
C54   C55   A    
C40   C41   A    
C1    C89   S    
O29   S3    S    
C92   H17   S    
C30   O43   A    
C107  C111  A    
C14   C19   A    
Cr3   O40   S    
C17   C90   S    
C84   C88   A    
C37   C106  A    
C80   C81   A    
C86   C89   A    
Cr6   O9    S    
Cr2   O14   S    
C3    C122  A    
C13   H42   S    
C32   C69   S    
C54   C61   A    
C54   H34   S    
C74   S3    S    
O36   S5    S    
O24   S2    D    
C108  C111  A    
C38   N4    A    
C64   C65   A    
C25   C115  S    
C26   H75   S    
C91   C97   A    
C41   H14   S    
C46   C57   A    
C25   H79   S    
C99   C100  A    
C82   C111  S    
C27   H73   S    
C22   C23   S    
C119  S5    S    
Cr1   O18   S    
C98   H20   S    
C28   C37   A    
C80   H10   S    
C4    C5    A    
C43   H55   S    
C92   C93   A    
C46   H44   S    
C116  C117  A    
C69   C75   A    
Cr4   O41   S    
C78   C80   A    
O31   S4    D    
C40   H43   S    
O28   S3    D    
C102  C103  A    
C20   C46   A    
Cr4   O11   S    
Cr2   O19   S    
C10   C11   A    
C3    H33   S    
O39   S6    S    
C97   H18   S    
Cr4   O6    S    
C58   C67   S    
C40   C44   A    
C49   H57   S    
C39   N2    A    
C82   O23   A    
Cr2   O40   S    
C49   C50   A    
C109  C110  A    
C103  C104  A    
C9    C35   A    
C14   C15   A    
C7    C12   A    
Cr2   O13   S    
C77   H7    S    
C71   C72   A    
Cr3   O15   S    
H60   O29   S    
C73   C83   S    
C23   H62   S    
C107  H27   S    
C15   C16   A    
C94   O17   A    
Cr6   O2    S    
H58   O22   S    
C52   H80   S    
