data_mof_unit_25982.cif
_audit_creation_date              2012-12-10T18:58:46-0500
_audit_creation_method            fapswitch 2.2
_symmetry_space_group_name_H-M    P1
_symmetry_Int_Tables_number       1
_space_group_crystal_system       triclinic
_cell_length_a                    13.012019
_cell_length_b                    10.840333
_cell_length_c                    9.543224
_cell_angle_alpha                 90.558697
_cell_angle_beta                  96.120664
_cell_angle_gamma                 90.309131
_cell_volume                      1338.35070158

loop_
_atom_site_label
_atom_site_type_symbol
_atom_type_description
_atom_site_fract_x
_atom_site_fract_y
_atom_site_fract_z
_atom_type_partial_charge
C1    C     C_R   0.497446 0.262408 0.498947 0.801590
C2    C     C_R   0.028515 0.488844 0.567850 -0.050097
C3    C     C_R   0.972292 0.501249 0.433759 0.083459
C4    C     C_R   0.864987 0.503560 0.422164 -0.342953
C5    C     C_R   0.868911 0.479519 0.675730 0.519357
C6    C     C_R   0.976344 0.477457 0.688207 0.518970
C7    C     C_R   0.476816 0.065479 0.619710 0.123373
C8    C     C_R   0.486094 0.129518 0.495712 -0.096739
C9    C     C_R   0.480737 0.063154 0.367880 -0.207510
C10   C     C_R   0.481477 0.934470 0.368865 -0.208519
C11   C     C_R   0.487694 0.871136 0.497680 -0.095996
C12   C     C_R   0.300554 0.499657 0.473695 0.801209
C13   C     C_R   0.477643 0.938456 0.620940 0.134730
C14   C     C_3   0.540632 0.936607 0.761206 -0.490179
C15   C     C_3   0.539044 0.076357 0.759809 -0.435295
C16   C     C_R   0.587120 0.531689 0.086756 0.265155
C17   C     C_R   0.417690 0.456043 0.061961 -0.079867
C18   C     C_R   0.417679 0.456033 0.913214 -0.081858
C19   C     C_R   0.587438 0.530718 0.939384 0.337338
C20   C     C_3   0.644232 0.650426 0.943082 -0.489182
C21   C     C_3   0.643084 0.652131 0.101796 -0.510111
C22   C     C_R   0.498205 0.737857 0.500072 0.798173
C23   C     C_R   0.699576 0.498236 0.526497 0.881207
C24   C     C_R   0.812578 0.494111 0.542517 -0.266864
C25   C     C_R   0.187845 0.499138 0.458587 -0.083779
C26   C     C_R   0.024203 0.511481 0.313170 -0.112213
C27   C     C_R   0.131639 0.510308 0.325501 -0.174034
C28   C     C_R   0.135929 0.487928 0.579087 -0.167874
Cu1   Cu    Cu3+1 0.499990 0.499980 0.640670 0.970714
Cu2   Cu    Cu3+1 0.500010 0.500020 0.359330 0.947614
H1    H     H_    0.822516 0.512813 0.318920 0.192950
H2    H     H_    0.619213 0.898398 0.755248 0.202128
H3    H     H_    0.493954 0.117136 0.841192 0.200003
H4    H     H_    0.616474 0.118666 0.753588 0.214207
H5    H     H_    0.350462 0.421932 0.107174 0.152787
H6    H     H_    0.350447 0.421658 0.848017 0.154526
H7    H     H_    0.723021 0.641181 0.909687 0.253170
H8    H     H_    0.596819 0.723672 0.889876 0.199363
H9    H     H_    0.721378 0.643862 0.159544 0.202843
H10   H     H_    0.595183 0.727455 0.139919 0.211156
H11   H     H_    0.981817 0.520800 0.209748 0.170137
H12   H     H_    0.170567 0.518937 0.231223 0.168963
H13   H     H_    0.179163 0.478552 0.681902 0.195851
H14   H     H_    0.481560 0.109938 0.268233 0.168769
H15   H     H_    0.482448 0.885463 0.269597 0.163239
H16   H     H_    0.496603 0.897618 0.844234 0.199685
N1    N     N_R   0.500660 0.500930 0.148010 -0.195020
N2    N     N_R   0.500660 0.500890 0.852110 -0.202087
O1    O     O_R   0.500000 0.319640 0.618810 -0.578460
O2    O     O_R   0.500010 0.319680 0.381230 -0.585387
O3    O     O_R   0.348990 0.499960 0.599490 -0.596450
O4    O     O_R   0.349000 0.500000 0.361910 -0.591078
O5    O     O_R   0.499990 0.680320 0.618770 -0.581607
O6    O     O_R   0.500000 0.680360 0.381190 -0.586444
O7    O     O_R   0.651000 0.500000 0.638090 -0.528350
O8    O     O_R   0.651010 0.500040 0.400510 -0.591893
F1    F     F_    0.820694 0.465310 0.793887 -0.648123
F2    F     F_    0.029160 0.463962 0.817802 -0.654697

loop_
_geom_bond_atom_site_label_1
_geom_bond_atom_site_label_2
_ccdc_geom_bond_type
C7    C13   A    
C18   N2    A    
C23   C24   S    
C16   C21   S    
C23   O7    A    
Cu1   Cu2   S    
C25   C27   A    
C1    C8    S    
C20   H8    S    
C9    C10   A    
C6    F2    S    
C15   H4    S    
Cu1   O7    S    
C19   C20   S    
C21   H9    S    
C5    F1    S    
C12   C25   S    
Cu2   O8    S    
C10   H15   S    
C7    C15   S    
C17   C18   A    
Cu2   O2    S    
C7    C8    A    
C22   O6    A    
Cu1   O1    S    
C13   C14   S    
C25   C28   A    
C20   H7    S    
Cu2   O6    S    
C27   H12   S    
C23   O8    A    
C26   C27   A    
C2    C6    A    
C5    C24   A    
Cu1   O5    S    
C16   C19   A    
C16   N1    A    
C17   H5    S    
C12   O4    A    
C2    C3    A    
C22   O5    A    
Cu1   O3    S    
C5    C6    A    
C4    C24   A    
C4    H1    S    
C10   C11   A    
Cu1   N2    S    
C3    C4    A    
Cu2   N1    S    
C11   C13   A    
C12   O3    A    
C20   C21   S    
C11   C22   S    
C14   H16   S    
C1    O1    A    
C1    O2    A    
Cu2   O4    S    
C14   C15   S    
C9    H14   S    
C2    C28   A    
C28   H13   S    
C19   N2    A    
C18   H6    S    
C15   H3    S    
C3    C26   A    
C17   N1    A    
C26   H11   S    
C14   H2    S    
C8    C9    A    
C21   H10   S    
