data_mof_unit_36146.cif
_audit_creation_date              2013-03-05T16:12:08-0500
_audit_creation_method            fapswitch 2.2
_symmetry_space_group_name_H-M    P1
_symmetry_Int_Tables_number       1
_space_group_crystal_system       triclinic
_cell_length_a                    10.772932
_cell_length_b                    9.68566
_cell_length_c                    27.612648
_cell_angle_alpha                 89.965707
_cell_angle_beta                  88.366687
_cell_angle_gamma                 89.649245
_cell_volume                      2879.96051331

loop_
_atom_site_label
_atom_site_type_symbol
_atom_site_description
_atom_site_fract_x
_atom_site_fract_y
_atom_site_fract_z
_atom_type_partial_charge
O1    O     O_R   0.317570 0.620260 0.500030 -0.590932
O2    O     O_R   0.317570 0.379740 0.500030 -0.597511
C1    C     C_R   0.260391 0.500420 0.503629 0.750372
O3    O     O_R   0.499900 0.620250 0.430280 -0.561784
O4    O     O_R   0.499900 0.379750 0.430280 -0.564987
C2    C     C_R   0.501337 0.500336 0.407965 0.811201
Cu1   Cu    Cu3+1 0.499860 0.642410 0.500020 0.938553
Cu2   Cu    Cu3+1 0.499860 0.357590 0.500020 0.948390
O5    O     O_R   0.682190 0.620260 0.500010 -0.599039
O6    O     O_R   0.682190 0.379740 0.500010 -0.561078
O7    O     O_R   0.499860 0.620280 0.569750 -0.580714
O8    O     O_R   0.499860 0.379720 0.569750 -0.581077
C3    C     C_R   0.739069 0.499729 0.499880 0.770034
C4    C     C_R   0.500891 0.499766 0.591894 0.784058
C5    C     C_R   0.536850 0.631376 0.177517 0.537445
O9    O     O_2   0.514728 0.749625 0.202213 -0.525635
N1    N     N_R   0.547262 0.509071 0.201994 -0.468398
C6    C     C_R   0.568601 0.387461 0.177831 0.537591
C7    C     C_R   0.619620 0.579503 0.281963 -0.087412
C8    C     C_R   0.607618 0.577633 0.332357 -0.206235
C9    C     C_R   0.425735 0.432735 0.327230 -0.234770
C10   C     C_R   0.437128 0.435384 0.276812 -0.098325
C11   C     C_R   0.534639 0.507999 0.253923 0.338825
C12   C     C_R   0.567403 0.510090 0.101104 -0.046758
C13   C     C_R   0.547277 0.634225 0.126723 -0.018821
C14   C     C_R   0.537713 0.758252 0.101221 -0.141788
C15   C     C_R   0.578443 0.385602 0.127034 -0.019015
C16   C     C_R   0.511603 0.502678 0.355157 -0.024922
H1    H     H_    0.348815 0.378586 0.344289 0.191798
H2    H     H_    0.369970 0.381506 0.255466 0.156432
H3    H     H_    0.524925 0.855600 0.120088 0.186901
C17   C     C_R   0.514058 0.498289 0.644067 -0.005673
C18   C     C_R   0.556383 0.633371 0.972509 0.031836
C19   C     C_R   0.611331 0.386008 0.973083 0.025619
C20   C     C_R   0.583924 0.508341 0.947302 0.073367
C21   C     C_R   0.524567 0.751335 0.945242 -0.169522
C22   C     C_R   0.520631 0.746712 0.895116 -0.112894
C23   C     C_R   0.548543 0.624775 0.870082 -0.026872
C24   C     C_R   0.582157 0.505161 0.895856 -0.039998
C25   C     C_R   0.612199 0.382370 0.870165 -0.095718
C26   C     C_R   0.591749 0.379274 0.819780 0.616287
N2    N     N_R   0.559395 0.497093 0.795814 -0.447351
C27   C     C_R   0.540987 0.619255 0.819606 0.572959
C28   C     C_R   0.421801 0.489780 0.725314 0.004133
C29   C     C_R   0.409404 0.494501 0.674886 -0.267354
C30   C     C_R   0.632813 0.497939 0.662826 -0.169375
C31   C     C_R   0.648402 0.496733 0.712861 0.165882
C32   C     C_R   0.542817 0.492281 0.744399 0.284145
O10   O     O_2   0.512877 0.734281 0.794442 -0.512505
C33   C     C_R   0.558797 0.635778 0.023957 0.046116
C34   C     C_R   0.575503 0.510285 0.049645 0.070955
C35   C     C_R   0.599271 0.384778 0.024433 0.054735
C36   C     C_R   0.543748 0.759384 0.050892 -0.202701
H4    H     H_    0.318214 0.493989 0.659420 0.158210
H5    H     H_    0.493493 0.839403 0.876033 0.214523
H6    H     H_    0.498029 0.848465 0.961537 0.153711
H7    H     H_    0.538003 0.859701 0.034239 0.137635
O11   O     O_2   0.581063 0.268760 0.202917 -0.526361
C37   C     C_R   0.597410 0.261910 0.101826 -0.142857
H8    H     H_    0.674149 0.632931 0.353621 0.148460
H9    H     H_    0.695257 0.635827 0.264673 0.153570
H10   H     H_    0.603769 0.164357 0.120856 0.187105
C38   C     C_R   0.653387 0.269315 0.946669 -0.246672
C39   C     C_R   0.657662 0.267167 0.896052 -0.016655
O12   O     O_2   0.598443 0.259313 0.795060 -0.489636
C40   C     C_R   0.607016 0.261130 0.051557 -0.205185
H11   H     H_    0.690902 0.180394 0.964839 0.165391
H12   H     H_    0.713123 0.500740 0.638271 0.124607
H13   H     H_    0.616397 0.160852 0.034880 0.140370
C41   C     C_3   0.064670 0.644214 0.523173 0.012495
C42   C     C_3   0.064734 0.381690 0.538651 0.014937
H14   H     H_    0.105878 0.726477 0.499711 0.193035
H15   H     H_    0.091151 0.282515 0.520501 0.162255
C43   C     C_3   0.923375 0.645567 0.515489 -0.340152
C44   C     C_3   0.920911 0.392412 0.539403 -0.320352
H16   H     H_    0.870862 0.683069 0.548230 0.211765
H17   H     H_    0.882052 0.422616 0.575645 0.171858
H18   H     H_    0.902580 0.720094 0.486012 0.165328
H19   H     H_    0.883490 0.288399 0.531333 0.196502
H20   H     H_    0.109399 0.560392 0.429320 0.216536
H21   H     H_    0.121140 0.378112 0.438571 0.213650
H22   H     H_    0.899536 0.531937 0.423186 0.174346
H23   H     H_    0.909905 0.354684 0.441753 0.188415
C45   C     C_3   0.078090 0.474487 0.453406 -0.456639
C46   C     C_3   0.120856 0.500995 0.506201 0.133229
C47   C     C_3   0.876893 0.499630 0.501585 0.054567
C48   C     C_3   0.935379 0.462033 0.451665 -0.432606
C49   C     C_3   0.617801 0.080121 0.480383 -0.244361
C50   C     C_3   0.610743 0.917806 0.474950 -0.255632
H24   H     H_    0.699493 0.103340 0.501854 0.196966
H25   H     H_    0.698662 0.869006 0.485427 0.195037
H26   H     H_    0.644229 0.128783 0.445408 0.207310
H27   H     H_    0.610403 0.892189 0.435961 0.220312
C51   C     C_3   0.482497 0.085134 0.552770 0.179651
C52   C     C_3   0.490912 0.914759 0.552873 0.168194
C53   C     C_3   0.397523 0.083538 0.471083 -0.104803
C54   C     C_3   0.390236 0.918562 0.475138 -0.122922
N3    N     N_3   0.500250 0.143650 0.501060 -0.197160
N4    N     N_3   0.500250 0.856350 0.501060 -0.211470
H28   H     H_    0.307580 0.123145 0.485329 0.121022
H29   H     H_    0.304892 0.898972 0.497112 0.113616
C55   C     C_2   0.720068 0.146676 0.872452 0.927960
O13   O     O_2   0.794793 0.163892 0.838838 -0.550551
O14   O     O_R   0.698971 0.013968 0.890698 -0.784194
H30   H     H_    0.748220 0.940544 0.872216 0.344405
C56   C     C_3   0.777403 0.503088 0.732361 -0.774063
H31   H     H_    0.797198 0.408238 0.753400 0.266615
H32   H     H_    0.849146 0.511496 0.702806 0.225693
H33   H     H_    0.785452 0.594598 0.756241 0.240657
C57   C     C_3   0.090250 0.684857 0.576004 -0.852188
H34   H     H_    0.088624 0.798978 0.579482 0.235162
H35   H     H_    0.018140 0.645550 0.601842 0.249143
H36   H     H_    0.180174 0.644478 0.587901 0.227365
C58   C     C_3   0.112923 0.369975 0.590690 -0.862208
H37   H     H_    0.112372 0.260135 0.602221 0.242843
H38   H     H_    0.208181 0.410062 0.593028 0.208126
H39   H     H_    0.054566 0.426304 0.617857 0.254602
C59   C     C_2   0.579089 0.139403 0.588967 0.900013
O15   O     O_2   0.673864 0.198392 0.575596 -0.604498
O16   O     O_R   0.558312 0.118105 0.638758 -0.744315
H40   H     H_    0.626467 0.157740 0.659075 0.355461
C60   C     C_2   0.605423 0.865077 0.582046 0.912230
O17   O     O_2   0.711311 0.886585 0.567058 -0.665339
O18   O     O_R   0.589863 0.809224 0.628649 -0.722541
H41   H     H_    0.671641 0.788890 0.644582 0.339928
C61   C     C_2   0.394832 0.135298 0.418881 0.918866
O19   O     O_2   0.300035 0.189977 0.404479 -0.647405
O20   O     O_R   0.495641 0.115930 0.386504 -0.738522
H42   H     H_    0.478579 0.150414 0.352671 0.350058
C62   C     C_2   0.358157 0.848666 0.427390 0.918802
O21   O     O_2   0.256678 0.794243 0.423603 -0.641020
O22   O     O_R   0.439397 0.851634 0.386972 -0.733659
H43   H     H_    0.404128 0.804796 0.357595 0.346896
C63   C     C_3   0.354248 0.138988 0.575676 -0.810246
H44   H     H_    0.340364 0.248941 0.574667 0.264857
H45   H     H_    0.269878 0.105289 0.557642 0.181700
H46   H     H_    0.342207 0.109697 0.614415 0.254076
C64   C     C_3   0.371591 0.855963 0.581155 -0.754177
H47   H     H_    0.344280 0.754758 0.569887 0.262313
H48   H     H_    0.378007 0.860529 0.621145 0.272145
H49   H     H_    0.281952 0.903128 0.573654 0.171261
C65   C     C_2   0.307473 0.481756 0.756900 0.895457
O23   O     O_2   0.206433 0.511486 0.740467 -0.591693
O24   O     O_R   0.313718 0.437935 0.805026 -0.754552
H50   H     H_    0.229481 0.436908 0.822353 0.344923

loop_
_geom_bond_atom_site_label_1
_geom_bond_atom_site_label_2
_geom_bond_distance
_ccdc_geom_bond_type
H23   C48   1.113276 S    
C61   O19   1.223856 D    
C1    C46   1.502825 S    
C26   N2    1.367125 A    
C62   O22   1.398893 S    
C7    C8    1.393963 A    
C12   C15   1.408081 A    
H20   C45   1.112816 S    
O20   H42   1.013310 S    
C63   H46   1.110728 S    
C58   H37   1.110318 S    
Cu1   Cu2   2.758669 S    
C28   C29   1.403316 A    
Cu1   O7    1.937196 S    
N1    C11   1.436513 S    
C43   H16   1.112689 S    
C50   N4    1.500079 S    
C21   C22   1.386724 A    
C54   C62   1.531670 S    
C37   C40   1.388997 A    
C23   C24   1.410122 A    
O7    C4    1.317520 A    
C52   N4    1.539203 S    
C5    C13   1.404115 A    
C40   H13   1.078100 S    
C56   H31   1.109491 S    
C51   N3    1.543153 S    
C5    O9    1.349780 S    
C18   C21   1.413757 A    
Cu1   O5    1.974596 S    
C19   C20   1.415830 A    
C17   C29   1.393708 A    
Cu2   N3    2.072312 S    
C59   O15   1.220901 D    
O5    C3    1.315099 A    
C41   C57   1.544002 S    
C18   C20   1.422624 A    
C57   H34   1.109543 S    
C6    O11   1.349860 S    
C2    C16   1.459403 S    
C49   H26   1.105137 S    
O22   H43   1.014048 S    
C52   C64   1.593024 S    
C53   N3    1.519710 S    
C3    C47   1.486845 S    
C41   C43   1.542837 S    
C45   C48   1.545002 S    
C8    H8    1.083687 S    
C12   C34   1.421109 A    
C14   H3    1.083654 S    
C42   C46   1.574849 S    
C9    C10   1.394336 A    
C55   O13   1.223186 D    
O3    Cu1   1.937746 S    
O14   H30   1.013937 S    
C54   N4    1.522866 S    
N1    C6    1.369044 A    
C57   H35   1.108653 S    
C10   C11   1.402955 A    
C38   H11   1.078693 S    
C33   C36   1.415827 A    
C34   C35   1.419495 A    
C12   C13   1.407880 A    
O3    C2    1.314898 A    
C24   C25   1.416227 A    
C42   H15   1.115327 S    
C36   H7    1.076900 S    
C47   C48   1.542054 S    
C27   O10   1.350059 S    
C26   O12   1.348428 S    
C8    C16   1.401722 A    
C18   C33   1.421797 A    
C9    H1    1.079988 S    
O6    C3    1.317086 A    
C43   C47   1.554473 S    
C42   C58   1.545554 S    
O1    C1    1.319746 A    
C20   C24   1.421577 A    
C30   H12   1.084345 S    
C22   C23   1.395664 A    
C21   H6    1.076627 S    
C44   C47   1.553930 S    
C31   C32   1.413558 A    
O8    C4    1.314273 A    
Cu2   O8    1.937451 S    
C31   C56   1.506252 S    
C54   H29   1.104378 S    
C53   C54   1.604005 S    
C33   C34   1.420022 A    
C53   C61   1.526848 S    
N2    C32   1.436751 S    
C45   C46   1.563181 S    
C55   O14   1.397832 S    
C44   H17   1.112323 S    
C57   H36   1.101218 S    
Cu1   N4    2.072398 S    
C52   C60   1.565624 S    
C28   C65   1.491155 S    
C25   C26   1.415139 A    
C9    C16   1.399370 A    
C49   H24   1.099504 S    
C39   C55   1.484912 S    
C65   O24   1.398101 S    
C50   H25   1.101879 S    
N2    C27   1.364386 A    
C60   O18   1.401665 S    
C14   C36   1.389419 A    
H21   C45   1.112901 S    
C35   C40   1.415425 A    
O16   H40   1.014086 S    
C7    C11   1.402166 A    
C5    N1    1.369089 A    
C30   C31   1.396529 A    
C37   H10   1.083633 S    
C61   O20   1.398651 S    
C10   H2    1.082813 S    
O1    Cu1   1.976780 S    
C17   C30   1.393831 A    
O2    Cu2   1.974169 S    
C6    C15   1.403740 A    
C4    C17   1.451676 S    
O24   H50   1.013850 S    
C64   H49   1.090866 S    
C29   H4    1.082337 S    
O4    Cu2   1.937491 S    
C58   H38   1.103049 S    
C63   H44   1.074969 S    
C64   H48   1.109284 S    
C19   C35   1.420195 A    
C25   C39   1.417112 A    
C62   O21   1.223757 D    
C13   C14   1.396841 A    
C23   C27   1.399540 A    
C15   C37   1.396936 A    
C42   C44   1.551785 S    
C51   C59   1.557156 S    
O4    C2    1.320159 A    
C56   H32   1.111186 S    
C7    H9    1.082790 S    
C53   H28   1.102116 S    
C19   C38   1.410886 A    
C51   C63   1.588314 S    
C63   H45   1.100124 S    
O2    C1    1.320379 A    
C50   H27   1.105075 S    
C51   C52   1.652127 S    
C59   O16   1.401992 S    
C58   H39   1.106813 S    
C64   H47   1.073933 S    
C38   C39   1.397276 A    
C22   H5    1.083575 S    
C28   C32   1.420387 A    
C49   C50   1.581860 S    
Cu2   O6    1.977207 S    
C43   H18   1.114192 S    
C65   O23   1.223845 D    
C41   H14   1.113077 S    
C60   O17   1.221399 D    
C41   C46   1.576266 S    
C44   H19   1.112410 S    
C49   N3    1.502645 S    
H22   C48   1.113265 S    
O18   H41   1.014081 S    
C56   H33   1.110308 S    
