data_mof_unit_7539.cif
_audit_creation_date              2012-10-26T19:15:02-0400
_audit_creation_method            fapswitch 2.2
_symmetry_space_group_name_H-M    P1
_symmetry_Int_Tables_number       1
_space_group_crystal_system       triclinic
_cell_length_a                    10.870901
_cell_length_b                    10.915625
_cell_length_c                    9.579675
_cell_angle_alpha                 92.183583
_cell_angle_beta                  89.08026
_cell_angle_gamma                 93.35033
_cell_volume                      1133.87412066

loop_
_atom_site_label
_atom_site_type_symbol
_atom_type_description
_atom_site_fract_x
_atom_site_fract_y
_atom_site_fract_z
_atom_type_partial_charge
C1    C     C_R   0.502474 0.262949 0.497228 0.566261
C2    C     C_R   0.502741 0.947766 0.628524 0.041369
C3    C     C_3   0.595519 0.951936 0.743432 0.426343
C4    C     C_R   0.262897 0.507869 0.501734 0.564411
C5    C     C_3   0.638210 0.079441 0.699465 0.030638
C6    C     C_R   0.596060 0.554788 0.074468 0.148395
C7    C     C_R   0.417520 0.427429 0.074092 0.059614
C8    C     C_R   0.419457 0.423648 0.925569 0.233778
C9    C     C_R   0.597311 0.552757 0.927313 0.114333
C10   C     C_3   0.642429 0.682335 0.926159 -0.211858
C11   C     C_3   0.639595 0.686032 0.084510 -0.258875
C12   C     C_R   0.931883 0.492353 0.619892 0.020183
C13   C     C_R   0.497121 0.738161 0.502630 0.589836
C14   C     C_R   0.737725 0.503690 0.498680 0.582462
C15   C     C_R   0.059860 0.489753 0.625612 -0.007611
C16   C     C_R   0.129790 0.520631 0.505359 -0.000079
C17   C     C_R   0.069161 0.563173 0.388321 0.094871
C18   C     C_R   0.940759 0.548676 0.380368 -0.085841
C19   C     C_R   0.871593 0.508617 0.496271 0.022474
C20   C     C_3   0.922742 0.576771 0.743839 0.260487
C21   C     C_3   0.058098 0.566053 0.761083 0.001882
C22   C     C_R   0.523500 0.073214 0.615582 -0.016963
C23   C     C_R   0.501298 0.130248 0.493060 -0.002605
C24   C     C_R   0.461504 0.057784 0.376498 -0.123596
C25   C     C_R   0.456061 0.929424 0.382394 -0.130630
C26   C     C_R   0.485179 0.871962 0.506657 0.017511
Cu1   Cu    Cu3+1 0.499990 0.499980 0.640670 1.063686
Cu2   Cu    Cu3+1 0.500010 0.500020 0.359330 1.006308
F1    F     F_    0.686000 0.868929 0.723086 -0.597847
F2    F     F_    0.896787 0.694144 0.707191 -0.588385
H1    H     H_    0.720223 0.076381 0.628426 0.162726
H2    H     H_    0.438043 0.099657 0.280487 0.173547
H3    H     H_    0.432396 0.875556 0.288410 0.174455
H4    H     H_    0.351269 0.369058 0.129885 0.153454
H5    H     H_    0.736455 0.696120 0.882778 0.244607
H6    H     H_    0.571684 0.731976 0.876193 0.222473
H7    H     H_    0.732614 0.699163 0.131165 0.154136
H8    H     H_    0.569271 0.745834 0.130621 0.182106
H9    H     H_    0.895096 0.578512 0.288998 0.156537
H10   H     H_    0.861047 0.537743 0.826420 0.143238
H11   H     H_    0.113083 0.655088 0.756472 0.189668
I1    I     I_    0.160831 0.682200 0.243957 -0.272560
I2    I     I_    0.671840 0.224232 0.856036 -0.258219
I3    I     I_    0.309759 0.274848 0.832733 -0.201093
I4    I     I_    0.077908 0.467791 0.947237 -0.313340
I5    I     I_    0.493869 0.955020 0.941689 -0.319631
N1    N     N_R   0.500790 0.500930 0.147930 -0.247610
N2    N     N_R   0.500790 0.500890 0.852020 -0.235943
O1    O     O_R   0.500000 0.319640 0.618810 -0.462580
O2    O     O_R   0.500010 0.319680 0.381230 -0.512561
O3    O     O_R   0.319650 0.499970 0.618810 -0.487284
O4    O     O_R   0.319660 0.500010 0.381230 -0.484851
O5    O     O_R   0.499990 0.680320 0.618770 -0.473666
O6    O     O_R   0.500000 0.680360 0.381190 -0.516067
O7    O     O_R   0.680340 0.499990 0.618770 -0.478945
O8    O     O_R   0.680350 0.500030 0.381190 -0.513145

loop_
_geom_bond_atom_site_label_1
_geom_bond_atom_site_label_2
_ccdc_geom_bond_type
Cu1   N2    S    
C2    C22   A    
C11   H8    S    
C14   O8    A    
C23   C24   A    
Cu1   O5    S    
Cu2   N1    S    
C4    C16   S    
C10   H5    S    
C1    O2    A    
C9    C10   S    
C3    I5    S    
C21   I4    S    
C12   C15   A    
C18   H9    S    
C14   O7    A    
C12   C20   S    
C6    C9    A    
C24   H2    S    
C2    C3    S    
C5    I2    S    
C3    C5    S    
C7    C8    A    
C2    C26   A    
C20   F2    S    
C8    N2    A    
C20   C21   S    
Cu2   O4    S    
C3    F1    S    
C1    O1    A    
C4    O4    A    
C21   H11   S    
C12   C19   A    
Cu1   O3    S    
C1    C23   S    
C13   O5    A    
Cu2   O8    S    
C20   H10   S    
C7    H4    S    
Cu1   O7    S    
C13   C26   S    
C6    N1    A    
C4    O3    A    
C15   C16   A    
Cu1   O1    S    
C15   C21   S    
C24   C25   A    
C9    N2    A    
C17   C18   A    
C13   O6    A    
C10   C11   S    
C6    C11   S    
C11   H7    S    
Cu2   O6    S    
C17   I1    S    
C18   C19   A    
C10   H6    S    
C5    H1    S    
C25   C26   A    
C22   C23   A    
Cu2   O2    S    
C14   C19   S    
C5    C22   S    
C8    I3    S    
C25   H3    S    
C16   C17   A    
Cu1   Cu2   S    
C7    N1    A    
