data_mof_unit_61743.cif
_audit_creation_date              2012-12-10T16:41:27-0500
_audit_creation_method            fapswitch 2.2
_symmetry_space_group_name_H-M    P1
_symmetry_Int_Tables_number       1
_space_group_crystal_system       triclinic
_cell_length_a                    19.016069
_cell_length_b                    19.043413
_cell_length_c                    18.964701
_cell_angle_alpha                 109.883369
_cell_angle_beta                  109.450057
_cell_angle_gamma                 109.654639
_cell_volume                      5248.89255952

loop_
_atom_site_label
_atom_site_type_symbol
_atom_type_description
_atom_site_fract_x
_atom_site_fract_y
_atom_site_fract_z
_atom_type_partial_charge
C1    C     C_R   0.382642 0.384586 0.502215 0.821057
C2    C     C_2   0.318877 0.322705 0.508864 -0.281078
C3    C     C_2   0.492638 0.174902 0.247868 -0.143133
C4    C     C_R   0.498377 0.615947 0.618482 0.773294
C5    C     C_2   0.508471 0.184767 0.187079 -0.309049
C6    C     C_2   0.504718 0.248063 0.321053 -0.158926
C7    C     C_2   0.490050 0.309168 0.311275 -0.295549
C8    C     C_2   0.756525 0.736635 0.425100 -0.166684
C9    C     C_2   0.808192 0.817644 0.493447 -0.317301
C10   C     C_2   0.681904 0.671259 0.419451 0.003968
C11   C     C_2   0.686333 0.674193 0.493186 -0.397831
C12   C     C_R   0.493419 0.669576 0.756126 0.072407
C13   C     C_R   0.382102 0.995368 0.878174 0.851671
C14   C     C_R   0.502732 0.878632 0.881615 0.782897
C15   C     C_R   0.617954 0.998790 0.115957 0.849730
C16   C     C_R   0.617711 0.614056 0.496933 0.906477
C17   C     C_R   0.502135 0.115505 0.116783 0.848400
C18   C     C_R   0.879454 0.996918 0.382648 0.895865
C19   C     C_R   0.115499 0.117326 0.497877 0.838420
C20   C     C_R   0.119414 0.001865 0.617413 0.842329
C21   C     C_R   0.880473 0.882490 0.498064 0.898502
C22   C     C_2   0.250498 0.993685 0.675532 -0.147087
C23   C     C_R   0.496669 0.679316 0.686293 -0.080097
C24   C     C_2   0.189994 0.009058 0.686439 -0.305601
C25   C     C_2   0.323315 0.005268 0.747939 -0.150535
C26   C     C_2   0.313141 0.989166 0.808432 -0.311808
C27   C     C_2   0.737838 0.989408 0.316138 0.009432
C28   C     C_R   0.497396 0.379820 0.381090 0.887131
C29   C     C_2   0.807641 0.988393 0.313362 -0.387818
C30   C     C_2   0.669131 0.979280 0.240569 -0.177965
C31   C     C_2   0.685970 0.007305 0.188842 -0.338773
C32   C     C_R   0.480512 0.592767 0.758038 -0.227435
C33   C     C_R   0.482218 0.585878 0.829878 0.027037
C34   C     C_R   0.502733 0.753025 0.682733 -0.197042
C35   C     C_R   0.497436 0.656753 0.900747 -0.175430
C36   C     C_R   0.507121 0.731747 0.898613 -0.198860
C37   C     C_R   0.501665 0.738018 0.825056 0.103073
C38   C     C_2   0.608853 0.600079 0.331142 0.877632
C39   C     C_2   0.721556 0.991144 0.388007 0.877876
C40   C     C_2   0.468746 0.505051 0.831351 0.845124
C41   C     C_R   0.506811 0.818205 0.748159 -0.198311
C42   C     C_R   0.505526 0.811224 0.818752 -0.090824
C43   C     C_2   0.182865 0.257684 0.507429 -0.137747
C44   C     C_2   0.177344 0.181227 0.491275 -0.300404
C45   C     C_2   0.243339 0.318394 0.495158 -0.155807
Cu1   Cu    Cu3+1 0.561020 0.499620 0.560640 0.987438
Cu2   Cu    Cu3+1 0.438980 0.500380 0.439360 0.985164
Cu3   Cu    Cu3+1 0.561070 0.057880 0.996780 0.967930
Cu4   Cu    Cu3+1 0.439050 0.935860 0.996810 0.965102
Cu5   Cu    Cu3+1 0.000000 0.061410 0.561410 0.989806
Cu6   Cu    Cu3+1 0.000000 0.938590 0.438590 0.973039
H1    H     H_    0.505168 0.760525 0.629290 0.156180
H2    H     H_    0.249305 0.976829 0.614199 0.164952
H3    H     H_    0.467632 0.537171 0.703258 0.179296
H4    H     H_    0.196322 0.035102 0.750263 0.155623
H5    H     H_    0.384144 0.022249 0.748525 0.164679
H6    H     H_    0.249797 0.963024 0.802524 0.155894
H7    H     H_    0.809704 0.973883 0.253781 0.151280
H8    H     H_    0.603552 0.950629 0.229159 0.187205
H9    H     H_    0.752015 0.042976 0.203667 0.158462
H10   H     H_    0.501180 0.654182 0.957982 0.191443
H11   H     H_    0.520131 0.784844 0.955821 0.163839
H12   H     H_    0.338858 0.285169 0.534153 0.168986
H13   H     H_    0.509682 0.873941 0.742969 0.157129
H14   H     H_    0.139421 0.274018 0.525201 0.165301
H15   H     H_    0.213918 0.160836 0.464295 0.152180
H16   H     H_    0.227670 0.362926 0.479425 0.163369
H17   H     H_    0.516905 0.473556 0.252021 0.329319
H18   H     H_    0.732849 0.956144 0.478636 0.332320
H19   H     H_    0.461187 0.441312 0.897020 0.343524
H20   H     H_    0.475592 0.114017 0.246987 0.170593
H21   H     H_    0.534629 0.248129 0.193161 0.162340
H22   H     H_    0.521270 0.248953 0.382100 0.169107
H23   H     H_    0.464381 0.303293 0.247807 0.157776
H24   H     H_    0.767138 0.718385 0.370327 0.186092
H25   H     H_    0.793840 0.839149 0.545021 0.151671
H26   H     H_    0.746529 0.719982 0.554726 0.149343
O1    O     O_R   0.462500 0.410660 0.551220 -0.580657
O2    O     O_R   0.910970 0.948690 0.359670 -0.587585
O3    O     O_R   0.089030 0.140870 0.551850 -0.578942
O4    O     O_R   0.359440 0.411300 0.448810 -0.586171
O5    O     O_R   0.089030 0.037160 0.448130 -0.592013
O6    O     O_R   0.089030 0.051310 0.640330 -0.586928
O7    O     O_R   0.089030 0.947590 0.536610 -0.582159
O8    O     O_R   0.910970 0.962840 0.551870 -0.573700
O9    O     O_R   0.910970 0.859130 0.448150 -0.587054
O10   O     O_R   0.551530 0.589280 0.640810 -0.586374
O11   O     O_R   0.448470 0.589920 0.538390 -0.587782
O12   O     O_R   0.359500 0.945890 0.908340 -0.582195
O13   O     O_R   0.640560 0.588700 0.551190 -0.584815
O14   O     O_R   0.537500 0.589340 0.448780 -0.557226
O15   O     O_R   0.551530 0.410080 0.461610 -0.582635
O16   O     O_R   0.448470 0.410720 0.359190 -0.569776
O17   O     O_R   0.462540 0.048930 0.908310 -0.579201
O18   O     O_2   0.590011 0.614543 0.271411 -0.580689
O19   O     O_R   0.564266 0.516054 0.314979 -0.767442
O20   O     O_2   0.680523 0.024542 0.406162 -0.597329
O21   O     O_R   0.749138 0.951408 0.432148 -0.756237
O22   O     O_2   0.455170 0.442887 0.769310 -0.597514
O23   O     O_R   0.551580 0.958790 0.907180 -0.586237
O24   O     O_R   0.471368 0.499611 0.903821 -0.758489
O25   O     O_R   0.448540 0.855750 0.907210 -0.587401
O26   O     O_R   0.640630 0.047850 0.085250 -0.584368
O27   O     O_R   0.537580 0.944800 0.085280 -0.591676
O28   O     O_R   0.551590 0.137990 0.086380 -0.582276
O29   O     O_R   0.448540 0.034950 0.086410 -0.581026
O30   O     O_R   0.910970 0.052410 0.463390 -0.561708

loop_
_geom_bond_atom_site_label_1
_geom_bond_atom_site_label_2
_ccdc_geom_bond_type
C16   O13   A    
C27   C29   D    
C41   C42   A    
C44   H15   S    
C35   C36   A    
C25   H5    S    
C3    C6    S    
Cu4   O27   S    
H19   O24   S    
C4    O10   A    
C2    H12   S    
C24   H4    S    
C12   C23   A    
H17   O19   S    
Cu3   O17   S    
C36   C37   A    
C5    H21   S    
C30   C31   D    
C14   O25   A    
C5    C17   S    
C1    O4    A    
C37   C42   A    
C1    C2    S    
C12   C37   A    
C18   O30   A    
C11   H26   S    
Cu5   O8    S    
C40   O24   S    
Cu1   Cu2   S    
C20   C24   S    
C27   C39   S    
C18   O2    A    
C22   C25   S    
C38   O18   D    
C45   H16   S    
C9    H25   S    
C15   O27   A    
C22   H2    S    
C19   O5    A    
C14   C42   S    
H18   O21   S    
C12   C32   A    
C27   C30   S    
C1    O1    A    
C34   C41   A    
C40   O22   D    
C36   H11   S    
Cu6   O9    S    
C32   H3    S    
Cu5   O6    S    
C7    H23   S    
C2    C45   D    
Cu3   O23   S    
C21   O8    A    
C33   C40   S    
C28   O15   A    
Cu4   O25   S    
Cu1   O1    S    
C4    C23   S    
C8    C9    D    
C39   O21   S    
C25   C26   D    
Cu3   O26   S    
C8    H24   S    
C7    C28   S    
C28   O16   A    
C31   H9    S    
C3    H20   S    
C43   C44   D    
C17   O28   A    
C11   C16   S    
Cu3   O28   S    
C43   H14   S    
C23   C34   A    
C30   H8    S    
Cu5   Cu6   S    
Cu2   O16   S    
C35   H10   S    
C18   C29   S    
C14   O23   A    
C43   C45   S    
Cu6   O5    S    
C6    C7    D    
Cu1   O13   S    
Cu3   Cu4   S    
C20   O7    A    
Cu5   O30   S    
C22   C24   D    
C13   C26   S    
C19   C44   S    
C6    H22   S    
Cu1   O10   S    
C21   O9    A    
C13   O12   A    
Cu2   O14   S    
Cu4   O12   S    
C3    C5    D    
Cu5   O3    S    
C15   C31   S    
Cu4   O29   S    
C4    O11   A    
C34   H1    S    
C13   O17   A    
C10   C38   S    
C32   C33   A    
C17   O29   A    
Cu2   O11   S    
C9    C21   S    
C33   C35   A    
Cu2   O4    S    
C19   O3    A    
C26   H6    S    
Cu6   O2    S    
C39   O20   D    
C10   C11   D    
Cu1   O15   S    
C29   H7    S    
C16   O14   A    
C8    C10   S    
C20   O6    A    
C38   O19   S    
C41   H13   S    
C15   O26   A    
Cu6   O7    S    
