data_mof_unit_58969.cif
_audit_creation_date              2012-12-11T21:06:09-0500
_audit_creation_method            fapswitch 2.2
_symmetry_space_group_name_H-M    P1
_symmetry_Int_Tables_number       1
_space_group_crystal_system       triclinic
_cell_length_a                    36.458836
_cell_length_b                    40.344592
_cell_length_c                    8.590895
_cell_angle_alpha                 88.996861
_cell_angle_beta                  91.538769
_cell_angle_gamma                 90.332325
_cell_volume                      12629.8198088

loop_
_atom_site_label
_atom_site_type_symbol
_atom_type_description
_atom_site_fract_x
_atom_site_fract_y
_atom_site_fract_z
_atom_type_partial_charge
Ba1   Ba    Ba6+2 0.000060 0.523150 0.844950 1.659882
Ba2   Ba    Ba6+2 0.000060 0.476850 0.344950 1.662097
Ba3   Ba    Ba6+2 0.500060 0.023150 0.844950 1.661281
Ba4   Ba    Ba6+2 0.500060 0.976850 0.344950 1.663691
C1    C     C_3   0.055963 0.693988 0.677694 0.345843
C2    C     C_3   0.051193 0.300218 0.203198 0.361336
C3    C     C_3   0.556338 0.193970 0.676878 0.345994
C4    C     C_3   0.552175 0.800451 0.201593 0.360391
C5    C     C_R   0.855196 0.325922 0.910124 0.617506
C6    C     C_R   0.817076 0.657453 0.285379 0.661485
C7    C     C_R   0.355378 0.825608 0.907701 0.616156
C8    C     C_R   0.317553 0.158112 0.285394 0.658951
C9    C     C_2   0.879300 0.388977 0.713051 0.045260
C10   C     C_2   0.885483 0.618339 0.218455 0.039361
C11   C     C_2   0.379469 0.888987 0.712434 0.046607
C12   C     C_2   0.385186 0.117906 0.215477 0.052329
C13   C     C_3   0.906996 0.415491 0.666553 0.024677
C14   C     C_3   0.913528 0.592644 0.179359 -0.001238
C15   C     C_3   0.407304 0.915435 0.666427 0.037416
C16   C     C_3   0.413168 0.092108 0.176503 0.017123
C17   C     C_1   0.910298 0.431370 0.948226 -0.016067
C18   C     C_1   0.911102 0.570523 0.449123 -0.016453
C19   C     C_1   0.410862 0.930933 0.948660 -0.024817
C20   C     C_1   0.411824 0.071044 0.449148 -0.020790
C21   C     C_2   0.887918 0.406220 0.987428 -0.008897
C22   C     C_2   0.889039 0.595889 0.485878 0.042127
C23   C     C_2   0.388519 0.905699 0.987227 -0.013428
C24   C     C_2   0.390069 0.096743 0.484831 0.035283
C25   C     C_2   0.869762 0.384921 0.864070 0.246391
C26   C     C_2   0.868032 0.616401 0.358835 0.191894
C27   C     C_2   0.370080 0.884695 0.863476 0.244681
C28   C     C_2   0.368420 0.116707 0.357550 0.191393
C29   C     C_R   0.793684 0.307433 0.980914 -0.119695
C30   C     C_R   0.787951 0.688705 0.485080 -0.120511
C31   C     C_R   0.293947 0.807171 0.980249 -0.119859
C32   C     C_R   0.288673 0.189573 0.485073 -0.120948
C33   C     C_R   0.782839 0.341012 0.980058 -0.017734
C34   C     C_R   0.795760 0.661816 0.587539 -0.034059
C35   C     C_R   0.283238 0.840776 0.980834 -0.020730
C36   C     C_R   0.296784 0.162878 0.588020 -0.034240
C37   C     C_R   0.746663 0.348656 0.016629 -0.066561
C38   C     C_R   0.780765 0.661754 0.735685 -0.028798
C39   C     C_R   0.247168 0.848474 0.018844 -0.062563
C40   C     C_R   0.281866 0.162848 0.736331 -0.027542
C41   C     C_R   0.829925 0.299606 0.940908 -0.081545
C42   C     C_R   0.799863 0.686913 0.331945 -0.084530
C43   C     C_R   0.330073 0.799308 0.938734 -0.080996
C44   C     C_R   0.300444 0.187654 0.331841 -0.085621
C45   C     C_3   0.981790 0.660972 0.170149 0.594660
C46   C     C_3   0.989088 0.350448 0.659775 0.618441
C47   C     C_3   0.481782 0.160902 0.169387 0.594175
C48   C     C_3   0.489428 0.850298 0.658965 0.617858
C49   C     C_2   0.921310 0.435748 0.800365 -0.132855
C50   C     C_2   0.923633 0.567955 0.304524 -0.129146
C51   C     C_2   0.422197 0.935148 0.800986 -0.135678
C52   C     C_2   0.424350 0.068373 0.304287 -0.131871
C53   C     C_2   0.061284 0.580557 0.321847 -0.109140
C54   C     C_2   0.064455 0.419411 0.841200 -0.119894
C55   C     C_2   0.561643 0.080568 0.322222 -0.109477
C56   C     C_2   0.565022 0.919459 0.842059 -0.123109
C57   C     C_R   0.205264 0.763897 0.083694 -0.000899
C58   C     C_R   0.228878 0.243090 0.728797 -0.004106
C59   C     C_R   0.705000 0.264029 0.083025 -0.001010
C60   C     C_R   0.728493 0.742439 0.729282 -0.004168
C61   C     C_R   0.255227 0.723460 0.090404 0.033193
C62   C     C_R   0.232099 0.267724 0.465233 0.017566
C63   C     C_R   0.755134 0.223759 0.092259 0.033263
C64   C     C_R   0.731873 0.767160 0.465977 0.017794
C65   C     C_R   0.217568 0.730960 0.107747 0.051438
C66   C     C_R   0.218468 0.268118 0.618464 0.059133
C67   C     C_R   0.717414 0.231158 0.108289 0.051371
C68   C     C_R   0.718239 0.767568 0.619180 0.059252
C69   C     C_R   0.167251 0.769917 0.093758 -0.138335
C70   C     C_R   0.214599 0.244961 0.879850 -0.132150
C71   C     C_R   0.666942 0.269939 0.092043 -0.138695
C72   C     C_R   0.714263 0.744358 0.880370 -0.132241
C73   C     C_R   0.142079 0.744668 0.130331 0.168329
C74   C     C_R   0.191313 0.270710 0.922202 0.159928
C75   C     C_R   0.641824 0.244644 0.128600 0.168316
C76   C     C_R   0.691140 0.770219 0.922951 0.159762
C77   C     C_R   0.154273 0.711812 0.159099 -0.028728
C78   C     C_R   0.182720 0.296561 0.814857 -0.026940
C79   C     C_R   0.654121 0.211854 0.158318 -0.028779
C80   C     C_R   0.682637 0.796134 0.815731 -0.026599
C81   C     C_R   0.192258 0.705343 0.151998 -0.119755
C82   C     C_R   0.193515 0.293556 0.660812 -0.108011
C83   C     C_R   0.692151 0.205504 0.152415 -0.119902
C84   C     C_R   0.693441 0.793126 0.661698 -0.107950
C85   C     C_R   0.205199 0.673312 0.191218 -0.038512
C86   C     C_R   0.178368 0.315479 0.548252 -0.061511
C87   C     C_R   0.705185 0.173556 0.192701 -0.038305
C88   C     C_R   0.678459 0.815175 0.549279 -0.061718
C89   C     C_3   0.981827 0.699499 0.135968 0.210658
C90   C     C_3   0.990286 0.312070 0.693439 0.186052
C91   C     C_3   0.481772 0.199406 0.134989 0.211615
C92   C     C_3   0.490806 0.811892 0.691748 0.186516
C93   C     C_R   0.180205 0.647891 0.232478 0.591321
C94   C     C_R   0.151202 0.338479 0.590415 0.602859
C95   C     C_R   0.680247 0.148087 0.233679 0.591307
C96   C     C_R   0.651456 0.838327 0.591483 0.602168
C97   C     C_R   0.129798 0.685193 0.195015 0.594136
C98   C     C_R   0.164038 0.325706 0.857659 0.588981
C99   C     C_R   0.629712 0.185183 0.194085 0.593853
C100  C     C_R   0.664091 0.825362 0.858678 0.588960
C101  C     C_2   0.101787 0.626810 0.411946 -0.108663
C102  C     C_2   0.105002 0.373132 0.932327 -0.207992
C103  C     C_2   0.602074 0.126737 0.412392 -0.107372
C104  C     C_2   0.605439 0.873209 0.933496 -0.206724
C105  C     C_3   0.077980 0.598028 0.462196 -0.076495
C106  C     C_3   0.080088 0.400498 0.979176 0.015690
C107  C     C_3   0.578368 0.097908 0.462729 -0.075778
C108  C     C_3   0.580553 0.900605 0.980242 0.018077
C109  C     C_1   0.082184 0.575921 0.199382 0.082143
C110  C     C_1   0.084678 0.424939 0.714965 0.005927
C111  C     C_1   0.582381 0.075934 0.199385 0.082723
C112  C     C_1   0.585069 0.924940 0.715353 0.004317
C113  C     C_2   0.107981 0.598773 0.159172 0.136527
C114  C     C_2   0.112512 0.403738 0.683005 0.171677
C115  C     C_2   0.608123 0.098816 0.159129 0.137048
C116  C     C_2   0.612889 0.903706 0.683638 0.173020
C117  C     C_2   0.117028 0.627076 0.269943 0.259530
C118  C     C_2   0.120934 0.373354 0.790392 0.188291
C119  C     C_2   0.617150 0.127106 0.270048 0.259735
C120  C     C_2   0.621319 0.873323 0.791393 0.188013
C121  C     C_R   0.731038 0.289899 0.051977 0.042210
C122  C     C_R   0.750945 0.715495 0.682931 0.023941
C123  C     C_R   0.231362 0.789723 0.052718 0.042253
C124  C     C_R   0.251535 0.216280 0.682721 0.024302
C125  C     C_R   0.768105 0.281778 0.021122 0.026774
C126  C     C_R   0.765710 0.715764 0.531246 0.035358
C127  C     C_R   0.268338 0.781534 0.020522 0.027278
C128  C     C_R   0.266273 0.216544 0.530978 0.035583
C129  C     C_R   0.779540 0.248191 0.028755 -0.027566
C130  C     C_R   0.758142 0.742553 0.424847 -0.023916
C131  C     C_R   0.279644 0.747904 0.026878 -0.027544
C132  C     C_R   0.258502 0.243217 0.424247 -0.023922
C133  C     C_3   0.856842 0.480021 0.131240 0.254215
C134  C     C_3   0.856652 0.518608 0.625267 0.271561
C135  C     C_3   0.362320 0.992660 0.994500 0.219692
C136  C     C_3   0.360160 0.011063 0.504837 0.200629
C137  C     C_R   0.721346 0.323785 0.051231 -0.102551
C138  C     C_R   0.758735 0.687746 0.782008 -0.095114
C139  C     C_R   0.221813 0.823634 0.053400 -0.102538
C140  C     C_R   0.259562 0.188662 0.782181 -0.098163
C141  C     C_R   0.839440 0.265773 0.926812 0.226053
C142  C     C_R   0.794792 0.714406 0.230018 0.220407
C143  C     C_R   0.339433 0.765464 0.923486 0.226086
C144  C     C_R   0.295179 0.215058 0.229493 0.220654
C145  C     C_R   0.267529 0.692242 0.146011 -0.114461
C146  C     C_R   0.216639 0.290609 0.355724 -0.109015
C147  C     C_R   0.767503 0.192660 0.149092 -0.114599
C148  C     C_R   0.716556 0.790152 0.356607 -0.109144
C149  C     C_R   0.243093 0.667548 0.192589 -0.062760
C150  C     C_R   0.189761 0.313214 0.394939 -0.031236
C151  C     C_R   0.743107 0.167927 0.195449 -0.062839
C152  C     C_R   0.689840 0.812891 0.395963 -0.031571
C153  C     C_R   0.814316 0.240365 0.965991 0.090613
C154  C     C_R   0.777183 0.743138 0.281128 0.087789
C155  C     C_R   0.314293 0.740070 0.962889 0.090619
C156  C     C_R   0.277487 0.243779 0.280384 0.088090
C157  C     C_3   0.829307 0.506413 0.177258 -0.009399
C158  C     C_3   0.828846 0.490755 0.653245 -0.016623
C159  C     C_3   0.329494 0.976756 0.074824 -0.040795
C160  C     C_3   0.331332 0.029720 0.594572 -0.035563
C161  C     C_3   0.120109 0.485090 0.034032 0.335919
C162  C     C_3   0.116211 0.517834 0.540136 0.457568
C163  C     C_3   0.620178 0.985121 0.034187 0.336340
C164  C     C_3   0.616244 0.017860 0.540203 0.457515
C165  C     C_3   0.161920 0.477925 0.018062 0.138693
C166  C     C_3   0.156472 0.529331 0.517012 0.076201
C167  C     C_3   0.662006 0.978034 0.018152 0.138452
C168  C     C_3   0.656522 0.029302 0.516810 0.076709
C169  C     C_3   0.027634 0.666311 0.723001 0.364996
C170  C     C_3   0.036624 0.328383 0.094372 0.407193
C171  C     C_3   0.527938 0.166327 0.721901 0.364400
C172  C     C_3   0.537033 0.828470 0.093343 0.408785
C173  C     C_R   0.808247 0.366355 0.941619 0.584901
C174  C     C_R   0.818308 0.635414 0.538600 0.576325
C175  C     C_R   0.308669 0.866105 0.942404 0.592201
C176  C     C_R   0.319475 0.136556 0.539542 0.578270
H1    H     H_    0.034334 0.654885 0.838660 0.097270
H2    H     H_    0.015080 0.317554 0.019203 -0.015828
H3    H     H_    0.534508 0.154944 0.837772 0.097253
H4    H     H_    0.515478 0.817419 0.018984 -0.014817
H5    H     H_    0.841836 0.522358 0.268436 0.085533
H6    H     H_    0.837013 0.476708 0.760895 0.071811
H7    H     H_    0.323873 0.990238 0.183206 0.076233
H8    H     H_    0.321181 0.013600 0.690266 0.069691
H9    H     H_    0.805256 0.493694 0.228505 0.081486
H10   H     H_    0.801525 0.502119 0.669573 0.060986
H11   H     H_    0.336380 0.950950 0.109237 0.104451
H12   H     H_    0.344232 0.051669 0.649295 0.120071
H13   H     H_    0.106517 0.487597 0.917132 0.050545
H14   H     H_    0.100938 0.518115 0.426216 -0.000084
H15   H     H_    0.606545 0.987543 0.917330 0.050332
H16   H     H_    0.600884 0.018244 0.426491 -0.000526
H17   H     H_    0.176342 0.483110 0.130070 0.107289
H18   H     H_    0.168144 0.537708 0.630683 0.098449
H19   H     H_    0.676450 0.983370 0.129946 0.107503
H20   H     H_    0.668250 0.037676 0.630387 0.098488
H21   H     H_    0.000569 0.677809 0.741841 0.032635
H22   H     H_    0.057237 0.335366 0.011927 -0.127366
H23   H     H_    0.500858 0.177844 0.740128 0.032256
H24   H     H_    0.557328 0.835661 0.009846 -0.129890
H25   H     H_    0.988507 0.713261 0.243984 0.038829
H26   H     H_    0.975941 0.306152 0.802881 0.078176
H27   H     H_    0.488818 0.213228 0.242431 0.039724
H28   H     H_    0.476458 0.805786 0.800966 0.077941
H29   H     H_    0.737619 0.374179 0.018523 0.115125
H30   H     H_    0.785990 0.641417 0.817215 0.147583
H31   H     H_    0.238233 0.874019 0.021886 0.119262
H32   H     H_    0.287278 0.142625 0.818263 0.152645
H33   H     H_    0.109932 0.645464 0.494833 0.072304
H34   H     H_    0.110427 0.354316 0.019925 0.164288
H35   H     H_    0.610303 0.145338 0.495405 0.071696
H36   H     H_    0.610737 0.854390 0.021209 0.164560
H37   H     H_    0.155840 0.794130 0.070202 0.064431
H38   H     H_    0.220699 0.226509 0.968398 0.063705
H39   H     H_    0.655458 0.294093 0.067721 0.064365
H40   H     H_    0.720267 0.725844 0.968751 0.063941
H41   H     H_    0.694443 0.332059 0.081336 0.064119
H42   H     H_    0.747980 0.684953 0.896901 0.089805
H43   H     H_    0.195004 0.831943 0.084663 0.064381
H44   H     H_    0.248821 0.185842 0.897082 0.089928
H45   H     H_    0.296288 0.686802 0.160257 0.074195
H46   H     H_    0.223385 0.290676 0.235575 0.118901
H47   H     H_    0.796272 0.187350 0.164382 0.074107
H48   H     H_    0.723280 0.790211 0.236429 0.118651
H49   H     H_    0.254153 0.643791 0.230509 0.118099
H50   H     H_    0.178468 0.329540 0.304682 0.176245
H51   H     H_    0.754215 0.144250 0.234285 0.118016
H52   H     H_    0.678662 0.829301 0.305793 0.176390
H53   H     H_    0.845503 0.465905 0.030991 0.007522
H54   H     H_    0.846953 0.534292 0.525331 0.006980
H55   H     H_    0.354577 0.018060 0.955021 0.054056
H56   H     H_    0.348184 0.986872 0.469814 0.050202
H57   H     H_    0.860087 0.462791 0.232760 0.026382
H58   H     H_    0.858225 0.533979 0.730964 0.007682
H59   H     H_    0.369038 0.979368 0.887532 -0.004840
H60   H     H_    0.366972 0.023994 0.394435 -0.007005
N1    N     N_R   0.843993 0.358657 0.907693 -0.411623
N2    N     N_R   0.835001 0.636891 0.394616 -0.414974
N3    N     N_R   0.344307 0.858382 0.906820 -0.412745
N4    N     N_R   0.335716 0.137623 0.394436 -0.416925
N5    N     N_R   0.142843 0.653702 0.230385 -0.430776
N6    N     N_R   0.145711 0.345800 0.746089 -0.420566
N7    N     N_R   0.642866 0.153777 0.230436 -0.431003
N8    N     N_R   0.645953 0.845631 0.747154 -0.420523
O1    O     O_2   0.072110 0.546320 0.923350 -0.451586
O2    O     O_2   0.072110 0.453680 0.423350 -0.478187
O3    O     O_2   0.572110 0.046320 0.923350 -0.451993
O4    O     O_2   0.572110 0.953680 0.423350 -0.477870
O5    O     O_3   0.890849 0.504669 0.595176 -0.628159
O6    O     O_3   0.890545 0.494919 0.093315 -0.618355
O7    O     O_3   0.390906 0.004291 0.602487 -0.631952
O8    O     O_3   0.391798 0.996018 0.102265 -0.624275
O9    O     O_3   0.968953 0.645612 0.030785 -0.605297
O10   O     O_3   0.954785 0.357960 0.587538 -0.613697
O11   O     O_3   0.468746 0.145583 0.030321 -0.605793
O12   O     O_3   0.455106 0.857757 0.586763 -0.614151
O13   O     O_3   0.958050 0.483830 0.034350 -0.469589
O14   O     O_3   0.958050 0.516170 0.534350 -0.473707
O15   O     O_3   0.458050 0.983830 0.034350 -0.471412
O16   O     O_3   0.458050 0.016170 0.534350 -0.477063
O17   O     O_2   0.798494 0.395302 0.937763 -0.621401
O18   O     O_2   0.821158 0.610566 0.620688 -0.635794
O19   O     O_2   0.299020 0.895071 0.940037 -0.604622
O20   O     O_2   0.322839 0.112092 0.623557 -0.623113
O21   O     O_2   0.096784 0.689860 0.192850 -0.575966
O22   O     O_2   0.166282 0.333862 0.993497 -0.592919
O23   O     O_2   0.596669 0.189723 0.190903 -0.575506
O24   O     O_2   0.666304 0.833419 0.994647 -0.592897
O25   O     O_2   0.887307 0.319777 0.886606 -0.596819
O26   O     O_2   0.811844 0.648369 0.152008 -0.569250
O27   O     O_2   0.387398 0.819408 0.882625 -0.597057
O28   O     O_2   0.311892 0.148874 0.152565 -0.565070
O29   O     O_2   0.191751 0.620414 0.268446 -0.602498
O30   O     O_2   0.132265 0.351422 0.487606 -0.567237
O31   O     O_2   0.691855 0.120676 0.270475 -0.602552
O32   O     O_2   0.632657 0.851415 0.488647 -0.567707
O33   O     O_3   0.042000 0.516250 0.155330 -0.482094
O34   O     O_3   0.042000 0.483750 0.655330 -0.508498
O35   O     O_3   0.542000 0.016250 0.155330 -0.481450
O36   O     O_3   0.542000 0.983750 0.655330 -0.507917
O37   O     O_3   0.012540 0.574900 0.645500 -0.449159
O38   O     O_3   0.012540 0.425100 0.145500 -0.439605
O39   O     O_3   0.512540 0.074900 0.645500 -0.448961
O40   O     O_3   0.512540 0.925100 0.145500 -0.440072
O41   O     O_2   0.066053 0.606581 0.790511 -0.508380
O42   O     O_2   0.067375 0.397082 0.302023 -0.443617
O43   O     O_2   0.566150 0.106570 0.790774 -0.508458
O44   O     O_2   0.567348 0.897101 0.302599 -0.444151
O45   O     O_3   0.117380 0.513982 0.120053 -0.683670
O46   O     O_3   0.117505 0.486011 0.604221 -0.647713
O47   O     O_3   0.617415 0.014044 0.119878 -0.683798
O48   O     O_3   0.617515 0.986000 0.603759 -0.647646
O49   O     O_3   0.021375 0.643155 0.603258 -0.632713
O50   O     O_3   0.021955 0.355405 0.174505 -0.616736
O51   O     O_3   0.521785 0.143132 0.602251 -0.632549
O52   O     O_3   0.522239 0.855371 0.173933 -0.616812
O53   O     O_2   0.928110 0.546600 0.766510 -0.447083
O54   O     O_2   0.928110 0.453400 0.266510 -0.439839
O55   O     O_2   0.428110 0.046600 0.766510 -0.439331
O56   O     O_2   0.428110 0.953400 0.266510 -0.426172
O57   O     O_3   0.987780 0.574950 0.044470 -0.427058
O58   O     O_3   0.987780 0.425050 0.544470 -0.479388
O59   O     O_3   0.487780 0.074950 0.044470 -0.426743
O60   O     O_3   0.487780 0.925050 0.544470 -0.478111
O61   O     O_2   0.936142 0.601230 0.884301 -0.436067
O62   O     O_2   0.934279 0.397863 0.378392 -0.440621
O63   O     O_2   0.436587 0.101144 0.882981 -0.434548
O64   O     O_2   0.434628 0.897859 0.378345 -0.440750
P1    P     P_3+3 0.075650 0.535480 0.098240 0.982662
P2    P     P_3+3 0.075650 0.464520 0.598240 0.958395
P3    P     P_3+3 0.575650 0.035480 0.098240 0.983288
P4    P     P_3+3 0.575650 0.964520 0.598240 0.958241
P5    P     P_3+3 0.924520 0.535770 0.591580 0.993689
P6    P     P_3+3 0.924520 0.464230 0.091580 1.018053
P7    P     P_3+3 0.424520 0.035770 0.591580 0.993442
P8    P     P_3+3 0.424520 0.964230 0.091580 1.022899
P9    P     P_3+3 0.952587 0.604331 0.049219 0.984325
P10   P     P_3+3 0.946974 0.400464 0.550309 1.004770
P11   P     P_3+3 0.452525 0.104265 0.048562 0.985330
P12   P     P_3+3 0.447181 0.900269 0.550213 1.007121
P13   P     P_3+3 0.046239 0.393155 0.144932 0.998150
P14   P     P_3+3 0.046098 0.606044 0.629087 0.944651
P15   P     P_3+3 0.546390 0.893224 0.145071 0.997871
P16   P     P_3+3 0.546299 0.105936 0.629130 0.945025
N9    N     N_2   0.816301 0.526193 0.044702 -0.423100
H61   H     H_    0.808385 0.513225 0.947221 0.188250
C177  C     C_3   0.834921 0.557339 0.016485 -0.197321
H62   H     H_    0.821959 0.570268 0.914165 0.134439
H63   H     H_    0.864314 0.553113 0.993441 0.129638
H64   H     H_    0.832362 0.573450 0.118831 0.135031
N10   N     N_2   0.827062 0.468279 0.523430 -0.432455
H65   H     H_    0.851663 0.456802 0.503733 0.220250
C178  C     C_3   0.796848 0.444948 0.526017 -0.269993
H66   H     H_    0.796916 0.429858 0.419132 0.107448
H67   H     H_    0.770314 0.458297 0.528551 0.131241
H68   H     H_    0.799621 0.428130 0.629479 0.158351
N11   N     N_2   0.297198 0.976307 0.972494 -0.409947
H69   H     H_    0.301188 0.966333 0.864528 0.221671
C179  C     C_3   0.274617 0.005705 0.970675 -0.230224
H70   H     H_    0.250031 0.001752 0.894055 0.116545
H71   H     H_    0.290081 0.027486 0.925965 0.104858
H72   H     H_    0.265245 0.010789 0.089819 0.117910
N12   N     N_2   0.301168 0.040590 0.492994 -0.403049
H73   H     H_    0.308844 0.054345 0.396727 0.212262
C180  C     C_3   0.272515 0.016434 0.462441 -0.226655
H74   H     H_    0.250090 0.028194 0.391509 0.114794
H75   H     H_    0.260925 0.007256 0.573542 0.119932
H76   H     H_    0.283379 0.995240 0.397622 0.088554
N13   N     N_3   0.103620 0.458012 0.121194 -0.530792
H77   H     H_    0.076166 0.463481 0.138721 0.216627
H78   H     H_    0.117252 0.455981 0.229319 0.183270
N14   N     N_3   0.098852 0.538739 0.651918 -0.465873
H79   H     H_    0.071199 0.540842 0.619955 0.181196
H80   H     H_    0.111158 0.562096 0.657885 0.136187
N15   N     N_3   0.603769 0.958082 0.121821 -0.530573
H81   H     H_    0.576275 0.963480 0.138882 0.216269
H82   H     H_    0.617364 0.956199 0.230076 0.183359
N16   N     N_3   0.599024 0.038693 0.652630 -0.466496
H83   H     H_    0.571344 0.040830 0.621199 0.181456
H84   H     H_    0.611370 0.062029 0.658930 0.136085
N17   N     N_3   0.178641 0.499452 0.901544 -0.475601
H85   H     H_    0.168014 0.492983 0.792804 0.214156
H86   H     H_    0.171617 0.524047 0.921346 0.167328
N18   N     N_3   0.179307 0.501961 0.466115 -0.490523
H87   H     H_    0.204340 0.511284 0.427277 0.183181
H88   H     H_    0.165936 0.490189 0.373576 0.178639
N19   N     N_3   0.678624 0.999484 0.901066 -0.475807
H89   H     H_    0.667949 0.992905 0.792559 0.214159
H90   H     H_    0.671558 0.024086 0.920464 0.167258
N20   N     N_3   0.679305 0.001894 0.465896 -0.490414
H91   H     H_    0.704329 0.011181 0.426793 0.182893
H92   H     H_    0.665879 0.990100 0.373555 0.178563
N21   N     N_3   0.169198 0.443330 0.981576 -0.483089
H93   H     H_    0.166406 0.428622 0.082088 0.188013
H94   H     H_    0.149412 0.435454 0.900891 0.162383
N22   N     N_3   0.157956 0.557389 0.407556 -0.537643
H95   H     H_    0.183730 0.568525 0.422057 0.232129
H96   H     H_    0.156642 0.548639 0.293982 0.211436
N23   N     N_3   0.669388 0.943419 0.982428 -0.483255
H97   H     H_    0.666570 0.928790 0.083175 0.187776
H98   H     H_    0.649678 0.935441 0.901651 0.162497
N24   N     N_3   0.658027 0.057344 0.407278 -0.537460
H99   H     H_    0.683823 0.068447 0.421628 0.232172
H100  H     H_    0.656682 0.048581 0.293738 0.211221
N25   N     N_3   0.061598 0.694069 0.508715 -0.474938
H101  H     H_    0.084606 0.708435 0.482025 0.197181
H102  H     H_    0.039250 0.705320 0.450925 0.172215
N26   N     N_3   0.067831 0.274460 0.109294 -0.503243
H103  H     H_    0.089188 0.285202 0.046840 0.171708
H104  H     H_    0.048859 0.265853 0.025901 0.165693
N27   N     N_3   0.562170 0.193962 0.508033 -0.474788
H105  H     H_    0.585313 0.208185 0.481733 0.196047
H106  H     H_    0.539976 0.205327 0.449653 0.173102
N28   N     N_3   0.569175 0.775013 0.107009 -0.503229
H107  H     H_    0.590212 0.786145 0.044023 0.172545
H108  H     H_    0.550257 0.766147 0.024028 0.165632
N29   N     N_2   0.042004 0.726285 0.723732 -0.413963
H109  H     H_    0.015345 0.730748 0.685881 0.172244
C181  C     C_3   0.064913 0.755452 0.702513 -0.227148
H110  H     H_    0.050976 0.777272 0.750604 0.100610
H111  H     H_    0.069363 0.760442 0.576926 0.095062
H112  H     H_    0.091598 0.752815 0.765990 0.121149
N30   N     N_2   0.022165 0.285313 0.296523 -0.407400
H113  H     H_    0.031797 0.266838 0.371217 0.202477
C182  C     C_3   0.987481 0.276289 0.220860 -0.188171
H114  H     H_    0.971090 0.260613 0.300837 0.106207
H115  H     H_    0.991736 0.261851 0.114284 0.084107
H116  H     H_    0.971218 0.298844 0.192246 0.137560
N31   N     N_2   0.542364 0.226306 0.722300 -0.414241
H117  H     H_    0.515690 0.230714 0.684505 0.172301
C183  C     C_3   0.565224 0.255470 0.700042 -0.227716
H118  H     H_    0.551340 0.277321 0.748112 0.100961
H119  H     H_    0.569495 0.260367 0.574247 0.095388
H120  H     H_    0.591999 0.252902 0.762853 0.120546
N32   N     N_2   0.523491 0.785070 0.295234 -0.407731
H121  H     H_    0.533511 0.766716 0.369685 0.202518
C184  C     C_3   0.488905 0.775575 0.220088 -0.189571
H122  H     H_    0.472874 0.759622 0.300232 0.106131
H123  H     H_    0.493319 0.761254 0.113296 0.084640
H124  H     H_    0.472212 0.797901 0.191964 0.136479
N33   N     N_3   0.880504 0.399407 0.147743 -0.468069
H125  H     H_    0.852554 0.403155 0.163986 0.170295
H126  H     H_    0.885826 0.374319 0.170246 0.196318
N34   N     N_3   0.896038 0.610745 0.633735 -0.446682
H127  H     H_    0.887769 0.635492 0.632463 0.172383
H128  H     H_    0.881043 0.597610 0.716609 0.225057
N35   N     N_3   0.383789 0.896751 0.147352 -0.459411
H129  H     H_    0.355809 0.897099 0.170079 0.171415
H130  H     H_    0.392501 0.872237 0.162735 0.197615
N36   N     N_3   0.397772 0.112307 0.630396 -0.446770
H131  H     H_    0.389464 0.137044 0.627016 0.170950
H132  H     H_    0.382935 0.099686 0.715335 0.231474
N37   N     N_3   0.104128 0.753123 0.143050 -0.451083
H133  H     H_    0.102067 0.770719 0.230271 0.158093
H134  H     H_    0.095111 0.764154 0.038087 0.170355
N38   N     N_3   0.172609 0.268373 0.067091 -0.464540
H135  H     H_    0.182469 0.248425 0.135065 0.163066
H136  H     H_    0.145316 0.262521 0.039880 0.179924
N39   N     N_3   0.603820 0.252989 0.140399 -0.450719
H137  H     H_    0.601591 0.270653 0.227224 0.158024
H138  H     H_    0.594874 0.263906 0.035078 0.170911
N40   N     N_3   0.672424 0.767883 0.067793 -0.464042
H139  H     H_    0.682562 0.748149 0.136436 0.163210
H140  H     H_    0.645253 0.761604 0.040537 0.180807
N41   N     N_3   0.861393 0.369548 0.594897 -0.487563
H141  H     H_    0.881193 0.355117 0.542959 0.206519
H142  H     H_    0.850664 0.385825 0.509581 0.161182
N42   N     N_3   0.877218 0.642879 0.100698 -0.448609
H143  H     H_    0.870307 0.630718 0.997361 0.199867
H144  H     H_    0.900696 0.656869 0.081066 0.176339
N43   N     N_3   0.361298 0.869870 0.593842 -0.483460
H145  H     H_    0.380984 0.855665 0.539849 0.204093
H146  H     H_    0.350251 0.886388 0.510272 0.166590
N44   N     N_3   0.376733 0.142183 0.096692 -0.446315
H147  H     H_    0.369640 0.129796 0.994170 0.205704
H148  H     H_    0.400132 0.156218 0.075770 0.172409
N45   N     N_2   0.873871 0.256900 0.864634 -0.376728
H149  H     H_    0.885810 0.236238 0.916515 0.196414
C185  C     C_3   0.874075 0.256046 0.696265 -0.160275
H150  H     H_    0.855067 0.236499 0.652357 0.103421
H151  H     H_    0.902177 0.250422 0.658131 0.084997
H152  H     H_    0.865771 0.280419 0.644867 0.124286
N46   N     N_2   0.811246 0.714734 0.081259 -0.387017
H153  H     H_    0.796832 0.727888 0.996082 0.197692
C186  C     C_3   0.849831 0.723145 0.084848 -0.170683
H154  H     H_    0.853715 0.749919 0.108876 0.113251
H155  H     H_    0.861683 0.717669 0.970471 0.110274
H156  H     H_    0.864566 0.708395 0.176627 0.102815
N47   N     N_2   0.373723 0.756574 0.860048 -0.376842
H157  H     H_    0.385678 0.735829 0.911067 0.196551
C187  C     C_3   0.373655 0.755914 0.691608 -0.159190
H158  H     H_    0.354594 0.736402 0.647766 0.103182
H159  H     H_    0.401697 0.750367 0.652495 0.085273
H160  H     H_    0.365251 0.780333 0.641042 0.124795
N48   N     N_2   0.311493 0.215324 0.080443 -0.388088
H161  H     H_    0.297156 0.228651 0.995651 0.197970
C188  C     C_3   0.350154 0.223411 0.083488 -0.170750
H162  H     H_    0.354344 0.250093 0.108831 0.113403
H163  H     H_    0.361794 0.218094 0.968522 0.110209
H164  H     H_    0.364833 0.208324 0.174140 0.102414
N49   N     N_3   0.090761 0.686948 0.761878 -0.472055
H165  H     H_    0.111667 0.702376 0.721279 0.162619
H166  H     H_    0.098866 0.663084 0.734530 0.151679
N50   N     N_3   0.079756 0.313814 0.307177 -0.445420
H167  H     H_    0.067672 0.329576 0.385840 0.234272
H168  H     H_    0.091650 0.294449 0.373184 0.183983
N51   N     N_3   0.591034 0.186938 0.761857 -0.471865
H169  H     H_    0.612002 0.202347 0.721698 0.162589
H170  H     H_    0.599157 0.163063 0.734787 0.151736
N52   N     N_3   0.580582 0.814373 0.305308 -0.444886
H171  H     H_    0.568268 0.829820 0.384690 0.234272
H172  H     H_    0.592917 0.795117 0.370562 0.185274
N53   N     N_2   0.133459 0.591974 0.039435 -0.403737
H173  H     H_    0.136604 0.568196 0.001775 0.206858
C189  C     C_3   0.142277 0.617605 0.926488 -0.154421
H174  H     H_    0.135698 0.608953 0.807088 0.094456
H175  H     H_    0.172126 0.623001 0.933552 0.102393
H176  H     H_    0.126840 0.640593 0.946252 0.123714
N54   N     N_2   0.138314 0.412432 0.565688 -0.377008
H177  H     H_    0.129625 0.426628 0.471753 0.234114
C190  C     C_3   0.176053 0.418449 0.614107 -0.213886
H178  H     H_    0.193977 0.415239 0.513108 0.113472
H179  H     H_    0.185322 0.400957 0.707918 0.124863
H180  H     H_    0.179271 0.444207 0.654761 0.146734
N55   N     N_2   0.633634 0.092004 0.039551 -0.404227
H181  H     H_    0.636627 0.068238 0.001486 0.206937
C191  C     C_3   0.642512 0.117647 0.926766 -0.155247
H182  H     H_    0.635975 0.109018 0.807283 0.094186
H183  H     H_    0.672360 0.123044 0.934160 0.102647
H184  H     H_    0.627065 0.140629 0.946433 0.123994
N56   N     N_2   0.638648 0.912388 0.566167 -0.376499
H185  H     H_    0.629917 0.926722 0.472735 0.233615
C192  C     C_3   0.676395 0.918384 0.614516 -0.212732
H186  H     H_    0.694287 0.915312 0.513309 0.113521
H187  H     H_    0.685706 0.900786 0.707821 0.124360
H188  H     H_    0.679604 0.944095 0.655818 0.145929
N57   N     N_3   0.822487 0.207678 0.912672 -0.516666
H189  H     H_    0.838320 0.194874 0.996806 0.165813
H190  H     H_    0.798736 0.194619 0.880304 0.187919
N58   N     N_3   0.786014 0.773602 0.200679 -0.515552
H191  H     H_    0.769043 0.776640 0.101588 0.174799
H192  H     H_    0.785288 0.793981 0.273926 0.186192
N59   N     N_3   0.322286 0.707420 0.908652 -0.516591
H193  H     H_    0.338178 0.694494 0.992168 0.165988
H194  H     H_    0.298454 0.694457 0.876509 0.187950
N60   N     N_3   0.286188 0.274232 0.199572 -0.515255
H195  H     H_    0.269159 0.277185 0.100608 0.174763
H196  H     H_    0.285391 0.294637 0.272637 0.186283
N61   N     N_3   0.940243 0.464698 0.749661 -0.421109
H197  H     H_    0.927831 0.485060 0.797091 0.232607
H198  H     H_    0.967329 0.463373 0.787536 0.193390
N62   N     N_3   0.937638 0.537742 0.246312 -0.426531
H199  H     H_    0.924035 0.517729 0.296480 0.217889
H200  H     H_    0.965573 0.536444 0.272667 0.216638
N63   N     N_3   0.442382 0.963505 0.750910 -0.421843
H201  H     H_    0.430230 0.984411 0.793834 0.231757
H202  H     H_    0.468919 0.961870 0.794677 0.192324
N64   N     N_3   0.440014 0.038619 0.248143 -0.423888
H203  H     H_    0.427037 0.018113 0.296190 0.223290
H204  H     H_    0.467713 0.038021 0.278145 0.214235
N65   N     N_3   0.024621 0.567860 0.323451 -0.462228
H205  H     H_    0.024032 0.547994 0.402887 0.189583
H206  H     H_    0.006921 0.586329 0.358332 0.131734
N66   N     N_3   0.031567 0.436862 0.868047 -0.487702
H207  H     H_    0.037632 0.460836 0.905027 0.195094
H208  H     H_    0.015140 0.436052 0.769803 0.206172
N67   N     N_3   0.525047 0.067933 0.324196 -0.464558
H209  H     H_    0.524563 0.048131 0.404027 0.188177
H210  H     H_    0.507375 0.086462 0.358739 0.132611
N68   N     N_3   0.531763 0.936319 0.867271 -0.490421
H211  H     H_    0.537309 0.960413 0.903921 0.195157
H212  H     H_    0.516067 0.935195 0.767236 0.206654
N69   N     N_3   0.019964 0.650962 0.201123 -0.488676
H213  H     H_    0.026436 0.651887 0.319670 0.197128
H214  H     H_    0.023858 0.626797 0.164639 0.175078
N70   N     N_3   0.019018 0.358954 0.554686 -0.496723
H215  H     H_    0.032089 0.381010 0.585998 0.177355
H216  H     H_    0.008437 0.361970 0.441648 0.249475
N71   N     N_3   0.519977 0.150868 0.199634 -0.488560
H217  H     H_    0.526632 0.151969 0.317990 0.197360
H218  H     H_    0.523759 0.126630 0.163944 0.175034
N72   N     N_3   0.519353 0.859036 0.554229 -0.496621
H219  H     H_    0.532262 0.881143 0.585948 0.176844
H220  H     H_    0.508800 0.862066 0.441156 0.249294
N73   N     N_2   0.958947 0.651691 0.303438 -0.458580
H221  H     H_    0.964101 0.628061 0.345263 0.150571
C193  C     C_3   0.954031 0.674135 0.431502 -0.273742
H222  H     H_    0.980217 0.685899 0.467554 0.114514
H223  H     H_    0.943530 0.660235 0.533702 0.147084
H224  H     H_    0.933556 0.693399 0.400084 0.095775
N74   N     N_2   0.993548 0.368317 0.805068 -0.475358
H225  H     H_    0.019459 0.367347 0.853478 0.148712
C194  C     C_3   0.964371 0.366363 0.916383 -0.211725
H226  H     H_    0.965206 0.343449 0.987691 0.119621
H227  H     H_    0.937617 0.366170 0.856432 0.126803
H228  H     H_    0.966348 0.387755 0.994936 0.125870
N75   N     N_2   0.459060 0.151690 0.303106 -0.459615
H229  H     H_    0.464010 0.127974 0.344214 0.150327
C195  C     C_3   0.454805 0.174112 0.431796 -0.274582
H230  H     H_    0.481094 0.186027 0.465061 0.113642
H231  H     H_    0.445146 0.160190 0.535365 0.149917
H232  H     H_    0.434027 0.193258 0.402552 0.096035
N76   N     N_2   0.493747 0.868037 0.804662 -0.475059
H233  H     H_    0.519687 0.867343 0.852870 0.149933
C196  C     C_3   0.464572 0.865798 0.915898 -0.214120
H234  H     H_    0.465387 0.842725 0.986055 0.117947
H235  H     H_    0.437826 0.865730 0.855819 0.127592
H236  H     H_    0.466548 0.886997 0.995614 0.128042
N77   N     N_3   0.009865 0.708524 0.024032 -0.480607
H237  H     H_    0.006988 0.733739 0.996076 0.190947
H238  H     H_    0.035666 0.706555 0.078765 0.247610
N78   N     N_3   0.028006 0.299600 0.712073 -0.524970
H239  H     H_    0.044300 0.316379 0.773949 0.152123
H240  H     H_    0.039680 0.297828 0.602952 0.206204
N79   N     N_3   0.509420 0.208372 0.021227 -0.481992
H241  H     H_    0.506552 0.233604 0.993631 0.190554
H242  H     H_    0.535410 0.206269 0.074178 0.247204
N80   N     N_3   0.528581 0.799562 0.710339 -0.524774
H243  H     H_    0.544745 0.816318 0.772929 0.152407
H244  H     H_    0.540326 0.798008 0.601270 0.206557
N81   N     N_3   0.946319 0.711352 0.074295 -0.505745
H245  H     H_    0.939593 0.699639 0.969649 0.205586
H246  H     H_    0.926023 0.705994 0.153573 0.154588
N82   N     N_3   0.971143 0.293864 0.569328 -0.462469
H247  H     H_    0.974483 0.268492 0.592338 0.168831
H248  H     H_    0.942957 0.298086 0.576089 0.199915
N83   N     N_3   0.446057 0.211205 0.075472 -0.505646
H249  H     H_    0.439312 0.199838 0.969973 0.205467
H250  H     H_    0.425972 0.205169 0.154753 0.155651
N84   N     N_3   0.471803 0.793743 0.567067 -0.462262
H251  H     H_    0.475252 0.768365 0.589592 0.169219
H252  H     H_    0.443592 0.797838 0.573748 0.200235

loop_
_geom_bond_atom_site_label_1
_geom_bond_atom_site_label_2
_ccdc_geom_bond_type
C147  H47   S    
N79   H241  S    
N74   C194  S    
C83   C87   A    
C29   C41   A    
N33   H125  S    
C98   N6    Am   
C31   C43   A    
Ba4   P4    S    
C178  H66   S    
N37   H133  S    
O57   P9    S    
C3    N27   S    
O48   P4    S    
C195  H230  S    
C181  H111  S    
C195  H231  S    
C94   N6    Am   
C93   N5    Am   
N64   H203  S    
N25   H102  S    
C196  H236  S    
C156  N60   S    
C29   C125  A    
N83   H249  S    
C136  H60   S    
Ba4   O35   S    
C58   C66   A    
C169  H21   S    
N60   H195  S    
C144  C156  A    
C145  C149  A    
N16   H84   S    
C176  O20   D    
Ba2   O14   S    
C36   C176  A    
C7    C43   A    
C53   C105  S    
C148  C152  A    
C189  H175  S    
C169  O49   S    
C171  O51   S    
Ba2   P2    S    
Ba3   P7    S    
C116  N56   S    
C39   H31   S    
C157  N9    S    
C8    C44   A    
C118  N6    S    
C45   N69   S    
N29   C181  S    
N31   C183  S    
C18   P5    S    
C163  O47   S    
C46   N74   S    
N51   H170  S    
C126  C130  A    
N68   H212  S    
C104  C120  D    
Ba1   O37   S    
N18   H87   S    
N13   H78   S    
N36   H131  S    
Ba2   O33   S    
C43   C143  A    
N54   C190  S    
C21   C25   S    
C131  C155  A    
C23   C27   S    
N71   H217  S    
C24   C28   S    
C55   N67   S    
N78   H239  S    
Ba4   O4    S    
N26   H104  S    
C82   C86   A    
N55   C191  S    
C4    N28   S    
C2    C170  S    
N69   H213  S    
C135  H59   S    
C99   N7    Am   
N24   H100  S    
C173  O17   D    
C187  H159  S    
O3    P3    D    
C141  C153  A    
C74   C78   A    
N80   H244  S    
C71   H39   S    
C12   C16   S    
C194  H228  S    
C193  H223  S    
C57   C123  A    
C123  C139  A    
Ba2   O54   S    
C124  C140  A    
C105  P14   S    
C61   C131  A    
O41   P14   D    
C125  C129  A    
N42   H144  S    
N70   H215  S    
N46   C186  S    
C59   C67   A    
O43   P16   D    
C186  H155  S    
N61   H198  S    
C135  H55   S    
N25   H101  S    
N23   H97   S    
C158  H10   S    
C178  H68   S    
C171  H3    S    
C186  H156  S    
C167  N23   S    
C172  H4    S    
N40   H140  S    
C54   C106  S    
C163  H15   S    
C80   C84   A    
C160  H8    S    
C195  H232  S    
O63   P11   D    
C19   C51   D    
C115  C119  S    
C20   C52   D    
C168  N20   S    
C109  P1    S    
N66   H208  S    
C135  O8    S    
C134  C158  S    
C9    N41   S    
N17   H85   S    
C133  C157  S    
C112  P4    S    
C62   C66   A    
Ba1   O57   S    
N56   H185  S    
C115  N55   S    
O53   P5    D    
N50   H167  S    
O13   P6    S    
C133  H57   S    
N75   H229  S    
C123  C127  A    
O15   P8    S    
N39   H138  S    
C154  N58   S    
N10   H65   S    
C121  C125  A    
N48   C188  S    
C103  H35   S    
C180  H76   S    
C85   C93   A    
N15   H81   S    
O4    P4    D    
C61   C145  A    
C69   C73   A    
O5    P5    S    
C45   C89   S    
C182  H114  S    
C71   C75   A    
C175  N3    Am   
C113  N53   S    
N22   H95   S    
C99   O23   D    
C173  N1    Am   
C177  H63   S    
O51   P16   S    
C7    N3    Am   
N32   H121  S    
C90   H26   S    
C16   C52   S    
C5    N1    Am   
C170  H2    S    
N29   H109  S    
N35   H130  S    
C77   C97   A    
N45   H149  S    
C87   C151  A    
C159  N11   S    
N81   H246  S    
C79   C99   A    
O54   P6    D    
C41   C141  A    
C5    O25   D    
Ba3   O3    S    
C32   C128  A    
Ba1   O1    S    
O2    P2    D    
N16   H83   S    
C48   O12   S    
O52   P15   S    
C114  C118  S    
C21   N33   S    
C93   O29   D    
N20   H91   S    
C45   O9    S    
N46   H153  S    
C121  C137  A    
C8    N4    Am   
C4    N32   S    
C50   N62   S    
C183  H119  S    
C90   N78   S    
C30   C42   A    
C134  O5    S    
C91   N79   S    
Ba4   P8    S    
O60   P12   S    
Ba4   O16   S    
C191  H184  S    
C28   N4    S    
C155  N59   S    
N9    C177  S    
C149  H49   S    
C186  H154  S    
C174  O18   D    
N77   H238  S    
C142  N46   S    
O40   P15   S    
C3    N51   S    
N11   C179  S    
C102  H34   S    
N52   H172  S    
C190  H179  S    
N44   H147  S    
C69   H37   S    
N15   H82   S    
C134  H58   S    
C166  N18   S    
C46   C90   S    
C53   C109  D    
C46   O10   S    
N41   H142  S    
C24   N36   S    
O50   P13   S    
Ba2   P6    S    
Ba1   P5    S    
N53   C189  S    
Ba3   P3    S    
C120  N8    S    
N84   H252  S    
N49   H165  S    
N57   H190  S    
C152  H52   S    
C16   P11   S    
C55   C107  S    
N35   H129  S    
C128  C132  A    
N82   H247  S    
C70   H38   S    
N14   H80   S    
C188  H162  S    
C78   C98   A    
C192  H187  S    
C136  O7    S    
C165  N17   S    
C182  H116  S    
C49   N61   S    
O58   P10   S    
C75   N39   S    
Ba4   O60   S    
C109  C113  D    
Ba3   O36   S    
C130  C154  A    
N58   H192  S    
C22   C26   S    
C184  H124  S    
C111  C115  D    
C179  H71   S    
C70   C74   A    
C80   C100  A    
N28   H108  S    
C56   C112  D    
C95   N7    Am   
Ba3   Ba4   S    
C25   N1    S    
O38   P13   S    
C65   C81   A    
N34   H127  S    
C165  H17   S    
N10   C178  S    
C17   C21   D    
N72   H219  S    
C193  H224  S    
C2    N26   S    
C103  C107  S    
O11   P11   S    
C72   C76   A    
N42   H143  S    
C35   C175  A    
N54   H177  S    
C4    C172  S    
C11   C27   D    
C142  C154  A    
C158  N10   S    
C136  C160  S    
C33   C173  A    
C147  C151  A    
C9    C13   S    
C54   N66   S    
C135  C159  S    
C31   C127  A    
C22   N34   S    
O35   P3    S    
N64   H204  S    
C59   C71   A    
N28   H107  S    
C12   N44   S    
C117  N5    S    
N65   H206  S    
C32   C44   A    
C129  C153  A    
N30   C182  S    
C33   C37   A    
C177  H64   S    
N21   H94   S    
O16   P7    S    
C168  N24   S    
Ba1   O14   S    
C132  C156  A    
C36   C40   A    
C164  N16   S    
Ba3   O16   S    
C26   N2    S    
C137  H41   S    
N63   H201  S    
C54   C110  D    
C159  H11   S    
C47   N75   S    
C87   C95   A    
C160  H12   S    
N51   H169  S    
O45   P1    S    
C191  H182  S    
C79   C83   A    
C5    C41   A    
N31   H117  S    
C146  H46   S    
C11   N43   S    
C172  H24   S    
C39   C139  A    
N48   H161  S    
C110  P2    S    
C103  C119  D    
C76   C80   A    
C97   N5    Am   
N18   H88   S    
N13   H77   S    
C15   P12   S    
N67   H210  S    
C161  O45   S    
C11   C15   S    
C187  H158  S    
C180  H74   S    
O14   P5    S    
C27   N3    S    
N32   C184  S    
N78   H240  S    
C62   C146  A    
C20   P7    S    
Ba1   P1    S    
N55   H181  S    
C1    N49   S    
N73   C193  S    
C122  C126  A    
N19   H89   S    
C170  H22   S    
C188  H164  S    
C45   N73   S    
N38   H135  S    
Ba4   O56   S    
O6    P6    S    
C10   N42   S    
C157  H5    S    
N52   H171  S    
C76   N40   S    
O33   P1    S    
C138  H42   S    
C194  H227  S    
C47   C91   S    
C185  H152  S    
C4    N52   S    
C107  P16   S    
C86   C150  A    
C92   H28   S    
C153  N57   S    
C112  C116  D    
C133  O6    S    
C38   H30   S    
O44   P15   D    
C192  H186  S    
C161  N13   S    
C169  H1    S    
N43   H145  S    
N61   H197  S    
C161  C165  S    
N33   H126  S    
C1    C169  S    
C6    O26   D    
C178  H67   S    
C48   N72   S    
C74   N38   S    
N37   H134  S    
C91   H27   S    
O36   P4    S    
C20   C24   D    
C181  H112  S    
C18   C50   D    
C94   O30   D    
N12   H73   S    
O12   P12   S    
C81   C85   A    
C57   C69   A    
C78   C82   A    
C122  C138  A    
C29   C33   A    
C185  H150  S    
C31   C35   A    
C177  H62   S    
C100  O24   D    
C64   C148  A    
C14   P9    S    
C108  P15   S    
C73   N37   S    
C73   C77   A    
C189  H176  S    
N50   H168  S    
C190  H178  S    
C106  P13   S    
O42   P13   D    
C104  H36   S    
C67   C83   A    
C60   C122  A    
N79   H242  S    
C47   N71   S    
C134  H54   S    
C12   C28   D    
N68   H211  S    
C13   C49   S    
C6    C42   A    
N22   H96   S    
C89   H25   S    
C15   C51   S    
C162  O46   S    
C47   O11   S    
N47   C187  S    
C19   P8    S    
N43   H146  S    
C42   C142  A    
Ba2   O58   S    
C172  O52   S    
N62   H200  S    
N26   H103  S    
N56   C192  S    
C196  H235  S    
C192  H188  S    
C163  C167  S    
N27   H105  S    
O62   P10   D    
C170  O50   S    
C102  C118  D    
N45   C185  S    
C51   N63   S    
C64   C130  A    
N24   H99   S    
C171  H23   S    
O64   P12   D    
C187  H160  S    
O55   P7    D    
N80   H243  S    
Ba3   O39   S    
C101  C105  S    
C72   H40   S    
C61   C65   A    
Ba1   Ba2   S    
C63   C67   A    
C184  H122  S    
N20   H92   S    
C75   C79   A    
C104  C108  S    
C164  C168  S    
C46   N70   S    
C18   C22   D    
C136  H56   S    
C58   C70   A    
N59   H193  S    
C174  N2    Am   
C175  O19   D    
C58   C124  A    
C179  H70   S    
C191  H183  S    
C163  N15   S    
N40   H139  S    
C34   C174  A    
C92   N84   S    
N63   H202  S    
C145  H45   S    
N9    H61   S    
C10   C14   S    
C181  H110  S    
C6    N2    Am   
N76   H233  S    
C48   N76   S    
C56   N68   S    
C8    O28   D    
N77   H237  S    
N11   H69   S    
C17   P6    S    
Ba4   O40   S    
N44   H148  S    
C96   N8    Am   
C2    N30   S    
N66   H207  S    
C63   C129  A    
C34   C38   A    
C127  C131  A    
N17   H86   S    
C139  H43   S    
Ba1   O34   S    
C91   N83   S    
O56   P8    D    
Ba2   O13   S    
C189  H174  S    
C53   N65   S    
C159  H7    S    
N53   H173  S    
N75   C195  S    
C113  C117  S    
C90   N82   S    
C167  H19   S    
O46   P2    S    
C143  N47   S    
C84   C88   A    
N38   H136  S    
N19   H90   S    
C3    C171  S    
C38   C138  A    
O9    P9    S    
N30   H113  S    
C168  H20   S    
C3    N31   S    
C19   C23   D    
C182  H115  S    
O61   P9    D    
N57   H189  S    
N60   H196  S    
C64   C68   A    
Ba2   O38   S    
C37   H29   S    
C166  N22   S    
C180  H75   S    
C148  H48   S    
C150  H50   S    
Ba1   O53   S    
O37   P14   S    
C95   O31   D    
C10   C26   D    
C98   O22   D    
C124  C128  A    
Ba3   O55   S    
C68   C84   A    
N34   H128  S    
N69   H214  S    
N71   H218  S    
C176  N4    Am   
C89   N77   S    
C96   O32   D    
N72   H220  S    
C164  O48   S    
C101  H33   S    
C63   C147  A    
C32   C36   A    
N62   H199  S    
C157  H9    S    
C165  N21   S    
N67   H209  S    
C158  H6    S    
C35   C39   A    
C167  N19   S    
N47   H157  S    
C196  H234  S    
N74   H225  S    
N82   H248  S    
C40   H32   S    
N23   H98   S    
C37   C137  A    
C56   C108  S    
C2    N50   S    
N12   C180  S    
Ba2   O2    S    
O34   P2    S    
C85   C149  A    
C183  H118  S    
C97   O21   D    
C40   C140  A    
O47   P3    S    
C141  N45   S    
N65   H205  S    
C60   C72   A    
C183  H120  S    
C101  C117  D    
C88   C152  A    
O59   P11   S    
C1    N25   S    
N76   C196  S    
C7    O27   D    
N21   H93   S    
C110  C114  D    
C92   N80   S    
C55   C111  D    
C144  N48   S    
N41   H141  S    
Ba3   O15   S    
C164  H16   S    
C62   C132  A    
C59   C121  A    
C162  H14   S    
C9    C25   D    
C133  H53   S    
C66   C82   A    
C166  H18   S    
C111  P3    S    
C88   C96   A    
C162  N14   S    
C143  C155  A    
C102  C106  S    
C57   C65   A    
C13   P10   S    
O39   P16   S    
C190  H180  S    
C89   N81   S    
N83   H250  S    
C30   C34   A    
O10   P10   S    
C161  H13   S    
N36   H132  S    
C52   N64   S    
N81   H245  S    
N70   H216  S    
C119  N7    S    
C100  N8    Am   
N39   H137  S    
N49   H166  S    
C193  H222  S    
C17   C49   D    
N27   H106  S    
N73   H221  S    
Ba4   O15   S    
C44   C144  A    
C160  N12   S    
C151  H51   S    
N14   H79   S    
C188  H163  S    
C162  C166  S    
Ba1   O13   S    
C48   C92   S    
C60   C68   A    
N84   H251  S    
C77   C81   A    
C140  H44   S    
C1    N29   S    
C14   C50   S    
O1    P1    D    
N59   H194  S    
N58   H191  S    
C30   C126  A    
C184  H123  S    
C194  H226  S    
C146  C150  A    
C179  H72   S    
C23   N35   S    
C185  H151  S    
Ba3   O59   S    
C114  N54   S    
C86   C94   A    
O7    P7    S    
C116  C120  S    
O49   P14   S    
O8    P8    S    
