data_mof_unit_55474.cif
_audit_creation_date              2012-12-10T17:24:37-0500
_audit_creation_method            fapswitch 2.2
_symmetry_space_group_name_H-M    P1
_symmetry_Int_Tables_number       1
_space_group_crystal_system       triclinic
_cell_length_a                    18.41777
_cell_length_b                    18.543109
_cell_length_c                    19.060052
_cell_angle_alpha                 109.401533
_cell_angle_beta                  110.136918
_cell_angle_gamma                 108.087199
_cell_volume                      5057.86778865

loop_
_atom_site_label
_atom_site_type_symbol
_atom_type_description
_atom_site_fract_x
_atom_site_fract_y
_atom_site_fract_z
_atom_type_partial_charge
C1    C     C_R   0.621154 0.619535 0.501417 0.854153
C2    C     C_3   0.173172 0.438769 0.227690 -0.216192
C3    C     C_3   0.236799 0.516852 0.319675 -0.143395
C4    C     C_3   0.312714 0.502633 0.314363 -0.007497
C5    C     C_R   0.577486 0.735805 0.456688 -0.212788
C6    C     C_R   0.558777 0.801443 0.454660 -0.252929
C7    C     C_R   0.623458 0.878379 0.472604 0.167481
C8    C     C_R   0.705566 0.884954 0.481160 0.496988
C9    C     C_R   0.727616 0.817336 0.487006 -0.078024
C10   C     C_R   0.663222 0.745961 0.480634 0.026834
C11   C     C_R   0.808946 0.815479 0.498264 -0.207617
C12   C     C_R   0.379365 0.500897 0.380126 0.851298
C13   C     C_R   0.823729 0.746032 0.504604 0.066318
C14   C     C_R   0.764487 0.685535 0.512938 0.064297
C15   C     C_R   0.684528 0.685221 0.498849 -0.147801
C16   C     C_R   0.895959 0.734231 0.502179 -0.157166
C17   C     C_R   0.913892 0.672169 0.518739 -0.149644
C18   C     C_R   0.860179 0.619251 0.536798 -0.137337
C19   C     C_R   0.785710 0.625003 0.533306 -0.162277
C20   C     C_R   0.786480 0.653081 0.737221 -0.258518
C21   C     C_R   0.860053 0.732910 0.803399 0.173486
C22   C     C_R   0.915797 0.737063 0.878233 0.511431
C23   C     C_R   0.379943 0.379928 0.499823 0.858692
C24   C     C_R   0.898094 0.660638 0.883768 -0.341209
C25   C     C_R   0.828834 0.578037 0.813532 0.033210
C26   C     C_R   0.768146 0.575972 0.743435 0.019646
C27   C     C_R   0.816591 0.498013 0.812655 -0.161370
C28   C     C_R   0.740113 0.417842 0.746320 -0.028980
C29   C     C_R   0.672106 0.419648 0.685940 0.079733
C30   C     C_R   0.688487 0.497887 0.683226 -0.135266
C31   C     C_R   0.727439 0.336477 0.741347 -0.213599
C32   C     C_R   0.644972 0.262201 0.689171 0.551792
C33   C     C_R   0.574572 0.267011 0.634673 -0.266249
C34   C     C_R   0.620721 0.499113 0.619539 0.844414
C35   C     C_R   0.588679 0.343657 0.631066 -0.231972
C36   C     C_R   0.401772 0.385232 0.659304 -0.147659
C37   C     C_R   0.405245 0.396453 0.736620 -0.145113
C38   C     C_R   0.332608 0.343449 0.736123 -0.138493
C39   C     C_R   0.258478 0.275901 0.658573 -0.148948
C40   C     C_R   0.255979 0.259920 0.579374 0.075451
C41   C     C_R   0.324737 0.319925 0.579465 0.071341
C42   C     C_R   0.187184 0.185372 0.500450 -0.195153
C43   C     C_R   0.182453 0.173248 0.421447 0.026876
C44   C     C_R   0.241530 0.241696 0.420675 0.079410
C45   C     C_3   0.331937 0.565859 0.279794 -0.177980
C46   C     C_R   0.314327 0.313165 0.499997 -0.200095
C47   C     C_R   0.119706 0.094545 0.342958 -0.163803
C48   C     C_R   0.109610 0.087645 0.264543 0.246266
C49   C     C_R   0.161390 0.159934 0.263490 -0.155054
C50   C     C_R   0.226173 0.236212 0.340335 -0.200942
C51   C     C_R   0.001150 0.620248 0.121793 0.921921
C52   C     C_R   0.124714 0.500721 0.124936 0.856529
C53   C     C_R   0.004245 0.379885 0.884308 0.859638
C54   C     C_R   0.882707 0.499130 0.881871 0.871540
C55   C     C_R   0.004517 0.882859 0.382434 0.856939
C56   C     C_3   0.254495 0.579990 0.283693 -0.214428
C57   C     C_R   0.878624 0.883182 0.502311 0.929245
C58   C     C_R   0.997967 0.119942 0.618232 0.891551
C59   C     C_R   0.120266 0.120026 0.500401 0.851740
C60   C     C_R   0.166168 0.774165 0.262667 -0.278049
C61   C     C_R   0.242578 0.855857 0.316777 0.532030
C62   C     C_R   0.237860 0.925899 0.368102 -0.201365
C63   C     C_R   0.159375 0.914349 0.367674 -0.263273
C64   C     C_R   0.082416 0.832152 0.313375 0.068323
C65   C     C_R   0.083189 0.763625 0.254043 0.023785
C66   C     C_R   0.006101 0.815428 0.320096 -0.103101
C67   C     C_3   0.191965 0.501870 0.192798 0.014667
C68   C     C_R   0.930880 0.733322 0.268321 -0.029701
C69   C     C_R   0.922708 0.672715 0.194658 -0.114786
C70   C     C_R   0.001475 0.686578 0.189556 -0.151989
C71   C     C_R   0.864230 0.710709 0.289838 -0.252065
C72   C     C_R   0.786930 0.631745 0.235657 0.056185
C73   C     C_R   0.767754 0.582327 0.151304 0.438434
C74   C     C_R   0.835716 0.602333 0.130555 0.392709
C75   C     C_R   0.980358 0.388954 0.730232 -0.146426
C76   C     C_R   0.983147 0.401165 0.662769 -0.143306
C77   C     C_R   0.998178 0.346527 0.605992 -0.140052
C78   C     C_3   0.267813 0.487708 0.188575 0.252364
C79   C     C_R   0.005273 0.276515 0.613560 -0.161529
C80   C     C_R   0.997149 0.259781 0.678704 0.068751
C81   C     C_R   0.992544 0.321042 0.742009 0.079454
C82   C     C_R   0.993503 0.183868 0.682416 -0.202356
C83   C     C_R   0.989827 0.170692 0.750385 0.080064
C84   C     C_R   0.002467 0.239546 0.821360 0.074550
C85   C     C_R   0.000800 0.313107 0.815408 -0.206022
C86   C     C_R   0.975063 0.090638 0.749898 -0.119499
C87   C     C_R   0.983232 0.083215 0.822260 -0.147605
C88   C     C_R   0.006347 0.154920 0.896254 -0.145124
C89   C     C_3   0.250099 0.424286 0.223419 -0.179556
C90   C     C_R   0.016057 0.232500 0.896276 -0.147480
H1    H     H_    0.254109 0.643185 0.306997 0.139121
H2    H     H_    0.938821 0.770458 0.485556 0.160399
H3    H     H_    0.969898 0.665402 0.517764 0.139136
H4    H     H_    0.744897 0.580868 0.545993 0.141371
H5    H     H_    0.508626 0.212486 0.595051 0.142811
H6    H     H_    0.743488 0.652401 0.681204 0.169418
H7    H     H_    0.938060 0.668487 0.945283 0.179958
H8    H     H_    0.397720 0.617355 0.301099 0.130014
H9    H     H_    0.780517 0.328642 0.778808 0.181769
H10   H     H_    0.532458 0.343377 0.587202 0.164373
H11   H     H_    0.152559 0.157172 0.203277 0.132052
H12   H     H_    0.460330 0.427679 0.663258 0.146618
H13   H     H_    0.463821 0.447243 0.797075 0.145256
H14   H     H_    0.334071 0.353614 0.795933 0.143216
H15   H     H_    0.203590 0.237077 0.661922 0.149976
H16   H     H_    0.078448 0.037247 0.341367 0.154845
H17   H     H_    0.263203 0.290448 0.335384 0.161030
H18   H     H_    0.173987 0.719412 0.230671 0.161780
H19   H     H_    0.296195 0.989061 0.411036 0.156270
H20   H     H_    0.160324 0.969949 0.411615 0.158822
H21   H     H_    0.873087 0.753058 0.350469 0.167142
H22   H     H_    0.015484 0.150100 0.953439 0.134851
H23   H     H_    0.249712 0.360681 0.199947 0.143165
H24   H     H_    0.967750 0.432877 0.772056 0.151600
H25   H     H_    0.974965 0.454020 0.655366 0.132997
H26   H     H_    0.003045 0.357586 0.555091 0.136104
H27   H     H_    0.017641 0.236674 0.568029 0.151216
H28   H     H_    0.956524 0.032884 0.693737 0.153277
H29   H     H_    0.973043 0.022086 0.821313 0.140498
H30   H     H_    0.034780 0.286486 0.955733 0.145876
H31   H     H_    0.107024 0.386811 0.205126 0.157917
H32   H     H_    0.225905 0.528842 0.375325 0.147427
H33   H     H_    0.874814 0.571989 0.551227 0.135009
H34   H     H_    0.523761 0.677671 0.441977 0.166874
H35   H     H_    0.493613 0.792913 0.441384 0.174331
O1    O     O_R   0.592010 0.539900 0.448660 -0.619435
O2    O     O_R   0.054870 0.643310 0.094700 -0.654174
O3    O     O_R   0.044440 0.448270 0.096110 -0.635412
O4    O     O_R   0.147870 0.551680 0.096080 -0.628549
O5    O     O_R   0.952810 0.356650 0.912880 -0.624288
O6    O     O_R   0.056240 0.460060 0.912840 -0.620572
O7    O     O_R   0.859800 0.448280 0.911500 -0.594198
O8    O     O_R   0.963240 0.551690 0.911470 -0.643858
O9    O     O_R   0.052860 0.908430 0.461230 -0.626190
O10   O     O_R   0.948620 0.908400 0.356980 -0.626023
O11   O     O_R   0.960510 0.908410 0.552140 -0.642304
O12   O     O_R   0.591210 0.643320 0.551330 -0.619784
O13   O     O_R   0.856270 0.908390 0.447890 -0.596090
O14   O     O_R   0.051380 0.091620 0.643040 -0.633389
O15   O     O_R   0.947140 0.091600 0.538800 -0.623057
O16   O     O_R   0.143730 0.091640 0.552130 -0.625794
O17   O     O_R   0.039490 0.091610 0.447890 -0.632726
O18   O     O_R   0.408080 0.448290 0.356360 -0.628834
O19   O     O_R   0.407280 0.551710 0.459030 -0.625579
O20   O     O_R   0.408790 0.356680 0.448670 -0.628032
O21   O     O_R   0.407990 0.460100 0.551340 -0.619349
O22   O     O_R   0.592720 0.448290 0.540970 -0.625685
O23   O     O_R   0.591920 0.551710 0.643640 -0.623278
O24   O     O_R   0.951440 0.539900 0.094740 -0.562535
Zn1   Zn    Zn3+2 0.500540 0.430950 0.431450 0.943531
Zn2   Zn    Zn3+2 0.499460 0.569050 0.568550 0.950654
Zn3   Zn    Zn3+2 0.934770 0.430930 0.003810 1.007865
Zn4   Zn    Zn3+2 0.072900 0.569020 0.003770 0.910712
Zn5   Zn    Zn3+2 0.069600 0.000030 0.569620 0.939850
Zn6   Zn    Zn3+2 0.930400 0.000000 0.430410 0.922720
C91   C     C_3   0.601621 0.951444 0.480360 -0.935852
H36   H     H_    0.553562 0.946827 0.503352 0.244128
H37   H     H_    0.661331 0.015822 0.527293 0.256097
H38   H     H_    0.570142 0.946445 0.416523 0.238043
O25   O     O_3   0.764625 0.959048 0.488710 -0.641002
C92   C     C_3   0.732496 0.968442 0.413942 0.171092
H39   H     H_    0.790935 0.008621 0.413406 0.192410
H40   H     H_    0.698874 0.008433 0.419845 0.119869
C93   C     C_3   0.674658 0.883026 0.326123 -0.430853
H41   H     H_    0.706501 0.841023 0.321960 0.244698
H42   H     H_    0.609221 0.845894 0.317824 0.215415
C94   C     C_3   0.659388 0.902202 0.251935 -0.962194
H43   H     H_    0.626397 0.943257 0.253781 0.262130
H44   H     H_    0.616516 0.840081 0.190031 0.269131
H45   H     H_    0.723067 0.936397 0.255639 0.258536
C95   C     C_3   0.875792 0.812422 0.793015 -0.891265
H46   H     H_    0.936406 0.871546 0.849142 0.263279
H47   H     H_    0.882707 0.801396 0.735233 0.236239
H48   H     H_    0.818903 0.824724 0.784674 0.246075
O26   O     O_3   0.982097 0.816721 0.949172 -0.651563
C96   C     C_3   0.065007 0.823478 0.963054 0.057565
H49   H     H_    0.075847 0.829614 0.910847 0.145592
H50   H     H_    0.070491 0.766032 0.965422 0.143436
C97   C     C_3   0.137072 0.904558 0.049085 -0.306975
H51   H     H_    0.134182 0.963279 0.048237 0.223257
H52   H     H_    0.125807 0.898956 0.101141 0.229435
C98   C     C_3   0.228454 0.915248 0.068037 -0.989016
H53   H     H_    0.233164 0.857732 0.070448 0.255569
H54   H     H_    0.279017 0.974233 0.131166 0.267371
H55   H     H_    0.242176 0.922779 0.017799 0.268687
O27   O     O_3   0.635633 0.192214 0.704118 -0.647531
C99   C     C_3   0.574411 0.109864 0.630281 0.065429
H56   H     H_    0.605724 0.067691 0.632098 0.183844
H57   H     H_    0.559078 0.110137 0.568471 0.124249
C100  C     C_3   0.490583 0.070009 0.634401 -0.354783
H58   H     H_    0.508666 0.072299 0.697382 0.244203
H59   H     H_    0.454844 0.107992 0.628647 0.214401
C101  C     C_3   0.429401 0.975471 0.563037 -0.937877
H60   H     H_    0.415632 0.970646 0.499791 0.293382
H61   H     H_    0.366183 0.950619 0.562948 0.270908
H62   H     H_    0.460114 0.934252 0.573259 0.264375
C102  C     C_3   0.042196 0.003529 0.182770 -0.910550
H63   H     H_    0.042620 0.007403 0.125980 0.246326
H64   H     H_    0.056232 0.950185 0.185640 0.243264
H65   H     H_    0.975507 0.987723 0.174568 0.247397
C103  C     C_3   0.284209 0.470868 0.113161 -0.930477
H66   H     H_    0.343395 0.461747 0.127596 0.246006
H67   H     H_    0.226253 0.411289 0.054712 0.235545
H68   H     H_    0.295167 0.527188 0.101664 0.256222
O28   O     O_3   0.685006 0.511682 0.089490 -0.616939
C104  C     C_3   0.622074 0.540961 0.068083 0.049518
H69   H     H_    0.634211 0.577312 0.033799 0.133036
H70   H     H_    0.623585 0.585224 0.125252 0.154013
C105  C     C_3   0.529738 0.462313 0.010483 -0.313058
H71   H     H_    0.524303 0.419046 0.950109 0.221860
H72   H     H_    0.518270 0.424865 0.044119 0.231187
C106  C     C_3   0.459074 0.490419 0.988662 -0.986662
H73   H     H_    0.464038 0.534763 0.048210 0.269041
H74   H     H_    0.392819 0.432224 0.949954 0.265545
H75   H     H_    0.466427 0.524145 0.951086 0.264545
O29   O     O_3   0.324574 0.866959 0.328020 -0.671126
C107  C     C_3   0.324622 0.838741 0.249215 0.059330
H76   H     H_    0.372536 0.896015 0.253015 0.163578
H77   H     H_    0.260152 0.812887 0.191484 0.132617
C108  C     C_3   0.355313 0.769974 0.237367 -0.334005
H78   H     H_    0.420507 0.796720 0.294024 0.229195
H79   H     H_    0.307493 0.711941 0.232435 0.227428
C109  C     C_3   0.363160 0.742048 0.156652 -0.946226
H80   H     H_    0.298123 0.712950 0.098874 0.263278
H81   H     H_    0.385974 0.692593 0.150485 0.261948
H82   H     H_    0.411711 0.798879 0.160486 0.260940
C110  C     C_3   0.726938 0.603188 0.269531 -0.869501
H83   H     H_    0.701600 0.649797 0.285962 0.228742
H84   H     H_    0.670594 0.536629 0.222931 0.263886
H85   H     H_    0.764355 0.601649 0.328251 0.258932
O30   O     O_3   0.813447 0.557764 0.045781 -0.598588
C111  C     C_3   0.781690 0.599214 0.001700 0.090944
H86   H     H_    0.832714 0.633349 0.989220 0.140750
H87   H     H_    0.767804 0.649417 0.037934 0.099648
C112  C     C_3   0.697358 0.530458 0.916172 -0.303306
H88   H     H_    0.711592 0.484516 0.876447 0.240853
H89   H     H_    0.647566 0.490867 0.926646 0.235206
C113  C     C_3   0.658256 0.572190 0.867835 -0.966831
H90   H     H_    0.630437 0.606905 0.900974 0.254763
H91   H     H_    0.604895 0.520977 0.801662 0.265706
H92   H     H_    0.709250 0.619311 0.864020 0.284620

loop_
_geom_bond_atom_site_label_1
_geom_bond_atom_site_label_2
_ccdc_geom_bond_type
C58   O14   A    
C8    C9    A    
C66   C68   A    
C95   H46   S    
C100  H58   S    
C51   C70   S    
C102  H65   S    
C103  H67   S    
C103  H66   S    
C109  H80   S    
C91   H38   S    
O23   Zn2   S    
C87   C88   A    
O2    Zn4   S    
C108  H79   S    
C22   O26   S    
C52   O3    A    
C109  H82   S    
C7    C8    A    
C94   H44   S    
C31   C32   A    
O28   C104  S    
C107  C108  S    
C12   O19   A    
C101  H60   S    
C23   O20   A    
C5    H34   S    
C28   C29   A    
C37   C38   A    
C83   C84   A    
O8    Zn4   S    
C52   O4    A    
C93   H41   S    
O19   Zn2   S    
C45   H8    S    
C58   C82   S    
C49   H11   S    
C5    C6    A    
C104  H70   S    
O16   Zn5   S    
C44   C50   A    
C65   C70   A    
C105  C106  S    
O10   Zn6   S    
O5    Zn3   S    
C105  H71   S    
C36   H12   S    
C18   C19   A    
C73   C74   A    
C102  H64   S    
C98   H53   S    
C99   C100  S    
C38   H14   S    
C100  C101  S    
C92   H40   S    
C34   O23   A    
O3    Zn3   S    
O18   Zn1   S    
C7    C91   S    
C110  H83   S    
C45   C56   S    
C16   C17   A    
C101  H61   S    
C72   C110  S    
C71   H21   S    
C36   C37   A    
C112  H88   S    
C78   C103  S    
C57   O11   A    
C45   C78   S    
C1    C15   S    
C61   O29   S    
C31   H9    S    
O17   Zn6   S    
C4    C12   S    
C77   H26   S    
C9    C10   A    
O20   Zn1   S    
C60   H18   S    
C3    H32   S    
C18   H33   S    
C72   C73   A    
C97   C98   S    
C101  H62   S    
C40   C42   A    
C20   H6    S    
C23   C46   S    
C13   C14   A    
C97   H52   S    
C103  H68   S    
C112  H89   S    
C36   C41   A    
C61   C62   A    
C67   C78   S    
C84   C90   A    
C76   H25   S    
C55   O10   A    
C33   H5    S    
C108  H78   S    
C23   O21   A    
C44   C46   A    
C92   H39   S    
C94   H45   S    
C113  H91   S    
C4    C45   S    
C56   H1    S    
C78   C89   S    
C38   C39   A    
C95   H48   S    
C89   H23   S    
C27   C54   S    
C30   C34   S    
C63   C64   A    
C24   H7    S    
O6    Zn4   S    
O22   Zn1   S    
C84   C85   A    
C59   O17   A    
C80   C82   A    
C2    C67   S    
O24   Zn3   S    
C94   H43   S    
C37   H13   S    
C104  H69   S    
C68   C69   A    
O14   Zn5   S    
C107  H76   S    
C21   C95   S    
C54   O8    A    
C111  C112  S    
O21   Zn2   S    
O1    Zn1   S    
C60   C61   A    
C98   H55   S    
C90   H30   S    
C2    C89   S    
C75   C76   A    
C87   H29   S    
C29   C30   A    
C112  C113  S    
C34   O22   A    
C95   H47   S    
C3    C56   S    
C47   C48   A    
C113  H92   S    
C106  H75   S    
C41   C46   A    
C47   H16   S    
C83   C86   A    
C62   C63   A    
C111  H87   S    
C17   C18   A    
C77   C79   A    
C69   C74   A    
C86   H28   S    
C75   H24   S    
C24   C25   A    
C9    C11   A    
C51   O24   A    
C19   H4    S    
C53   O6    A    
C96   H49   S    
C110  H84   S    
C88   C90   A    
C60   C65   A    
C26   C30   A    
C43   C44   A    
C1    O1    A    
C50   H17   S    
O7    Zn3   S    
C49   C50   A    
C22   C24   A    
C17   H3    S    
C42   C43   A    
C35   H10   S    
C56   C67   S    
C39   C40   A    
C55   C66   S    
C1    O12   A    
C92   C93   S    
C4    C89   S    
C2    H31   S    
C58   O15   A    
C39   H15   S    
O13   Zn6   S    
C73   O28   S    
C113  H90   S    
C40   C41   A    
C100  H59   S    
C98   H54   S    
C10   C15   A    
C86   C87   A    
C14   C19   A    
C28   C31   A    
C75   C81   A    
C6    H35   S    
C106  H74   S    
C80   C81   A    
C42   C59   S    
C109  H81   S    
C16   H2    S    
C6    C7    A    
C97   H51   S    
C107  H77   S    
C55   O9    A    
C54   O7    A    
C29   C35   A    
C12   O18   A    
C32   O27   S    
C48   C102  S    
C74   O30   S    
C51   O2    A    
C64   C65   A    
C96   C97   S    
C63   H20   S    
C93   H42   S    
C2    C3    S    
C25   C26   A    
C99   H56   S    
O26   C96   S    
C11   C57   S    
O11   Zn5   S    
C32   C33   A    
O4    Zn4   S    
C76   C77   A    
C11   C13   A    
C104  C105  S    
O9    Zn5   S    
C62   H19   S    
C20   C26   A    
C52   C67   S    
C68   C71   A    
C48   C49   A    
C79   H27   S    
C91   H37   S    
C111  H86   S    
C33   C35   A    
C57   O13   A    
C93   C94   S    
C102  H63   S    
O25   C92   S    
C69   C70   A    
C99   H57   S    
O15   Zn6   S    
C79   C80   A    
C88   H22   S    
O29   C107  S    
C5    C10   A    
C110  H85   S    
C91   H36   S    
C106  H73   S    
C59   O16   A    
C20   C21   A    
C82   C83   A    
C13   C16   A    
O30   C111  S    
C105  H72   S    
C14   C15   A    
O12   Zn2   S    
C53   C85   S    
C53   O5    A    
C71   C72   A    
O27   C99   S    
C21   C22   A    
C43   C47   A    
C108  C109  S    
C81   C85   A    
C3    C4    S    
C64   C66   A    
C96   H50   S    
C27   C28   A    
C25   C27   A    
C8    O25   S    
