data_mof_unit_58773.cif
_audit_creation_date              2012-12-10T19:11:27-0500
_audit_creation_method            fapswitch 2.2
_symmetry_space_group_name_H-M    P1
_symmetry_Int_Tables_number       1
_space_group_crystal_system       triclinic
_cell_length_a                    10.774343
_cell_length_b                    9.907388
_cell_length_c                    10.60992
_cell_angle_alpha                 90.062114
_cell_angle_beta                  84.058544
_cell_angle_gamma                 91.183954
_cell_volume                      1126.2371952

loop_
_atom_site_label
_atom_site_type_symbol
_atom_type_description
_atom_site_fract_x
_atom_site_fract_y
_atom_site_fract_z
_atom_type_partial_charge
C1    C     C_R   0.258070 0.499138 0.501229 0.864534
C2    C     C_3   0.467750 0.498820 0.126722 -0.214788
C3    C     C_3   0.066305 0.613756 0.586036 -0.360922
C4    C     C_3   0.063344 0.364651 0.552422 -0.354971
C5    C     C_3   0.923303 0.611549 0.593196 -0.186553
C6    C     C_3   0.922812 0.359861 0.543710 -0.150822
C7    C     C_3   0.088023 0.522158 0.364283 -0.386057
C8    C     C_3   0.121591 0.499078 0.500764 0.037220
C9    C     C_3   0.879688 0.501800 0.498594 -0.081494
C10   C     C_3   0.945466 0.531148 0.363913 -0.384497
C11   C     C_3   0.370945 0.076004 0.512718 0.068417
C12   C     C_3   0.371456 0.914897 0.523907 0.079332
C13   C     C_3   0.581415 0.078263 0.387258 -0.231510
C14   C     C_3   0.561821 0.920380 0.376773 -0.193871
C15   C     C_3   0.559317 0.082411 0.607668 -0.248838
C16   C     C_3   0.571349 0.922014 0.598625 -0.243805
C17   C     C_R   0.483768 0.499565 0.260672 0.949563
C18   C     C_R   0.742434 0.500989 0.498541 0.857669
C19   C     C_R   0.495363 0.499609 0.742346 0.987139
C20   C     C_3   0.407236 0.604639 0.046851 0.103862
C21   C     C_3   0.418538 0.382310 0.047496 0.029530
C22   C     C_3   0.360993 0.488390 0.964934 0.177107
C23   C     C_3   0.483514 0.497852 0.878240 -0.237741
C24   C     C_3   0.529542 0.612858 0.957876 -0.098986
C25   C     C_3   0.540875 0.392272 0.958239 -0.109595
C26   C     C_3   0.590171 0.507906 0.037541 0.203525
H1    H     H_    0.921328 0.632427 0.330258 0.197756
H2    H     H_    0.914409 0.457489 0.294809 0.205084
H3    H     H_    0.322328 0.103980 0.429379 0.105606
H4    H     H_    0.310549 0.872270 0.455073 0.106812
H5    H     H_    0.653079 0.129951 0.612789 0.213778
H6    H     H_    0.671274 0.897766 0.579215 0.197696
H7    H     H_    0.508506 0.109388 0.699930 0.190067
H8    H     H_    0.542422 0.876118 0.691986 0.195576
H9    H     H_    0.680937 0.091553 0.406053 0.191251
H10   H     H_    0.656009 0.875011 0.359035 0.187216
H11   H     H_    0.105149 0.711456 0.545961 0.210428
H12   H     H_    0.109353 0.279400 0.498866 0.221670
H13   H     H_    0.094357 0.604723 0.682984 0.220880
H14   H     H_    0.078583 0.355456 0.653815 0.221736
H15   H     H_    0.884724 0.581426 0.690916 0.209740
H16   H     H_    0.875234 0.340156 0.640406 0.218407
H17   H     H_    0.132865 0.617380 0.325479 0.205852
H18   H     H_    0.123737 0.438201 0.301737 0.206384
N1    N     N_3   0.499750 0.138610 0.497240 -0.117107
N2    N     N_3   0.499750 0.861390 0.497240 -0.128303
O1    O     O_R   0.314910 0.616040 0.499970 -0.629619
O2    O     O_R   0.314910 0.383960 0.499970 -0.617341
O3    O     O_R   0.500080 0.616020 0.313900 -0.585255
O4    O     O_R   0.500080 0.383980 0.313900 -0.618176
O5    O     O_R   0.685320 0.616040 0.499930 -0.635453
O6    O     O_R   0.685320 0.383960 0.499930 -0.622714
O7    O     O_R   0.500150 0.616060 0.686000 -0.612560
O8    O     O_R   0.500150 0.383940 0.686000 -0.604607
Zn1   Zn    Zn3+2 0.500150 0.654960 0.499940 0.972946
Zn2   Zn    Zn3+2 0.500150 0.345040 0.499940 0.979986
I1    I     I_    0.178761 0.471296 0.900199 -0.230702
I2    I     I_    0.262435 0.162229 0.678797 -0.225407
I3    I     I_    0.284805 0.828122 0.704565 -0.244620
C27   C     C_2   0.582668 0.148424 0.262326 0.524657
H19   H     H_    0.499890 0.148595 0.215513 0.074153
O9    O     O_2   0.678309 0.200528 0.210294 -0.566904
C28   C     C_2   0.495065 0.885618 0.263859 0.466878
H20   H     H_    0.399597 0.915380 0.261002 0.062557
O10   O     O_2   0.552501 0.837441 0.170031 -0.575754
I4    I     I_    0.271564 0.756933 0.094850 -0.289643
I5    I     I_    0.295878 0.213977 0.105108 -0.331275
C29   C     C_2   0.591759 0.741319 0.908073 0.581883
H21   H     H_    0.542935 0.835847 0.919794 0.090041
O11   O     O_2   0.696004 0.739676 0.851250 -0.526117
C30   C     C_2   0.614788 0.272901 0.910624 0.549616
H22   H     H_    0.580973 0.171562 0.935578 0.076464
O12   O     O_2   0.712736 0.289025 0.843267 -0.559095
I6    I     I_    0.778190 0.528297 0.082785 -0.163304
C31   C     C_2   0.883045 0.754766 0.572493 0.518104
H23   H     H_    0.862761 0.788987 0.479956 0.064565
O13   O     O_2   0.882119 0.836695 0.658604 -0.463568
C32   C     C_2   0.892333 0.239545 0.462464 0.437964
H24   H     H_    0.868364 0.252139 0.366666 0.124227
O14   O     O_2   0.898488 0.125161 0.503836 -0.555901

loop_
_geom_bond_atom_site_label_1
_geom_bond_atom_site_label_2
_ccdc_geom_bond_type
C10   H1    S    
C7    C10   S    
C28   O10   D    
C1    C8    S    
C4    C8    S    
C6    C9    S    
C18   O6    A    
C7    C8    S    
C14   N2    S    
C13   C27   S    
C20   I4    S    
C24   C26   S    
C13   H9    S    
C14   H10   S    
C32   O14   D    
C6    C32   S    
C15   C16   S    
C27   O9    D    
C5    H15   S    
C16   H8    S    
C12   I3    S    
C4    H14   S    
N1    Zn2   S    
C29   H21   S    
N2    Zn1   S    
C23   C24   S    
C25   C30   S    
C7    H17   S    
C11   I2    S    
C9    C10   S    
C19   O7    A    
C3    H13   S    
C21   C22   S    
C21   I5    S    
C2    C17   S    
C22   I1    S    
C18   O5    A    
O7    Zn1   S    
O8    Zn2   S    
C2    C20   S    
C20   C24   S    
C4    C6    S    
C3    C8    S    
C17   O3    A    
C30   O12   D    
C32   H24   S    
C1    O1    A    
C25   C26   S    
O3    Zn1   S    
O4    Zn2   S    
C27   H19   S    
C5    C31   S    
C19   C23   S    
C31   H23   S    
C5    C9    S    
C2    C21   S    
C2    C26   S    
C7    H18   S    
C31   O13   D    
C3    H11   S    
C19   O8    A    
C12   N2    S    
C4    H12   S    
C11   N1    S    
C15   N1    S    
C16   N2    S    
O1    Zn1   S    
C10   H2    S    
O2    Zn2   S    
C21   C25   S    
C12   H4    S    
C20   C22   S    
C3    C5    S    
C17   O4    A    
C11   C12   S    
C1    O2    A    
C15   H5    S    
C16   H6    S    
C30   H22   S    
C13   N1    S    
C14   C28   S    
C26   I6    S    
O5    Zn1   S    
C23   C25   S    
C24   C29   S    
C28   H20   S    
C9    C18   S    
C11   H3    S    
C29   O11   D    
C6    H16   S    
C22   C23   S    
C13   C14   S    
C15   H7    S    
O6    Zn2   S    
