data_mof_unit_54859.cif
_audit_creation_date              2012-12-11T17:08:28-0500
_audit_creation_method            fapswitch 2.2
_symmetry_space_group_name_H-M    P1
_symmetry_Int_Tables_number       1
_space_group_crystal_system       triclinic
_cell_length_a                    6.958101
_cell_length_b                    14.512614
_cell_length_c                    16.089777
_cell_angle_alpha                 90.009843
_cell_angle_beta                  90.00124
_cell_angle_gamma                 89.999078
_cell_volume                      1624.74942168

loop_
_atom_site_label
_atom_site_type_symbol
_atom_type_description
_atom_site_fract_x
_atom_site_fract_y
_atom_site_fract_z
_atom_type_partial_charge
O1    O     O_R   0.505700 0.583890 0.413310 -0.550778
O2    O     O_R   0.175960 0.594920 0.586080 -0.510443
O3    O     O_R   0.005660 0.416110 0.586690 -0.520536
C1    C     C_R   0.344693 0.617248 0.614574 0.784547
O4    O     O_R   0.175980 0.594920 0.413930 -0.551024
O5    O     O_R   0.005680 0.416110 0.413310 -0.553169
C2    C     C_R   0.344723 0.616883 0.385188 0.704042
O6    O     O_R   0.505680 0.583890 0.586690 -0.544775
O7    O     O_3   0.339200 0.441330 0.500000 -0.349993
V1    V     V_3+5 0.064350 0.510880 0.500000 1.552378
O8    O     O_R   0.675960 0.405080 0.413920 -0.544057
C3    C     C_R   0.844989 0.382914 0.385290 0.675844
O9    O     O_R   0.675940 0.405080 0.586070 -0.498802
C4    C     C_R   0.844748 0.382767 0.614534 0.867949
V2    V     V_3+5 0.564340 0.489120 0.500000 1.573345
O10   O     O_3   0.839360 0.558670 0.500000 -0.381049
C5    C     C_R   0.982140 0.326706 0.749968 -0.107305
C6    C     C_R   0.852158 0.315939 0.684101 -0.250569
C7    C     C_R   0.720800 0.241941 0.689327 0.589105
C8    C     C_R   0.730605 0.177993 0.755354 0.548563
C9    C     C_R   0.875222 0.185039 0.816875 -0.322281
C10   C     C_R   0.994135 0.262779 0.814156 -0.095133
C11   C     C_3   0.207250 0.272065 0.820004 0.444795
C12   C     C_3   0.194006 0.342814 0.750351 0.460531
H1    H     H_    0.286600 0.208048 0.803812 0.139123
C13   C     C_R   0.726070 0.248011 0.189197 0.117173
C14   C     C_R   0.882043 0.187605 0.181324 -0.103954
C15   C     C_R   0.034252 0.197831 0.238297 -0.139441
C16   C     C_R   0.022627 0.261749 0.304109 -0.159982
C17   C     C_R   0.857826 0.316835 0.315224 -0.095856
C18   C     C_R   0.714179 0.310965 0.254504 0.096874
C19   C     C_3   0.504057 0.295140 0.264720 -0.416217
C20   C     C_3   0.516923 0.226925 0.193296 -0.391948
H2    H     H_    0.418161 0.357491 0.249533 0.172677
H3    H     H_    0.439091 0.249990 0.136663 0.195926
H4    H     H_    0.489449 0.154453 0.212258 0.175037
C21   C     C_R   0.491351 0.675798 0.747192 -0.081380
C22   C     C_R   0.352092 0.683614 0.684578 -0.254722
C23   C     C_R   0.213784 0.754275 0.693220 0.645545
C24   C     C_R   0.226199 0.818324 0.758934 -0.150707
C25   C     C_R   0.376063 0.813908 0.817702 -0.134461
C26   C     C_R   0.503568 0.739537 0.811843 -0.091805
C27   C     C_3   0.717834 0.738570 0.810188 0.441894
C28   C     C_3   0.704530 0.668414 0.740264 0.437470
H5    H     H_    0.783525 0.712319 0.868526 0.076660
H6    H     H_    0.761417 0.691950 0.679389 0.154653
C29   C     C_R   0.496488 0.678117 0.254417 0.095940
C30   C     C_R   0.352210 0.682852 0.315022 -0.173607
C31   C     C_R   0.208286 0.750153 0.304330 -0.238733
H7    H     H_    0.091909 0.755517 0.348714 0.166989
C32   C     C_R   0.220671 0.815779 0.239897 0.597438
C33   C     C_R   0.375396 0.814289 0.182842 -0.207782
C34   C     C_R   0.507176 0.741710 0.189808 0.005961
C35   C     C_3   0.721255 0.743736 0.193062 -0.351631
C36   C     C_3   0.709602 0.674142 0.263529 -0.379831
H8    H     H_    0.776038 0.812044 0.212913 0.239022
H9    H     H_    0.787663 0.715361 0.135678 0.169806
H10   H     H_    0.759469 0.701915 0.324195 0.185732
H11   H     H_    0.768483 0.605430 0.246665 0.159092
O11   O     O_R   0.229000 0.916070 0.913330 -0.552177
O12   O     O_R   0.558770 0.905070 0.086080 -0.553962
O13   O     O_R   0.729000 0.083900 0.086690 -0.549204
C37   C     C_R   0.389735 0.883670 0.115381 0.726620
O14   O     O_R   0.558720 0.905070 0.913930 -0.511441
O15   O     O_R   0.728960 0.083900 0.913310 -0.507793
C38   C     C_R   0.389773 0.883237 0.885057 0.776626
O16   O     O_R   0.229050 0.916070 0.086710 -0.515905
O17   O     O_3   0.395460 0.058650 0.000020 -0.372864
V3    V     V_3+5 0.670340 0.989120 0.000000 1.559964
O18   O     O_R   0.058670 0.094960 0.913900 -0.543495
C39   C     C_R   0.889606 0.116368 0.884745 0.839024
O19   O     O_R   0.058720 0.094960 0.086050 -0.540922
C40   C     C_R   0.889984 0.117012 0.114795 0.722619
V4    V     V_3+5 0.170330 0.010930 0.999970 1.547747
O20   O     O_3   0.895340 0.941350 0.999980 -0.373319
F1    F     F_    0.593299 0.226789 0.626991 -0.586955
H12   H     H_    0.469908 0.262149 0.325270 0.191205
F2    F     F_    0.075718 0.766201 0.634660 -0.666730
H13   H     H_    0.124788 0.874784 0.761113 0.213061
F3    F     F_    0.790623 0.822110 0.783436 -0.672680
F4    F     F_    0.768852 0.582134 0.764136 -0.698091
F5    F     F_    0.607247 0.105485 0.755479 -0.631785
F6    F     F_    0.089876 0.885078 0.237698 -0.703939
F7    F     F_    0.262123 0.311191 0.894767 -0.680046
F8    F     F_    0.279479 0.312578 0.677773 -0.630987
H14   H     H_    0.234264 0.414152 0.768537 0.101702
H15   H     H_    0.157232 0.152592 0.234860 0.147092
H16   H     H_    0.138065 0.264657 0.349000 0.144497

loop_
_geom_bond_atom_site_label_1
_geom_bond_atom_site_label_2
_ccdc_geom_bond_type
C24   C25   A    
C8    F5    S    
C25   C26   A    
C4    C6    S    
C7    C8    A    
C1    O6    A    
C34   C35   S    
C13   C14   A    
C21   C22   A    
C9    C39   S    
C15   C16   A    
C36   H11   S    
O5    C3    A    
C17   C18   A    
O17   V4    S    
V2    O10   S    
C20   H4    S    
C6    C7    A    
C21   C26   A    
O12   C37   A    
C16   H16   S    
C19   H12   S    
O8    V2    S    
C29   C30   A    
O17   V3    S    
C31   C32   A    
O18   V4    S    
C11   C12   S    
O13   C40   A    
O18   C39   A    
O1    V2    S    
O7    V1    S    
C14   C40   S    
C29   C34   A    
O11   C38   A    
C13   C18   A    
O9    C4    A    
C28   H6    S    
C35   H8    S    
C37   O16   A    
C5    C12   S    
V4    O20   S    
C32   C33   A    
C23   F2    S    
O19   V4    S    
C28   F4    S    
C11   F7    S    
C23   C24   A    
O4    C2    A    
C27   F3    S    
O15   C39   A    
O13   V3    S    
C19   H2    S    
O2    C1    A    
C27   C28   S    
C16   C17   A    
C13   C20   S    
C18   C19   S    
C15   H15   S    
C5    C6    A    
C24   H13   S    
O16   V4    S    
O14   V3    S    
C27   H5    S    
O3    C4    A    
C30   C31   A    
C1    C22   S    
O6    V2    S    
O9    V2    S    
C26   C27   S    
O2    V1    S    
C32   F6    S    
C33   C34   A    
C29   C36   S    
C12   F8    S    
O12   V3    S    
C35   C36   S    
C7    F1    S    
C3    C17   S    
O1    C2    A    
O19   C40   A    
C33   C37   S    
O5    V1    S    
O8    C3    A    
C25   C38   S    
C5    C10   A    
C19   C20   S    
C21   C28   S    
O7    V2    S    
O4    V1    S    
O3    V1    S    
V1    O10   S    
C2    C30   S    
C22   C23   A    
O15   V3    S    
O11   V4    S    
C20   H3    S    
V3    O20   S    
C11   H1    S    
C8    C9    A    
C31   H7    S    
C36   H10   S    
C14   C15   A    
C10   C11   S    
C9    C10   A    
C12   H14   S    
O14   C38   A    
C35   H9    S    
