data_mof_unit_32799.cif
_audit_creation_date              2013-03-05T16:26:17-0500
_audit_creation_method            fapswitch 2.2
_symmetry_space_group_name_H-M    P1
_symmetry_Int_Tables_number       1
_space_group_crystal_system       triclinic
_cell_length_a                    12.988315
_cell_length_b                    19.337473
_cell_length_c                    18.127112
_cell_angle_alpha                 89.215978
_cell_angle_beta                  96.232174
_cell_angle_gamma                 90.197923
_cell_volume                      4525.48795699

loop_
_atom_site_label
_atom_site_type_symbol
_atom_site_description
_atom_site_fract_x
_atom_site_fract_y
_atom_site_fract_z
_atom_type_partial_charge
O1    O     O_R   0.499960 0.400180 0.561970 -0.566004
O2    O     O_R   0.500040 0.599820 0.438030 -0.584668
O3    O     O_R   0.500010 0.400190 0.438070 -0.588102
O4    O     O_R   0.499990 0.599810 0.561930 -0.577261
C1    C     C_R   0.499814 0.367538 0.500440 0.789099
C2    C     C_R   0.499789 0.632220 0.499480 0.799001
O5    O     O_R   0.348980 0.499990 0.551890 -0.587385
O6    O     O_R   0.651020 0.500010 0.448110 -0.591101
O7    O     O_R   0.349030 0.499990 0.427990 -0.595869
O8    O     O_R   0.650970 0.500010 0.572010 -0.593408
C3    C     C_R   0.300323 0.499868 0.486217 0.825892
C4    C     C_R   0.699751 0.500342 0.513805 0.803276
Cu1   Cu    Cu3+1 0.499970 0.500000 0.573360 0.942647
Cu2   Cu    Cu3+1 0.500030 0.500000 0.426640 0.924583
C5    C     C_R   0.812520 0.501710 0.521804 -0.050158
C6    C     C_R   0.187710 0.498924 0.478273 -0.035043
C7    C     C_R   0.024246 0.484287 0.402537 -0.237417
C8    C     C_R   0.976072 0.516432 0.597599 -0.229092
C9    C     C_R   0.131800 0.486201 0.409157 -0.220077
C10   C     C_R   0.868496 0.513551 0.591139 -0.204375
C11   C     C_R   0.135615 0.509818 0.540829 -0.265192
C12   C     C_R   0.864676 0.492130 0.459041 -0.275901
C13   C     C_R   0.028205 0.507096 0.534866 0.161555
C14   C     C_R   0.972103 0.494457 0.465118 0.168219
H1    H     H_    0.821854 0.482643 0.405357 0.148885
H2    H     H_    0.178492 0.519769 0.594380 0.151894
H3    H     H_    0.829192 0.521242 0.640112 0.147649
H4    H     H_    0.171125 0.477619 0.360371 0.148772
H5    H     H_    0.981976 0.474593 0.348768 0.132205
H6    H     H_    0.018374 0.525893 0.651416 0.128744
C15   C     C_R   0.414580 0.748110 0.488836 -0.004944
C16   C     C_R   0.442885 0.250904 0.544122 -0.000660
C17   C     C_R   0.423874 0.820121 0.491759 -0.223078
C18   C     C_R   0.455037 0.178987 0.545260 -0.228675
H7    H     H_    0.354947 0.852055 0.484389 0.137688
H8    H     H_    0.405348 0.146773 0.575803 0.136345
C19   C     C_R   0.521638 0.851362 0.503634 0.099294
C20   C     C_R   0.526311 0.147862 0.503582 0.104032
C21   C     C_R   0.611003 0.810585 0.511565 -0.159503
C22   C     C_R   0.589633 0.188798 0.463058 -0.168554
H9    H     H_    0.687000 0.834340 0.518961 0.124300
H10   H     H_    0.646644 0.165236 0.431980 0.124706
C23   C     C_R   0.602582 0.738834 0.509943 -0.214180
C24   C     C_R   0.578637 0.260365 0.461580 -0.207293
H11   H     H_    0.672260 0.707697 0.517206 0.124500
H12   H     H_    0.628149 0.291312 0.429696 0.143798
C25   C     C_R   0.504968 0.707371 0.498748 -0.051927
C26   C     C_R   0.505575 0.291961 0.501696 -0.067739
C27   C     C_R   0.563244 0.963562 0.569777 0.105950
C28   C     C_R   0.496727 0.035512 0.435754 0.106404
C29   C     C_R   0.563880 0.035963 0.566859 -0.247292
C30   C     C_R   0.497009 0.963193 0.438567 -0.244330
H13   H     H_    0.588323 0.064773 0.616645 0.139792
H14   H     H_    0.470057 0.934389 0.389252 0.142165
C31   C     C_R   0.530905 0.072087 0.500993 0.046508
C32   C     C_R   0.529229 0.927091 0.504515 0.045328
C33   C     C_R   0.427880 0.463229 0.716732 0.019279
C34   C     C_R   0.568068 0.540372 0.283345 0.015895
H15   H     H_    0.371062 0.433260 0.682576 0.154497
H16   H     H_    0.621978 0.572340 0.317655 0.135070
C35   C     C_R   0.427157 0.462995 0.794397 -0.112555
C36   C     C_R   0.567677 0.542282 0.205615 -0.108905
C37   C     C_R   0.502286 0.502000 0.838950 0.016928
C38   C     C_R   0.496018 0.500849 0.160908 0.010959
C39   C     C_R   0.575680 0.540794 0.802828 -0.007865
C40   C     C_R   0.426794 0.458317 0.196935 -0.002462
C41   C     C_R   0.572506 0.538219 0.724884 0.042073
C42   C     C_R   0.430410 0.459789 0.274965 0.038536
H17   H     H_    0.627345 0.568067 0.696615 0.122550
H18   H     H_    0.377402 0.428082 0.302963 0.125675
N1    N     N_R   0.499990 0.500020 0.683620 -0.186892
N2    N     N_R   0.500010 0.499980 0.316380 -0.187273
C43   C     C_R   0.581527 0.471034 0.968858 -0.203604
C44   C     C_R   0.417207 0.532422 0.031177 -0.216024
H19   H     H_    0.645043 0.446244 0.945569 0.122561
H20   H     H_    0.353265 0.556639 0.054522 0.128675
C45   C     C_R   0.579367 0.470137 0.046205 -0.146031
C46   C     C_R   0.419446 0.533404 0.953843 -0.162582
H21   H     H_    0.641872 0.445456 0.081242 0.125924
H22   H     H_    0.356810 0.557972 0.918833 0.129954
C47   C     C_R   0.496965 0.500534 0.078199 0.123826
C48   C     C_R   0.501917 0.503037 0.921781 0.130467
C49   C     C_R   0.347628 0.421396 0.827411 0.117033
C50   C     C_R   0.376819 0.366941 0.877319 -0.120740
C51   C     C_R   0.301378 0.328043 0.908664 -0.162770
C52   C     C_R   0.196474 0.343285 0.890580 -0.126128
C53   C     C_R   0.166838 0.397127 0.840589 -0.148768
C54   C     C_R   0.242057 0.435936 0.808781 -0.165680
H23   H     H_    0.457806 0.354354 0.891489 0.123707
H24   H     H_    0.324323 0.285773 0.946538 0.125896
H25   H     H_    0.138166 0.313106 0.914937 0.121874
H26   H     H_    0.085569 0.408641 0.826261 0.122096
H27   H     H_    0.218162 0.477512 0.770080 0.114187
C55   C     C_R   0.641635 0.588895 0.172911 0.111931
C56   C     C_R   0.748669 0.581078 0.192382 -0.168425
C57   C     C_R   0.818554 0.625664 0.162242 -0.131697
C58   C     C_R   0.782066 0.678635 0.113113 -0.120062
C59   C     C_R   0.675631 0.687183 0.094169 -0.143048
C60   C     C_R   0.605546 0.642504 0.123830 -0.112239
H28   H     H_    0.777872 0.540290 0.230499 0.112942
H29   H     H_    0.900978 0.619253 0.177119 0.119594
H30   H     H_    0.836214 0.713220 0.089951 0.118230
H31   H     H_    0.647348 0.728622 0.056729 0.128611
H32   H     H_    0.523274 0.650175 0.109251 0.119550
C61   C     C_3   0.654622 0.587879 0.844385 -0.420580
C62   C     C_3   0.604515 0.655770 0.864660 -0.313032
C63   C     C_3   0.686326 0.708380 0.893751 -0.877293
H33   H     H_    0.736229 0.686488 0.941985 0.261672
H34   H     H_    0.735414 0.723012 0.849490 0.250262
H35   H     H_    0.647850 0.755647 0.911372 0.237818
H36   H     H_    0.558363 0.678322 0.814880 0.215855
H37   H     H_    0.551799 0.645810 0.907955 0.225570
H38   H     H_    0.692334 0.561698 0.895019 0.205294
H39   H     H_    0.717669 0.599941 0.809258 0.184297
C64   C     C_3   0.349881 0.409759 0.155475 -0.426552
C65   C     C_3   0.384742 0.334301 0.167238 -0.332603
C66   C     C_3   0.301860 0.284486 0.133444 -0.868974
H40   H     H_    0.230822 0.288713 0.162137 0.253199
H41   H     H_    0.282160 0.296175 0.073491 0.254500
H42   H     H_    0.331005 0.230585 0.139876 0.241210
H43   H     H_    0.457203 0.326371 0.140944 0.220232
H44   H     H_    0.400760 0.321967 0.227472 0.212105
H45   H     H_    0.272941 0.416887 0.175892 0.187823
H46   H     H_    0.339367 0.421260 0.095074 0.220747
C67   C     C_R   0.310179 0.717280 0.474303 0.081175
C68   C     C_R   0.280862 0.683409 0.407230 -0.138144
C69   C     C_R   0.179946 0.658230 0.391531 -0.137023
C70   C     C_R   0.108052 0.666231 0.442826 -0.088090
C71   C     C_R   0.137066 0.699210 0.510033 -0.142462
C72   C     C_R   0.237618 0.725132 0.525613 -0.154813
H47   H     H_    0.335455 0.677690 0.366623 0.137603
H48   H     H_    0.157432 0.632532 0.339577 0.126544
H49   H     H_    0.030018 0.646593 0.430642 0.134222
H50   H     H_    0.081418 0.705098 0.549814 0.125987
H51   H     H_    0.258907 0.751455 0.577425 0.123261
C73   C     C_R   0.358363 0.280375 0.582348 0.117171
C74   C     C_R   0.354489 0.267609 0.658466 -0.159848
C75   C     C_R   0.270297 0.290673 0.693258 -0.145008
C76   C     C_R   0.189254 0.326255 0.652373 -0.123226
C77   C     C_R   0.192194 0.338628 0.576544 -0.140987
C78   C     C_R   0.276665 0.316267 0.541602 -0.144389
H52   H     H_    0.416137 0.239304 0.690597 0.124427
H53   H     H_    0.267354 0.280208 0.751727 0.155093
H54   H     H_    0.123699 0.343604 0.679241 0.133570
H55   H     H_    0.128175 0.364534 0.544566 0.148462
H56   H     H_    0.277079 0.325278 0.482524 0.107064
C79   C     C_3   0.596211 0.927282 0.643213 -0.409894
C80   C     C_3   0.502632 0.899457 0.679353 -0.328430
C81   C     C_3   0.536895 0.860573 0.751674 -0.862953
H57   H     H_    0.585707 0.815519 0.740873 0.259440
H58   H     H_    0.581554 0.895343 0.791684 0.250753
H59   H     H_    0.467755 0.841407 0.776790 0.237804
H60   H     H_    0.452028 0.943282 0.691231 0.212243
H61   H     H_    0.456437 0.863664 0.641503 0.227135
H62   H     H_    0.650952 0.884844 0.635253 0.196363
H63   H     H_    0.639299 0.963783 0.682271 0.187091
C82   C     C_3   0.456685 0.071462 0.363411 -0.411394
C83   C     C_3   0.346845 0.099677 0.365819 -0.323964
C84   C     C_3   0.309679 0.138997 0.294339 -0.863650
H64   H     H_    0.361051 0.184023 0.286771 0.258665
H65   H     H_    0.309163 0.104527 0.245783 0.250300
H66   H     H_    0.229810 0.158250 0.297295 0.241348
H67   H     H_    0.292893 0.056012 0.373341 0.213435
H68   H     H_    0.344412 0.135286 0.413026 0.230713
H69   H     H_    0.510216 0.113473 0.350171 0.197299
H70   H     H_    0.454924 0.034626 0.316680 0.186780

loop_
_geom_bond_atom_site_label_1
_geom_bond_atom_site_label_2
_geom_bond_distance
_ccdc_geom_bond_type
C34   C36   1.408458 A    
C40   C42   1.410808 A    
C53   C54   1.398402 A    
C37   C39   1.420339 A    
C6    C11   1.400777 A    
C7    H5    1.083806 S    
C61   C62   1.534012 S    
C56   C57   1.398267 A    
C11   H2    1.084660 S    
C70   C71   1.397434 A    
C58   C59   1.397590 A    
C21   H9    1.083113 S    
C62   H37   1.110615 S    
C51   C52   1.397845 A    
O5    C3    1.285818 A    
C68   C69   1.398016 A    
C67   C68   1.404205 A    
C44   H20   1.082837 S    
C49   C50   1.404730 A    
O1    C1    1.288898 A    
C68   H47   1.083012 S    
C61   H38   1.109080 S    
C52   H25   1.082382 S    
C81   H58   1.110783 S    
C46   H22   1.082879 S    
C33   H15   1.082345 S    
C41   N1    1.360000 A    
C62   C63   1.525690 S    
C34   H16   1.082703 S    
C59   H31   1.081980 S    
C65   C66   1.525732 S    
C27   C79   1.516697 S    
C3    C6    1.454155 S    
O4    Cu1   1.938343 S    
C35   C37   1.419096 A    
C69   H48   1.082306 S    
C36   C38   1.419080 A    
C17   H7    1.084547 S    
C19   C32   1.467562 S    
C67   C72   1.404119 A    
C5    C12   1.400569 A    
C20   C31   1.468309 S    
C79   C80   1.534492 S    
C24   H12   1.083644 S    
C39   C41   1.410574 A    
C12   H1    1.084735 S    
C28   C30   1.398710 A    
C63   H33   1.110185 S    
C84   H65   1.110781 S    
C8    H6    1.083922 S    
Cu1   Cu2   2.659695 S    
C79   H62   1.108742 S    
C22   C24   1.391371 A    
C18   H8    1.084639 S    
C58   H30   1.082294 S    
C83   H68   1.108852 S    
C22   H10   1.083146 S    
C60   H32   1.082777 S    
C15   C25   1.409913 A    
C57   H29   1.082357 S    
C82   C83   1.534421 S    
C16   C26   1.414054 A    
O2    C2    1.285791 A    
C80   H61   1.109302 S    
C39   C61   1.514075 S    
C30   H14   1.084559 S    
C62   H36   1.112369 S    
C45   H21   1.082898 S    
C28   C82   1.517522 S    
C5    C10   1.403203 A    
C1    C26   1.463378 S    
C7    C14   1.399321 A    
C64   H45   1.112328 S    
C40   C64   1.514702 S    
C37   C48   1.502412 S    
C8    C13   1.399236 A    
C61   H39   1.112777 S    
C50   C51   1.397434 A    
O4    C2    1.286177 A    
C2    C25   1.454508 S    
C66   H42   1.110451 S    
C82   H69   1.108138 S    
C16   C73   1.479993 S    
C56   H28   1.083347 S    
C18   C20   1.399355 A    
C21   C23   1.391862 A    
Cu1   N1    1.998673 S    
C29   C31   1.401833 A    
C27   C29   1.400365 A    
C17   C19   1.400920 A    
C42   N2    1.359633 A    
C41   H17   1.082294 S    
C16   C18   1.399776 A    
C82   H70   1.112526 S    
O7    Cu2   1.964044 S    
C36   C55   1.479761 S    
C70   H49   1.082261 S    
C73   C78   1.405049 A    
C79   H63   1.112482 S    
C33   N1    1.359924 A    
O7    C3    1.288085 A    
C76   H54   1.082225 S    
C46   C48   1.406717 A    
C84   H64   1.111173 S    
C4    C5    1.456268 S    
C45   C47   1.405620 A    
O6    C4    1.286601 A    
C57   C58   1.397743 A    
C15   C17   1.398548 A    
C84   H66   1.110354 S    
C77   C78   1.397695 A    
C9    H4    1.083135 S    
C23   H11   1.083801 S    
O3    Cu2   1.938344 S    
O8    C4    1.288257 A    
C78   H56   1.083228 S    
C83   H67   1.111798 S    
C72   H51   1.083212 S    
C11   C13   1.388370 A    
C35   C49   1.479019 S    
C83   C84   1.526376 S    
C63   H35   1.110426 S    
C12   C14   1.388285 A    
C81   H59   1.110370 S    
O1    Cu1   1.944083 S    
C50   H23   1.083082 S    
C43   H19   1.082815 S    
C44   C47   1.406484 A    
C69   C70   1.397826 A    
C43   C48   1.406687 A    
C76   C77   1.396586 A    
C15   C67   1.478069 S    
C71   C72   1.398548 A    
C65   H44   1.111854 S    
C54   H27   1.083462 S    
O6    Cu2   1.957471 S    
C64   H46   1.108145 S    
C52   C53   1.398058 A    
Cu2   N2    1.998671 S    
C73   C74   1.404621 A    
O3    C1    1.287639 A    
O8    Cu1   1.964041 S    
C77   H55   1.081029 S    
C51   H24   1.081768 S    
C33   C35   1.408832 A    
C10   H3    1.083215 S    
C27   C32   1.413961 A    
C74   C75   1.397596 A    
C44   C46   1.405170 A    
C66   H40   1.111044 S    
C28   C31   1.415123 A    
C75   H53   1.081020 S    
C66   H41   1.109472 S    
C19   C21   1.398813 A    
C24   C26   1.403067 A    
C81   H57   1.111197 S    
C20   C22   1.397635 A    
C34   N2    1.359195 A    
C64   C65   1.534518 S    
C63   H34   1.110803 S    
C55   C60   1.404819 A    
C6    C9    1.402571 A    
C7    C9    1.389457 A    
C49   C54   1.404557 A    
C8    C10   1.390390 A    
C80   C81   1.526673 S    
C55   C56   1.404816 A    
O2    Cu2   1.944083 S    
C38   C47   1.500768 S    
C75   C76   1.397279 A    
C13   C14   1.412957 A    
C71   H50   1.082296 S    
C30   C32   1.400759 A    
O5    Cu1   1.957472 S    
C42   H18   1.082570 S    
C59   C60   1.397243 A    
C80   H60   1.111820 S    
C43   C45   1.405266 A    
C65   H43   1.112134 S    
C29   H13   1.084422 S    
C53   H26   1.082463 S    
C23   C25   1.400351 A    
C74   H52   1.083046 S    
C38   C40   1.420916 A    
