data_mof_unit_5523.cif
_audit_creation_date              2013-03-05T15:47:46-0500
_audit_creation_method            fapswitch 2.2
_symmetry_space_group_name_H-M    P1
_symmetry_Int_Tables_number       1
_space_group_crystal_system       triclinic
_cell_length_a                    10.860905
_cell_length_b                    12.989964
_cell_length_c                    11.713358
_cell_angle_alpha                 100.606288
_cell_angle_beta                  95.880969
_cell_angle_gamma                 91.513919
_cell_volume                      1614.03686861

loop_
_atom_site_label
_atom_site_type_symbol
_atom_site_description
_atom_site_fract_x
_atom_site_fract_y
_atom_site_fract_z
_atom_type_partial_charge
O1    O     O_R   0.506570 0.354460 0.582000 -0.605277
O2    O     O_R   0.493430 0.645540 0.418000 -0.605272
O3    O     O_R   0.490940 0.341410 0.386200 -0.552092
O4    O     O_R   0.509060 0.658590 0.613800 -0.552160
C1    C     C_R   0.498949 0.298922 0.478097 0.820457
C2    C     C_R   0.501077 0.701078 0.521907 0.820495
O5    O     O_R   0.327470 0.506520 0.597900 -0.587625
O6    O     O_R   0.672530 0.493480 0.402100 -0.587647
O7    O     O_R   0.311840 0.493460 0.402100 -0.552419
O8    O     O_R   0.688160 0.506540 0.597900 -0.552314
C3    C     C_R   0.262316 0.510513 0.498912 0.811620
C4    C     C_R   0.737689 0.489502 0.501089 0.811643
Cu1   Cu    Cu3+1 0.509250 0.507730 0.615930 1.001750
Cu2   Cu    Cu3+1 0.490750 0.492270 0.384070 1.001783
C5    C     C_R   0.142327 0.613168 0.701052 -0.206261
C6    C     C_R   0.857694 0.386903 0.298936 -0.206242
C7    C     C_R   0.097452 0.627553 0.809666 -0.179280
C8    C     C_R   0.902561 0.372563 0.190318 -0.179267
C9    C     C_R   0.985766 0.577504 0.822738 0.445029
C10   C     C_R   0.014235 0.422638 0.177258 0.445108
C11   C     C_R   0.915839 0.519512 0.723069 -0.144808
C12   C     C_R   0.084165 0.480603 0.276941 -0.144817
C13   C     C_R   0.952827 0.515689 0.609785 0.017195
C14   C     C_R   0.047181 0.484384 0.390220 0.017195
C15   C     C_R   0.074877 0.550385 0.601643 0.077534
C16   C     C_R   0.925136 0.449677 0.398357 0.077506
C17   C     C_R   0.873468 0.477349 0.505146 -0.174724
C18   C     C_R   0.126544 0.522699 0.494858 -0.174724
H1    H     H_    0.229250 0.653516 0.695086 0.163265
H2    H     H_    0.770784 0.346532 0.304891 0.163296
H3    H     H_    0.152070 0.675411 0.884005 0.188858
H4    H     H_    0.847946 0.324717 0.115967 0.188862
H5    H     H_    0.834560 0.475646 0.736210 0.198027
H6    H     H_    0.165449 0.524477 0.263822 0.197988
C19   C     C_R   0.498056 0.814580 0.534247 -0.052947
C20   C     C_R   0.502031 0.185424 0.465776 -0.052934
C21   C     C_R   0.543326 0.016100 0.354572 -0.175023
C22   C     C_R   0.456846 0.983913 0.645486 -0.175025
C23   C     C_R   0.536079 0.123988 0.363423 -0.128265
C24   C     C_R   0.464102 0.876026 0.636640 -0.128398
C25   C     C_R   0.475369 0.138553 0.559544 -0.234402
C26   C     C_R   0.524714 0.861449 0.440478 -0.234370
C27   C     C_R   0.482939 0.030859 0.551690 0.157285
C28   C     C_R   0.517185 0.969148 0.448349 0.157273
H7    H     H_    0.551193 0.814154 0.361186 0.149485
H8    H     H_    0.448857 0.185844 0.638823 0.149486
H9    H     H_    0.440506 0.840446 0.708613 0.186460
H10   H     H_    0.559760 0.159577 0.291487 0.186578
H11   H     H_    0.570240 0.969628 0.275091 0.156910
H12   H     H_    0.429974 0.030390 0.724984 0.156878
N1    N     N_R   0.523180 0.519350 0.790130 -0.247336
N2    N     N_R   0.476820 0.480650 0.209870 -0.247388
C29   C     C_R   0.419569 0.378560 0.013994 -0.254833
C30   C     C_R   0.580412 0.621434 0.986015 -0.254735
C31   C     C_R   0.421600 0.391611 0.136432 0.538639
C32   C     C_R   0.578382 0.608402 0.863578 0.538440
C33   C     C_R   0.529942 0.556239 0.160451 0.002952
C34   C     C_R   0.470056 0.443756 0.839547 0.002975
C35   C     C_R   0.527785 0.544925 0.037011 0.003917
C36   C     C_R   0.472201 0.455066 0.962989 0.003999
H13   H     H_    0.424166 0.375089 0.783343 0.144160
H14   H     H_    0.575838 0.624904 0.216653 0.144162
H15   H     H_    0.375542 0.308324 0.958802 0.180202
H16   H     H_    0.624448 0.691657 0.041226 0.180376
N3    N     N_R   0.058464 0.412203 0.064087 0.158483
O9    O     O_R   0.002816 0.346822 0.974928 -0.338861
O10   O     O_R   0.155567 0.467056 0.049289 -0.371471
N4    N     N_R   0.941531 0.587981 0.935909 0.158488
O11   O     O_R   0.997178 0.653384 0.025050 -0.338806
O12   O     O_R   0.844431 0.533136 0.950730 -0.371482
N5    N     N_R   0.633131 0.692481 0.819415 0.131460
O13   O     O_R   0.611132 0.788773 0.863867 -0.390413
O14   O     O_R   0.726256 0.676022 0.758348 -0.337774
N6    N     N_R   0.366882 0.307551 0.180624 0.131636
O15   O     O_R   0.389423 0.211296 0.136640 -0.390576
O16   O     O_R   0.273452 0.323901 0.241298 -0.337889

loop_
_geom_bond_atom_site_label_1
_geom_bond_atom_site_label_2
_geom_bond_distance
_ccdc_geom_bond_type
C24   H9    1.082348 S    
O7    Cu2   1.976121 S    
C33   H14   1.081921 S    
C15   C18   1.413382 A    
O5    C3    1.305281 A    
C16   C17   1.413418 A    
N6    O16   1.297496 A    
O1    C1    1.288998 A    
C9    C11   1.404121 A    
C14   C16   1.406942 A    
C5    C15   1.414807 A    
C11   H5    1.077599 S    
C34   C36   1.423911 A    
C1    C20   1.456328 S    
C2    C19   1.456313 S    
N1    C32   1.388908 A    
O4    Cu1   1.964462 S    
C19   C26   1.401036 A    
Cu1   N1    2.007819 S    
C31   N6    1.431878 S    
Cu2   N2    2.007819 S    
N4    O11   1.301644 A    
N3    O10   1.301244 A    
C25   H8    1.084789 S    
C13   C17   1.424548 A    
N2    C31   1.388806 A    
C34   H13   1.081919 S    
C35   C36   1.400590 A    
Cu1   Cu2   2.672425 S    
C25   C27   1.390147 A    
C20   C25   1.401047 A    
O2    C2    1.289024 A    
C26   C28   1.390146 A    
C29   C36   1.389213 A    
C5    H1    1.082442 S    
C30   C35   1.389142 A    
C29   C31   1.410623 A    
C6    C16   1.414817 A    
C12   H6    1.077613 S    
C30   C32   1.410632 A    
N6    O15   1.301388 A    
C4    C17   1.484106 S    
C10   N3    1.440194 S    
O4    C2    1.293378 A    
N5    O14   1.297582 A    
C26   H7    1.084797 S    
C27   C28   1.413160 A    
C21   H11   1.083887 S    
O5    Cu1   1.963258 S    
O6    C4    1.305281 A    
C32   N5    1.432031 S    
C9    N4    1.440192 S    
N1    C34   1.371110 A    
O7    C3    1.289634 A    
O3    Cu2   1.964465 S    
O8    C4    1.289637 A    
N4    O12   1.301240 A    
C10   C12   1.404121 A    
C11   C13   1.417972 A    
C7    H3    1.082585 S    
C12   C14   1.417961 A    
C8    H4    1.082586 S    
C5    C7    1.391190 A    
O6    Cu2   1.963259 S    
C20   C23   1.401868 A    
C14   C18   1.424502 A    
O3    C1    1.293409 A    
O8    Cu1   1.976121 S    
C22   H12   1.083899 S    
C21   C28   1.400187 A    
C19   C24   1.401907 A    
N5    O13   1.301655 A    
C21   C23   1.391059 A    
C22   C24   1.391063 A    
C29   H15   1.084189 S    
C30   H16   1.084192 S    
C3    C18   1.484096 S    
C7    C9    1.396623 A    
C8    C10   1.396628 A    
C13   C15   1.406956 A    
O2    Cu2   1.956028 S    
C33   C35   1.423879 A    
N2    C33   1.371061 A    
C22   C27   1.400202 A    
O1    Cu1   1.956031 S    
C6    C8    1.391202 A    
N3    O9    1.301643 A    
C6    H2    1.082439 S    
C23   H10   1.082304 S    
