data_mof_unit_68524.cif
_audit_creation_date              2012-12-11T19:24:52-0500
_audit_creation_method            fapswitch 2.2
_symmetry_space_group_name_H-M    P1
_symmetry_Int_Tables_number       1
_space_group_crystal_system       triclinic
_cell_length_a                    19.460429
_cell_length_b                    23.101936
_cell_length_c                    8.556902
_cell_angle_alpha                 89.863501
_cell_angle_beta                  103.50475
_cell_angle_gamma                 89.969137
_cell_volume                      3740.57792855

loop_
_atom_site_label
_atom_site_type_symbol
_atom_type_description
_atom_site_fract_x
_atom_site_fract_y
_atom_site_fract_z
_atom_type_partial_charge
Ba1   Ba    Ba6+2 0.999900 0.457470 0.844900 1.715686
Ba2   Ba    Ba6+2 0.999900 0.542530 0.344900 1.717282
Ba3   Ba    Ba6+2 0.499900 0.957470 0.844900 1.715734
Ba4   Ba    Ba6+2 0.499900 0.042530 0.344900 1.717282
C1    C     C_3   0.985223 0.166640 0.477102 -0.223763
C2    C     C_R   0.782723 0.677645 0.530525 -0.081317
C3    C     C_1   0.813361 0.052061 0.992486 0.336874
C4    C     C_1   0.688461 0.568587 0.699919 0.308277
C5    C     C_1   0.690827 0.427088 0.207618 0.259703
C6    C     C_1   0.188447 0.068594 0.699917 0.308337
C7    C     C_1   0.190821 0.927091 0.207618 0.259732
C8    C     C_1   0.715583 0.628385 0.924330 0.144066
C9    C     C_1   0.725484 0.371717 0.443166 0.239460
C10   C     C_1   0.215588 0.128385 0.924343 0.144066
C11   C     C_1   0.225477 0.871719 0.443165 0.239468
C12   C     C_1   0.030374 0.147488 0.372875 0.235376
C13   C     C_R   0.284209 0.821720 0.033514 -0.077170
C14   C     C_1   0.093854 0.789735 0.185382 0.310535
C15   C     C_1   0.530419 0.647475 0.373213 0.235193
C16   C     C_1   0.593860 0.289736 0.185369 0.310539
C17   C     C_1   0.712590 0.380860 0.804110 0.374194
C18   C     C_1   0.717687 0.619559 0.293813 0.397446
C19   C     C_1   0.212590 0.880864 0.804120 0.374189
C20   C     C_1   0.217680 0.119562 0.293829 0.397387
C21   C     C_1   0.294909 0.615011 0.370072 0.310704
C22   C     C_1   0.294525 0.382673 0.865004 0.318361
C23   C     C_1   0.794887 0.115014 0.370116 0.310684
C24   C     C_R   0.282727 0.177647 0.530533 -0.081315
C25   C     C_1   0.794541 0.882674 0.864951 0.318398
C26   C     C_1   0.988888 0.124008 0.606337 0.337836
C27   C     C_1   0.013515 0.869450 0.120337 0.340118
C28   C     C_1   0.488820 0.624023 0.606545 0.337873
C29   C     C_1   0.513518 0.369449 0.120327 0.340114
C30   C     C_R   0.735783 0.327160 0.881956 -0.051117
C31   C     C_R   0.735599 0.672733 0.377677 -0.039548
C32   C     C_R   0.235777 0.827164 0.881973 -0.051110
C33   C     C_R   0.235603 0.172736 0.377684 -0.039597
C34   C     C_R   0.192676 0.781437 0.815315 -0.103792
C35   C     C_R   0.191024 0.217936 0.312344 -0.087943
C36   C     C_R   0.692686 0.281431 0.815295 -0.103789
C37   C     C_3   0.041667 0.817653 0.057708 -0.213903
C38   C     C_R   0.691008 0.717927 0.312345 -0.087925
C39   C     C_R   0.838466 0.363748 0.098894 0.040723
C40   C     C_R   0.837558 0.635968 0.596145 0.046947
C41   C     C_R   0.338468 0.863747 0.098902 0.040746
C42   C     C_R   0.337559 0.135967 0.596153 0.046981
C43   C     C_R   0.881233 0.353309 0.253845 -0.215450
C44   C     C_R   0.879565 0.645938 0.750995 -0.210936
C45   C     C_R   0.381239 0.853304 0.253851 -0.215551
C46   C     C_R   0.379564 0.145935 0.751005 -0.210951
C47   C     C_R   0.164963 0.633791 0.086748 0.007691
C48   C     C_3   0.485228 0.666649 0.477320 -0.223783
C49   C     C_R   0.163001 0.365530 0.584898 0.001965
C50   C     C_R   0.664968 0.133789 0.086741 0.007681
C51   C     C_R   0.662992 0.865526 0.584894 0.001968
C52   C     C_R   0.220135 0.675042 0.150820 -0.046622
C53   C     C_R   0.216973 0.323310 0.649454 -0.056106
C54   C     C_R   0.720140 0.175040 0.150811 -0.046616
C55   C     C_R   0.716966 0.823307 0.649444 -0.056130
C56   C     C_R   0.227305 0.725870 0.059628 0.035280
C57   C     C_R   0.223750 0.272435 0.558425 0.030525
C58   C     C_R   0.727313 0.225866 0.059611 0.035267
C59   C     C_3   0.541670 0.317652 0.057698 -0.213903
C60   C     C_R   0.723739 0.772430 0.558420 0.030532
C61   C     C_R   0.267719 0.669499 0.302776 -0.048518
C62   C     C_R   0.264748 0.328561 0.800959 -0.056293
C63   C     C_R   0.767717 0.169501 0.302775 -0.048573
C64   C     C_R   0.764748 0.828562 0.800940 -0.056281
C65   C     C_3   0.967945 0.249087 0.045679 0.384900
C66   C     C_3   0.976132 0.753896 0.548856 0.369939
C67   C     C_3   0.467987 0.749018 0.046030 0.384970
C68   C     C_3   0.476133 0.253895 0.548860 0.369953
C69   C     C_R   0.807747 0.216464 0.373846 -0.064675
C70   C     C_R   0.185701 0.731606 0.901648 -0.034484
C71   C     C_R   0.803587 0.781118 0.872664 -0.068865
C72   C     C_R   0.307745 0.716463 0.373857 -0.064656
C73   C     C_R   0.303590 0.281117 0.872676 -0.068860
C74   C     C_R   0.816939 0.265618 0.285372 -0.025444
C75   C     C_R   0.812933 0.732119 0.783852 -0.025203
C76   C     C_R   0.316937 0.765619 0.285387 -0.025457
C77   C     C_R   0.312937 0.232119 0.783861 -0.025196
C78   C     C_R   0.777299 0.270670 0.124928 0.011423
C79   C     C_R   0.774097 0.727766 0.623133 0.013925
C80   C     C_R   0.277292 0.770674 0.124946 0.011433
C81   C     C_R   0.182772 0.267102 0.399958 -0.038611
C82   C     C_R   0.274103 0.227768 0.623140 0.013930
C83   C     C_R   0.867034 0.308380 0.352581 -0.031427
C84   C     C_R   0.863005 0.689136 0.850326 -0.031771
C85   C     C_R   0.367038 0.808377 0.352595 -0.031560
C86   C     C_R   0.363007 0.189135 0.850335 -0.031792
C87   C     C_R   0.122422 0.643235 0.931813 -0.268623
C88   C     C_R   0.120390 0.356219 0.429243 -0.269354
C89   C     C_R   0.622430 0.143230 0.931800 -0.268641
C90   C     C_R   0.620373 0.856210 0.429245 -0.269292
C91   C     C_3   0.927827 0.193585 0.988051 -0.340031
C92   C     C_R   0.685711 0.231600 0.901631 -0.034501
C93   C     C_3   0.944320 0.814301 0.524052 -0.349644
C94   C     C_3   0.427883 0.693513 0.988332 -0.340131
C95   C     C_3   0.444321 0.314300 0.524067 -0.349675
C96   C     C_3   0.197295 0.464156 0.292296 0.437659
C97   C     C_3   0.198752 0.534811 0.795311 0.441680
C98   C     C_3   0.697282 0.964150 0.292278 0.437657
C99   C     C_3   0.698759 0.034812 0.795285 0.441718
C100  C     C_3   0.262078 0.424055 0.340097 0.228841
C101  C     C_3   0.264359 0.573719 0.846556 0.235190
C102  C     C_3   0.762055 0.924038 0.340029 0.228839
C103  C     C_R   0.682755 0.767093 0.399960 -0.038586
C104  C     C_3   0.764379 0.073703 0.846612 0.235151
C105  C     C_3   0.786588 0.537062 0.937277 0.626230
C106  C     C_3   0.789212 0.463389 0.439339 0.582862
C107  C     C_3   0.286588 0.037062 0.937259 0.626209
C108  C     C_3   0.289210 0.963389 0.439334 0.582848
C109  C     C_3   0.712946 0.567341 0.874651 0.181788
C110  C     C_3   0.717112 0.430910 0.382619 0.158064
C111  C     C_3   0.212945 0.067342 0.874651 0.181798
C112  C     C_3   0.217107 0.930912 0.382619 0.158064
C113  C     C_3   0.005246 0.227409 0.544543 0.279320
C114  C     C_R   0.784213 0.321718 0.033499 -0.077193
C115  C     C_3   0.983543 0.773808 0.994918 0.265299
C116  C     C_3   0.505265 0.727410 0.544795 0.279367
C117  C     C_3   0.483546 0.273806 0.994916 0.265303
C118  C     C_R   0.134894 0.689283 0.835450 -0.020539
C119  C     C_R   0.132318 0.309612 0.333135 -0.017465
C120  C     C_R   0.634904 0.189277 0.835435 -0.020536
C121  C     C_R   0.632296 0.809599 0.333138 -0.017605
C122  C     C_1   0.312531 0.444448 0.484982 0.334982
C123  C     C_1   0.313386 0.552082 0.992372 0.336892
C124  C     C_1   0.812536 0.944426 0.484876 0.334960
H1    H     H_    0.059985 0.226656 0.621023 0.058327
H2    H     H_    0.818075 0.445809 0.556237 0.063367
H3    H     H_    0.313074 0.055986 0.053982 0.049545
H4    H     H_    0.318073 0.945809 0.556230 0.063359
H5    H     H_    0.005883 0.257898 0.443991 -0.073096
H6    H     H_    0.943310 0.794354 0.897017 -0.015248
H7    H     H_    0.505964 0.757904 0.444293 -0.073080
H8    H     H_    0.443312 0.294351 0.897016 -0.015250
H9    H     H_    0.930822 0.167327 0.402154 0.036664
H10   H     H_    0.067123 0.830532 0.959479 0.029866
H11   H     H_    0.430847 0.667356 0.402271 0.036698
H12   H     H_    0.008138 0.736982 0.943631 -0.040984
H13   H     H_    0.567123 0.330531 0.959464 0.029867
H14   H     H_    0.870230 0.200946 0.972218 0.051596
H15   H     H_    0.887319 0.812449 0.524530 0.050078
H16   H     H_    0.370332 0.700721 0.973818 0.051207
H17   H     H_    0.387319 0.312448 0.524536 0.050088
H18   H     H_    0.159059 0.788221 0.697844 0.138235
H19   H     H_    0.158064 0.211513 0.193853 0.140444
H20   H     H_    0.659071 0.288214 0.697822 0.138249
H21   H     H_    0.658039 0.711500 0.193865 0.140349
H22   H     H_    0.838332 0.210853 0.495616 0.093656
H23   H     H_    0.559985 0.726635 0.621374 0.058453
H24   H     H_    0.833432 0.786510 0.994845 0.102503
H25   H     H_    0.338333 0.710851 0.495623 0.093538
H26   H     H_    0.333433 0.286508 0.994860 0.102509
H27   H     H_    0.923171 0.383407 0.303751 0.100370
H28   H     H_    0.922244 0.616334 0.800826 0.096476
H29   H     H_    0.423177 0.883401 0.303755 0.100368
H30   H     H_    0.422241 0.116329 0.800839 0.096477
H31   H     H_    0.081913 0.612064 0.880959 0.046524
H32   H     H_    0.080277 0.387759 0.377941 0.050675
H33   H     H_    0.581920 0.112060 0.880947 0.046541
H34   H     H_    0.508141 0.236980 0.943631 -0.040979
H35   H     H_    0.580263 0.887751 0.377944 0.050653
H36   H     H_    0.944601 0.283612 0.959076 0.102081
H37   H     H_    0.947666 0.725921 0.449244 0.103823
H38   H     H_    0.444494 0.783590 0.959729 0.101598
H39   H     H_    0.447669 0.225923 0.449242 0.103829
H40   H     H_    0.960008 0.259659 0.166547 -0.088123
H41   H     H_    0.968000 0.736901 0.664587 -0.097390
H42   H     H_    0.460207 0.759475 0.167102 -0.088312
H43   H     H_    0.468000 0.236897 0.664587 -0.097378
H44   H     H_    0.937824 0.179998 0.871370 0.162005
H45   H     H_    0.244552 0.380354 0.366096 -0.111988
H46   H     H_    0.949771 0.832113 0.406958 0.150077
H47   H     H_    0.437408 0.680215 0.870987 0.161728
H48   H     H_    0.449776 0.332116 0.406981 0.150073
H49   H     H_    0.943971 0.158118 0.075998 0.125784
H50   H     H_    0.971698 0.843310 0.622317 0.129778
H51   H     H_    0.444471 0.657900 0.075580 0.126626
H52   H     H_    0.471697 0.343307 0.622342 0.129765
H53   H     H_    0.174721 0.471948 0.397752 -0.092488
H54   H     H_    0.175809 0.526273 0.899979 -0.092876
H55   H     H_    0.674721 0.971941 0.397753 -0.092533
H56   H     H_    0.247527 0.617626 0.872569 -0.119259
H57   H     H_    0.675782 0.026284 0.899909 -0.092947
H58   H     H_    0.157246 0.442095 0.197159 0.025244
H59   H     H_    0.159229 0.558145 0.701472 0.018651
H60   H     H_    0.657221 0.942099 0.197145 0.025309
H61   H     H_    0.659264 0.058154 0.701406 0.018661
H62   H     H_    0.327166 0.385511 0.234322 0.300223
H63   H     H_    0.330758 0.611933 0.743563 0.299051
H64   H     H_    0.827107 0.885474 0.234193 0.300210
H65   H     H_    0.830847 0.111879 0.743738 0.299084
H66   H     H_    0.814819 0.516247 0.746797 0.297779
H67   H     H_    0.744523 0.880342 0.366059 -0.111959
H68   H     H_    0.814319 0.484348 0.245100 0.303779
H69   H     H_    0.314796 0.016234 0.746763 0.297788
H70   H     H_    0.314319 0.984350 0.245100 0.303795
H71   H     H_    0.616142 0.559411 0.906310 0.330751
H72   H     H_    0.642420 0.489408 0.374394 0.357998
H73   H     H_    0.116150 0.059416 0.906367 0.330793
H74   H     H_    0.142423 0.989416 0.374404 0.357992
H75   H     H_    0.747554 0.117619 0.872571 -0.119252
H76   H     H_    0.813062 0.555982 0.054012 0.049562
N1    N     N_1   0.353023 0.460008 0.598528 -0.209942
N2    N     N_1   0.731902 0.325186 0.493732 -0.268302
N3    N     N_1   0.215720 0.176449 0.961671 -0.273853
N4    N     N_1   0.231893 0.825187 0.493731 -0.268311
N5    N     N_1   0.064565 0.131646 0.287788 -0.255442
N6    N     N_1   0.133519 0.765630 0.285370 -0.217623
N7    N     N_1   0.564645 0.631616 0.288223 -0.255687
N8    N     N_1   0.633527 0.265634 0.285355 -0.217633
N9    N     N_1   0.689182 0.422906 0.740174 -0.164789
N10   N     N_1   0.699248 0.577318 0.225398 -0.232564
N11   N     N_1   0.189186 0.922909 0.740176 -0.164795
N12   N     N_1   0.352813 0.535542 0.106661 -0.208703
N13   N     N_1   0.199233 0.077322 0.225418 -0.232557
N14   N     N_1   0.321126 0.572486 0.425157 -0.189913
N15   N     N_1   0.322717 0.424702 0.917628 -0.184829
N16   N     N_1   0.821088 0.072488 0.425237 -0.189883
N17   N     N_1   0.822746 0.924701 0.917550 -0.184826
N18   N     N_1   0.991353 0.090277 0.707683 -0.255235
N19   N     N_1   0.991367 0.910294 0.169548 -0.226212
N20   N     N_1   0.491229 0.590301 0.707890 -0.255189
N21   N     N_1   0.491371 0.410294 0.169538 -0.226212
N22   N     N_1   0.853048 0.959982 0.598394 -0.209937
N23   N     N_1   0.852756 0.035515 0.106817 -0.208674
N24   N     N_1   0.666051 0.571553 0.563110 -0.268203
N25   N     N_1   0.666480 0.424171 0.071499 -0.238367
N26   N     N_1   0.166026 0.071567 0.563112 -0.268322
N27   N     N_1   0.166472 0.924174 0.071499 -0.238362
N28   N     N_1   0.715710 0.676450 0.961651 -0.273865
O1    O     O_2   0.860260 0.414960 0.826400 -0.490773
O2    O     O_3   0.048316 0.756486 0.548345 -0.591312
O3    O     O_3   0.540415 0.742117 0.050916 -0.585630
O4    O     O_3   0.548318 0.256486 0.548355 -0.591315
O5    O     O_3   0.081330 0.529680 0.090830 -0.500634
O6    O     O_3   0.081330 0.470320 0.590830 -0.498548
O7    O     O_3   0.581330 0.029680 0.090830 -0.500630
O8    O     O_3   0.581330 0.970320 0.590830 -0.498568
O9    O     O_3   0.918600 0.470180 0.098890 -0.455428
O10   O     O_3   0.918600 0.529820 0.598890 -0.455627
O11   O     O_3   0.418600 0.970180 0.098890 -0.455450
O12   O     O_2   0.860260 0.585040 0.326400 -0.484942
O13   O     O_3   0.418600 0.029820 0.598890 -0.455617
O14   O     O_3   0.975750 0.362410 0.628650 -0.456553
O15   O     O_3   0.975750 0.637590 0.128650 -0.454826
O16   O     O_3   0.475750 0.862410 0.628650 -0.456511
O17   O     O_3   0.475750 0.137590 0.128650 -0.454838
O18   O     O_2   0.862318 0.315012 0.682113 -0.474811
O19   O     O_2   0.858908 0.684422 0.179779 -0.484231
O20   O     O_2   0.362308 0.815043 0.682128 -0.474647
O21   O     O_2   0.358911 0.184424 0.179790 -0.484226
O22   O     O_3   0.776122 0.477812 0.959454 -0.619884
O23   O     O_2   0.360260 0.914960 0.826400 -0.490720
O24   O     O_3   0.776631 0.522140 0.459107 -0.641616
O25   O     O_3   0.276122 0.977813 0.959465 -0.619886
O26   O     O_3   0.276629 0.022141 0.459103 -0.641623
O27   O     O_3   0.958942 0.243745 0.641607 -0.601721
O28   O     O_3   0.952712 0.755685 0.120951 -0.601035
O29   O     O_3   0.458924 0.743761 0.641746 -0.601634
O30   O     O_3   0.452717 0.255685 0.120953 -0.601030
O31   O     O_2   0.139400 0.414340 0.863230 -0.449544
O32   O     O_2   0.139400 0.585660 0.363230 -0.444482
O33   O     O_2   0.639400 0.914340 0.863230 -0.449484
O34   O     O_2   0.360260 0.085040 0.326400 -0.484942
O35   O     O_2   0.639400 0.085660 0.363230 -0.444522
O36   O     O_3   0.023740 0.362300 0.060930 -0.505949
O37   O     O_3   0.023740 0.637700 0.560930 -0.502102
O38   O     O_3   0.523740 0.862300 0.060930 -0.505846
O39   O     O_3   0.523740 0.137700 0.560930 -0.502108
O40   O     O_2   0.137538 0.314265 0.007157 -0.445543
O41   O     O_2   0.142558 0.680159 0.515378 -0.429118
O42   O     O_2   0.637557 0.814297 0.007206 -0.445492
O43   O     O_2   0.642554 0.180160 0.515354 -0.429142
O44   O     O_3   0.296171 0.420261 0.213813 -0.684983
O45   O     O_3   0.217643 0.482790 0.732264 -0.618967
O46   O     O_3   0.299793 0.577258 0.722554 -0.681484
O47   O     O_3   0.796118 0.920227 0.213698 -0.685010
O48   O     O_3   0.799860 0.077217 0.722688 -0.681452
O49   O     O_3   0.830339 0.544991 0.832524 -0.812103
O50   O     O_3   0.831737 0.456069 0.331545 -0.802419
O51   O     O_3   0.330326 0.044982 0.832475 -0.812106
O52   O     O_3   0.331733 0.956068 0.331537 -0.802419
O53   O     O_3   0.661482 0.537644 0.935068 -0.669015
O54   O     O_3   0.664272 0.457085 0.445730 -0.692062
O55   O     O_3   0.161487 0.037644 0.935083 -0.669005
O56   O     O_3   0.217214 0.516646 0.233205 -0.622379
O57   O     O_3   0.164270 0.957089 0.445733 -0.692064
O58   O     O_3   0.717648 0.982785 0.732267 -0.618945
O59   O     O_3   0.717209 0.016641 0.233204 -0.622402
O60   O     O_3   0.040410 0.242105 0.051105 -0.585816
P1    P     P_3+3 0.853370 0.434890 0.996520 1.023419
P2    P     P_3+3 0.088129 0.690186 0.618343 0.971338
P3    P     P_3+3 0.584635 0.807329 0.115940 0.962621
P4    P     P_3+3 0.588130 0.190185 0.618335 0.971317
P5    P     P_3+3 0.910271 0.689609 0.066932 0.970693
P6    P     P_3+3 0.914155 0.307927 0.571276 0.968638
P7    P     P_3+3 0.410273 0.189610 0.066939 0.970680
P8    P     P_3+3 0.414148 0.807933 0.571307 0.968816
P9    P     P_3+3 0.853370 0.565110 0.496520 1.023411
P10   P     P_3+3 0.353370 0.934890 0.996520 1.023462
P11   P     P_3+3 0.353370 0.065110 0.496520 1.023435
P12   P     P_3+3 0.146350 0.434230 0.693140 0.992653
P13   P     P_3+3 0.146350 0.565770 0.193140 0.992892
P14   P     P_3+3 0.646350 0.934230 0.693140 0.992685
P15   P     P_3+3 0.646350 0.065770 0.193140 0.992876
P16   P     P_3+3 0.084637 0.307330 0.115958 0.962492

loop_
_geom_bond_atom_site_label_1
_geom_bond_atom_site_label_2
_ccdc_geom_bond_type
O27   P6    S    
C51   C55   A    
O20   P8    D    
C113  H5    S    
C26   N18   T    
C19   N11   T    
C64   C71   A    
Ba3   O38   S    
O15   P5    S    
C5    C110  S    
O2    P2    S    
C14   N6    T    
C29   N21   T    
C113  O27   S    
O14   P6    S    
C72   H25   S    
C96   C100  S    
C40   P9    S    
C62   C73   A    
C31   C38   A    
C28   C48   S    
C59   C117  S    
C47   P13   S    
C91   H49   S    
Ba2   O32   S    
C95   H48   S    
Ba1   O1    S    
O18   P6    D    
C87   C118  A    
H66   O49   S    
C39   C43   A    
Ba4   O11   S    
C77   C82   A    
C115  O28   S    
C23   N16   T    
C2    C40   A    
C21   N14   T    
C28   N20   T    
H71   O53   S    
C88   C119  A    
C68   O4    S    
Ba4   P11   S    
O42   P3    D    
C25   C64   S    
C105  O49   S    
C74   C78   A    
C89   H33   S    
C67   H42   S    
C1    H9    S    
C96   H53   S    
C37   H10   S    
C100  H45   S    
C57   C81   A    
O12   P9    D    
C77   C86   A    
C39   P1    S    
Ba3   O16   S    
C78   C114  A    
O8    P14   S    
Ba2   O37   S    
C7    N27   T    
C2    C79   A    
C94   H16   S    
O40   P16   D    
C49   P12   S    
C65   C91   S    
C53   C57   A    
H68   O50   S    
C88   H32   S    
C116  H7    S    
O4    P4    S    
C65   H40   S    
C95   H52   S    
C94   H47   S    
C93   H50   S    
C3    N23   T    
Ba4   O7    S    
C81   C119  A    
C16   N8    T    
C101  H56   S    
C98   H60   S    
C39   C114  A    
C54   C63   A    
C91   H14   S    
C124  N22   T    
C19   C32   S    
C9    N2    T    
Ba2   O9    S    
Ba2   O12   S    
C90   H35   S    
C40   C44   A    
C98   O59   S    
C74   C83   A    
C30   C114  A    
C75   C79   A    
Ba2   P13   S    
C69   H22   S    
C99   H57   S    
C53   C62   A    
C4    N24   T    
C46   H30   S    
Ba4   O35   S    
C24   C42   A    
C115  H12   S    
C12   N5    T    
C66   H41   S    
C13   C41   A    
C73   H26   S    
O28   P5    S    
C122  N1    T    
C105  O22   S    
C6    N26   T    
C48   H11   S    
C108  O52   S    
C42   P11   S    
C34   H18   S    
C108  O26   S    
C13   C32   A    
C67   O3    S    
C113  H1    S    
C91   H44   S    
H73   O55   S    
Ba3   O8    S    
O45   P12   S    
C109  O53   S    
C95   H17   S    
Ba2   P9    S    
Ba1   O31   S    
C101  O46   S    
C45   H29   S    
C46   C86   A    
O58   P14   S    
C115  H6    S    
C101  C123  S    
C22   C62   S    
C50   P15   S    
C103  C121  A    
C66   H37   S    
C111  O55   S    
C110  O54   S    
Ba1   O5    S    
C67   H38   S    
C119  P16   S    
C43   C83   A    
H63   O46   S    
C117  O30   S    
C100  O44   S    
C29   C59   S    
C20   C33   S    
H69   O51   S    
C106  O24   S    
C118  P2    S    
C107  H3    S    
C116  O29   S    
C17   N9    T    
Ba3   Ba4   S    
C108  C112  S    
C1    C26   S    
C34   C70   A    
C90   C121  A    
O35   P15   D    
C116  H23   S    
C27   C37   S    
C22   N15   T    
C107  O51   S    
C105  H76   S    
O33   P14   D    
C11   N4    T    
Ba2   O5    S    
C106  O50   S    
O6    P12   S    
C96   O56   S    
Ba1   P1    S    
C13   C80   A    
O31   P12   D    
C16   C59   S    
C71   C75   A    
C24   C33   A    
O32   P13   D    
C44   H28   S    
O21   P7    D    
C23   C63   S    
Ba1   O10   S    
H64   O47   S    
O16   P8    S    
C102  O47   S    
C97   H59   S    
C68   C95   S    
C54   C58   A    
C58   C92   A    
C65   H36   S    
C76   C80   A    
O22   P1    S    
C25   N17   T    
C61   C72   A    
C15   N7    T    
C98   H55   S    
C97   O45   S    
Ba4   O17   S    
C104  H75   S    
O9    P1    S    
O25   P10   S    
Ba4   O34   S    
C10   C111  S    
C102  C124  S    
C76   C85   A    
C38   H21   S    
C50   C89   A    
C47   C87   A    
C15   C48   S    
C44   C84   A    
Ba1   P12   S    
C63   C69   A    
C38   C103  A    
Ba3   P10   S    
C87   H31   S    
C9    C110  S    
C66   C93   S    
C20   N13   T    
O13   P11   S    
Ba4   O39   S    
C58   C78   A    
C10   N3    T    
C36   C92   A    
C51   C90   A    
C75   C84   A    
C36   H20   S    
C68   H43   S    
C72   C76   A    
C49   C53   A    
C17   C30   S    
C52   C56   A    
C60   C79   A    
C73   C77   A    
Ba4   O8    S    
C37   C115  S    
C7    C112  S    
O37   P2    S    
C121  P3    S    
C4    C109  S    
C99   H61   S    
C70   C118  A    
O59   P15   S    
C93   H46   S    
C83   P6    S    
C102  H67   S    
O26   P11   S    
C65   O60   S    
C32   C34   A    
C33   C35   A    
O7    P15   S    
Ba1   O36   S    
C117  H34   S    
Ba3   P14   S    
O1    P1    D    
C106  H2    S    
C117  H8    S    
O56   P13   S    
C57   C82   A    
H70   O52   S    
O34   P11   D    
C11   C112  S    
Ba3   O13   S    
C94   H51   S    
C107  O25   S    
C85   P8    S    
Ba3   O7    S    
C86   P7    S    
Ba3   O33   S    
C89   C120  A    
Ba2   O15   S    
C18   C31   S    
C55   C60   A    
O19   P5    D    
C30   C36   A    
Ba1   Ba2   S    
Ba1   O14   S    
C123  N12   T    
C52   C61   A    
C112  O57   S    
H72   O54   S    
C5    N25   T    
C47   C52   A    
C66   O2    S    
C93   H15   S    
C1    C12   S    
O38   P3    S    
O10   P9    S    
H74   O57   S    
C69   C74   A    
C99   C104  S    
C41   C45   A    
O60   P16   S    
C105  C109  S    
H65   O48   S    
O36   P16   S    
C8    N28   T    
Ba3   O23   S    
C97   C101  S    
C67   C94   S    
C59   H13   S    
C92   C120  A    
C21   C61   S    
C14   C37   S    
Ba2   O6    S    
C99   O58   S    
C108  H4    S    
C1    C113  S    
C96   H58   S    
C55   C64   A    
C71   H24   S    
C49   C88   A    
O24   P9    S    
C41   P10   S    
C27   N19   T    
C48   C116  S    
O17   P7    S    
O29   P8    S    
O11   P10   S    
O30   P7    S    
C18   N10   T    
C68   H39   S    
C60   C103  A    
C8    C109  S    
C50   C54   A    
C106  C110  S    
C45   C85   A    
C107  C111  S    
Ba1   O6    S    
C2    C31   A    
C42   C46   A    
O23   P10   D    
C120  P4    S    
C24   C82   A    
C56   C80   A    
C43   H27   S    
C56   C70   A    
C98   C102  S    
O41   P2    D    
C51   P14   S    
O3    P3    S    
O39   P4    S    
O43   P4    D    
C6    C111  S    
Ba4   P15   S    
O5    P13   S    
C100  C122  S    
C35   H19   S    
C35   C81   A    
C3    C104  S    
H62   O44   S    
C84   P5    S    
C104  O48   S    
C97   H54   S    
