data_mof_unit_53983.cif
_audit_creation_date              2012-10-26T20:21:30-0400
_audit_creation_method            fapswitch 2.2
_symmetry_space_group_name_H-M    P1
_symmetry_Int_Tables_number       1
_space_group_crystal_system       triclinic
_cell_length_a                    10.934965
_cell_length_b                    9.65804
_cell_length_c                    11.64875
_cell_angle_alpha                 90.331074
_cell_angle_beta                  93.553397
_cell_angle_gamma                 89.932526
_cell_volume                      1227.84226159

loop_
_atom_site_label
_atom_site_type_symbol
_atom_type_description
_atom_site_fract_x
_atom_site_fract_y
_atom_site_fract_z
_atom_type_partial_charge
C1    C     C_R   0.262518 0.500609 0.497082 0.552702
C2    C     C_R   0.937266 0.628924 0.502189 0.197663
C3    C     C_R   0.938753 0.377804 0.496786 0.201523
C4    C     C_R   0.065223 0.627432 0.516576 0.188593
C5    C     C_R   0.872416 0.502247 0.501227 -0.079972
C6    C     C_R   0.128593 0.503499 0.494619 -0.091243
C7    C     C_R   0.431536 0.072136 0.418753 0.356170
C8    C     C_R   0.581514 0.926402 0.571779 0.303801
C9    C     C_R   0.570803 0.074484 0.580583 0.333362
C10   C     C_R   0.417709 0.925490 0.430034 0.322337
C11   C     C_3   0.095345 0.273832 0.302628 0.026558
C12   C     C_R   0.737872 0.500314 0.501416 0.559365
C13   C     C_3   0.983345 0.190257 0.259874 -0.386470
C14   C     C_3   0.888470 0.806358 0.380273 0.023514
C15   C     C_3   0.782104 0.903184 0.347330 -0.358823
C16   C     C_3   0.934323 0.203877 0.627084 0.015942
C17   C     C_3   0.969322 0.052919 0.617385 -0.321958
C18   C     C_3   0.153425 0.751338 0.665810 0.031276
C19   C     C_3   0.249292 0.861896 0.696853 -0.347068
C20   C     C_3   0.449883 0.118607 0.229555 -0.002230
C21   C     C_3   0.383463 0.173665 0.120310 -0.384267
C22   C     C_3   0.686329 0.803562 0.720392 0.062068
C23   C     C_R   0.500291 0.499950 0.284391 0.512608
C24   C     C_3   0.792511 0.853178 0.800831 -0.418398
C25   C     C_3   0.596328 0.138643 0.770096 0.002001
C26   C     C_3   0.675184 0.224578 0.856393 -0.374911
C27   C     C_3   0.303809 0.807735 0.283838 0.066916
C28   C     C_3   0.198775 0.868878 0.208584 -0.397773
C29   C     C_R   0.497964 0.500599 0.715487 0.504126
C30   C     C_1   0.499939 0.500992 0.162597 -0.058428
C31   C     C_1   0.496097 0.502650 0.837180 -0.064137
C32   C     C_1   0.498506 0.502686 0.059853 -0.074040
C33   C     C_1   0.496484 0.503518 0.939881 -0.073353
C34   C     C_R   0.061421 0.382027 0.471230 0.208802
Cu1   Cu    Cu3+1 0.500000 0.640660 0.500000 0.972241
Cu2   Cu    Cu3+1 0.500000 0.359340 0.500000 1.039831
H1    H     H_    0.175592 0.227916 0.264044 0.195942
H2    H     H_    0.693998 0.846373 0.348386 0.180708
H3    H     H_    0.863695 0.215166 0.690439 0.177173
H4    H     H_    0.016972 0.260349 0.664247 0.092293
H5    H     H_    0.037615 0.039470 0.551566 0.216141
H6    H     H_    0.008514 0.016321 0.701934 0.066413
H7    H     H_    0.887203 0.991239 0.592249 0.246136
H8    H     H_    0.190591 0.650625 0.699153 0.104380
H9    H     H_    0.069159 0.775755 0.710091 0.115891
H10   H     H_    0.222718 0.962503 0.657261 0.158332
H11   H     H_    0.259537 0.875098 0.791716 0.060708
H12   H     H_    0.088313 0.381594 0.268295 0.073866
H13   H     H_    0.338934 0.830230 0.665961 0.185378
H14   H     H_    0.473480 0.009187 0.214010 0.076184
H15   H     H_    0.539230 0.172479 0.243620 0.154802
H16   H     H_    0.344440 0.277563 0.136000 0.159275
H17   H     H_    0.448261 0.180843 0.050939 0.099495
H18   H     H_    0.307891 0.103273 0.090665 0.115809
H19   H     H_    0.701957 0.690953 0.710531 0.178156
H20   H     H_    0.597877 0.818070 0.761253 0.098906
H21   H     H_    0.804472 0.966301 0.794786 0.169727
H22   H     H_    0.775885 0.825419 0.890908 0.086770
H23   H     H_    0.898021 0.239984 0.286464 0.172548
H24   H     H_    0.878518 0.802827 0.777193 0.132204
H25   H     H_    0.594302 0.032606 0.803355 0.092676
H26   H     H_    0.500027 0.175799 0.768245 0.142973
H27   H     H_    0.692850 0.328531 0.821122 0.163203
H28   H     H_    0.628366 0.235772 0.937756 0.102635
H29   H     H_    0.764891 0.173876 0.876271 0.105303
H30   H     H_    0.284592 0.695427 0.290332 0.160477
H31   H     H_    0.390807 0.816708 0.240564 0.104428
H32   H     H_    0.195647 0.982691 0.219130 0.186920
H33   H     H_    0.210348 0.842871 0.116902 0.079768
H34   H     H_    0.979000 0.183820 0.164499 0.070969
H35   H     H_    0.110368 0.825383 0.233128 0.117603
H36   H     H_    0.990108 0.084120 0.295083 0.163693
H37   H     H_    0.888216 0.723199 0.313069 0.092583
H38   H     H_    0.975370 0.865387 0.379343 0.168014
H39   H     H_    0.781045 0.992388 0.407689 0.190540
H40   H     H_    0.791518 0.943241 0.259162 0.060042
N1    N     N_R   0.500000 0.852070 0.500000 -0.293890
N2    N     N_R   0.500000 0.147930 0.500000 -0.262764
O1    O     O_R   0.319640 0.618740 0.499990 -0.439005
O2    O     O_3   0.876143 0.753959 0.492198 -0.491619
O3    O     O_3   0.885991 0.251645 0.518433 -0.515362
O4    O     O_3   0.126737 0.749121 0.545355 -0.489204
O5    O     O_3   0.375747 0.137516 0.324563 -0.525723
O6    O     O_3   0.691444 0.866189 0.611410 -0.501103
O7    O     O_3   0.645693 0.145711 0.660439 -0.515321
O8    O     O_3   0.305491 0.866780 0.395249 -0.486034
O9    O     O_R   0.680360 0.381260 0.500010 -0.432916
O10   O     O_R   0.680360 0.618740 0.500010 -0.435944
O11   O     O_R   0.319640 0.381260 0.499990 -0.442049
O12   O     O_R   0.500010 0.618790 0.337200 -0.535258
O13   O     O_R   0.499990 0.381210 0.662800 -0.482847
O14   O     O_R   0.499990 0.618790 0.662800 -0.541895
O15   O     O_R   0.500010 0.381210 0.337200 -0.477159
O16   O     O_3   0.114030 0.266427 0.424169 -0.499304

loop_
_geom_bond_atom_site_label_1
_geom_bond_atom_site_label_2
_ccdc_geom_bond_type
Cu2   O11   S    
C8    C9    A    
C7    C10   A    
C15   H39   S    
C7    O5    S    
C28   H33   S    
C19   H10   S    
C14   H38   S    
C28   H32   S    
C20   H15   S    
C21   H18   S    
C19   H11   S    
C13   H34   S    
C18   C19   S    
C11   H1    S    
C26   H28   S    
C17   H6    S    
C20   H14   S    
C9    O7    S    
Cu2   O15   S    
Cu1   Cu2   S    
C24   H21   S    
C3    O3    S    
C31   C33   T    
C14   O2    S    
C30   C32   T    
C23   C30   S    
C9    N2    A    
Cu1   O14   S    
C15   H40   S    
C11   H12   S    
C10   N1    A    
Cu2   O9    S    
C12   O10   A    
C1    C6    S    
C14   H37   S    
C27   H31   S    
C5    C12   S    
C4    C6    A    
C16   C17   S    
C22   H20   S    
C3    C34   A    
C25   C26   S    
Cu1   N1    S    
C6    C34   A    
C22   O6    S    
C27   O8    S    
C2    C4    A    
C26   H27   S    
C17   H7    S    
C15   H2    S    
C18   H8    S    
Cu1   O10   S    
C19   H13   S    
C24   H24   S    
C25   O7    S    
C23   O12   A    
C25   H25   S    
C16   H4    S    
C7    N2    A    
Cu2   O13   S    
C8    N1    A    
C1    O1    A    
C22   C24   S    
C28   H35   S    
C18   H9    S    
C29   O13   A    
C11   O16   S    
C10   O8    S    
C1    O11   A    
C12   O9    A    
C8    O6    S    
C26   H29   S    
C34   O16   S    
C3    C5    A    
C22   H19   S    
C13   H23   S    
C13   H36   S    
C32   C33   S    
C29   C31   S    
C27   H30   S    
Cu2   N2    S    
C21   H17   S    
C11   C13   S    
Cu1   O1    S    
C16   O3    S    
C18   O4    S    
C25   H26   S    
C21   H16   S    
C17   H5    S    
C2    O2    S    
C16   H3    S    
C2    C5    A    
Cu1   O12   S    
C23   O15   A    
C4    O4    S    
C20   C21   S    
C24   H22   S    
C20   O5    S    
C27   C28   S    
C14   C15   S    
C29   O14   A    
