data_mof_unit_16590.cif
_audit_creation_date              2012-12-11T14:56:09-0500
_audit_creation_method            fapswitch 2.2
_symmetry_space_group_name_H-M    P1
_symmetry_Int_Tables_number       1
_space_group_crystal_system       triclinic
_cell_length_a                    27.825889
_cell_length_b                    17.338413
_cell_length_c                    18.023585
_cell_angle_alpha                 89.728118
_cell_angle_beta                  138.090715
_cell_angle_gamma                 90.343012
_cell_volume                      5808.14914059

loop_
_atom_site_label
_atom_site_type_symbol
_atom_type_description
_atom_site_fract_x
_atom_site_fract_y
_atom_site_fract_z
_atom_type_partial_charge
C1    C     C_R   0.668235 0.922402 0.817512 -0.104757
C2    C     C_R   0.331765 0.077597 0.182488 -0.104757
C3    C     C_R   0.312219 0.899258 0.195722 -0.120782
C4    C     C_R   0.687781 0.100741 0.804278 -0.120782
C5    C     C_R   0.188219 0.399263 0.803077 -0.128611
C6    C     C_R   0.811781 0.600737 0.196923 -0.128611
C7    C     C_R   0.832811 0.423137 0.182769 -0.115119
C8    C     C_R   0.167189 0.576863 0.817231 -0.115119
C9    C     C_3   0.743362 0.345755 0.952793 -0.175434
C10   C     C_3   0.256637 0.654245 0.047207 -0.175435
C11   C     C_3   0.302136 0.295944 0.011852 -0.145585
C12   C     C_3   0.697863 0.704056 0.988147 -0.145584
C13   C     C_3   0.200547 0.797039 0.984403 -0.150935
C14   C     C_3   0.799453 0.202961 0.015597 -0.150935
C15   C     C_3   0.759151 0.844325 0.046387 -0.176587
C16   C     C_3   0.240848 0.155674 0.953613 -0.176588
C17   C     C_R   0.631569 0.844577 0.384253 0.002667
C18   C     C_R   0.368431 0.155423 0.615747 0.002667
C19   C     C_R   0.280402 0.753358 0.369162 -0.003321
C20   C     C_R   0.719598 0.246642 0.630838 -0.003321
C21   C     C_R   0.222228 0.254420 0.652887 -0.000294
C22   C     C_R   0.777772 0.745580 0.347113 -0.000294
C23   C     C_R   0.890210 0.357340 0.649069 0.015008
C24   C     C_R   0.109790 0.642660 0.350931 0.015008
C25   C     C_R   0.394466 0.241573 0.748485 -0.113591
C26   C     C_R   0.605534 0.758427 0.251515 -0.113591
C27   C     C_R   0.739277 0.376102 0.605149 -0.117903
C28   C     C_R   0.260723 0.623898 0.394851 -0.117903
C29   C     C_R   0.769334 0.869736 0.394853 -0.099975
C30   C     C_R   0.230666 0.130264 0.605147 -0.099975
C31   C     C_R   0.100722 0.744203 0.247803 -0.099285
C32   C     C_R   0.899278 0.255797 0.752197 -0.099286
C33   C     C_R   0.415198 0.206576 0.706468 -0.248617
C34   C     C_R   0.584802 0.793423 0.293532 -0.248617
C35   C     C_R   0.695343 0.322384 0.589565 -0.273011
C36   C     C_R   0.304657 0.677616 0.410435 -0.273011
C37   C     C_R   0.802511 0.821760 0.382796 -0.273833
C38   C     C_R   0.197489 0.178240 0.617204 -0.273833
C39   C     C_R   0.074572 0.707768 0.281014 -0.247237
C40   C     C_R   0.925428 0.292232 0.718986 -0.247236
C41   C     C_R   0.305026 0.129903 0.579613 0.388287
C42   C     C_R   0.694974 0.870097 0.420386 0.388287
C43   C     C_R   0.793690 0.231495 0.707798 0.393939
C44   C     C_R   0.206310 0.768505 0.292202 0.393939
C45   C     C_R   0.705036 0.730336 0.280741 0.401461
C46   C     C_R   0.294964 0.269664 0.719259 0.401462
C47   C     C_R   0.160317 0.604647 0.363979 0.396296
C48   C     C_R   0.839683 0.395353 0.636021 0.396297
C49   C     C_R   0.289757 0.158111 0.632837 0.005569
C50   C     C_R   0.710243 0.841889 0.367163 0.005569
C51   C     C_R   0.834295 0.280556 0.708390 0.002828
C52   C     C_R   0.165705 0.719444 0.291610 0.002828
C53   C     C_R   0.671569 0.777889 0.295042 0.007147
C54   C     C_R   0.328431 0.222111 0.704958 0.007147
C55   C     C_R   0.194350 0.647325 0.346814 0.003791
C56   C     C_R   0.805650 0.352675 0.653186 0.003792
C57   C     C_R   0.356715 0.071628 0.486092 -0.049530
C58   C     C_R   0.643285 0.928372 0.513908 -0.049530
C59   C     C_R   0.675543 0.104753 0.596922 -0.114476
C60   C     C_R   0.324457 0.895247 0.403078 -0.114476
C61   C     C_R   0.823282 0.604279 0.397080 -0.060508
C62   C     C_R   0.176718 0.395721 0.602920 -0.060508
C63   C     C_R   0.140454 0.570565 0.508769 -0.085613
C64   C     C_R   0.859546 0.429435 0.491231 -0.085613
C65   C     C_R   0.406791 0.803022 0.490771 -0.141817
C66   C     C_R   0.593209 0.196978 0.509229 -0.141817
C67   C     C_R   0.564542 0.830029 0.431174 -0.134511
C68   C     C_R   0.435458 0.169971 0.568826 -0.134511
C69   C     C_R   0.943376 0.336877 0.581351 -0.134411
C70   C     C_R   0.056624 0.663123 0.418649 -0.134411
C71   C     C_R   0.094241 0.303057 0.514254 -0.109018
C72   C     C_R   0.905759 0.696943 0.485745 -0.109018
C73   C     C_R   0.604492 0.192769 0.715128 -0.164856
C74   C     C_R   0.395508 0.807231 0.284872 -0.164855
C75   C     C_R   0.416996 0.169051 0.273094 -0.139773
C76   C     C_R   0.583004 0.830949 0.726906 -0.139773
C77   C     C_R   0.082313 0.668353 0.726268 -0.129887
C78   C     C_R   0.917687 0.331647 0.273732 -0.129887
C79   C     C_R   0.894685 0.693429 0.286299 -0.174309
C80   C     C_R   0.105315 0.306571 0.713701 -0.174309
C81   C     C_R   0.641776 0.862605 0.829862 0.029806
C82   C     C_R   0.358224 0.137395 0.170137 0.029806
C83   C     C_R   0.324730 0.824308 0.190766 0.054467
C84   C     C_R   0.675270 0.175692 0.809234 0.054467
C85   C     C_R   0.176275 0.323635 0.806891 0.058406
C86   C     C_R   0.823725 0.676365 0.193109 0.058406
C87   C     C_R   0.859496 0.363798 0.170714 0.049522
C88   C     C_R   0.140504 0.636202 0.829286 0.049522
C89   C     C_R   0.385103 0.133953 0.557495 0.101794
C90   C     C_R   0.614897 0.866047 0.442505 0.101795
C91   C     C_R   0.665377 0.184409 0.579353 0.115045
C92   C     C_R   0.334623 0.815591 0.420647 0.115045
C93   C     C_R   0.832762 0.683924 0.409244 0.118254
C94   C     C_R   0.167238 0.316076 0.590756 0.118254
C95   C     C_R   0.102383 0.624884 0.422707 0.098893
C96   C     C_R   0.897617 0.375116 0.577293 0.098893
C97   C     C_3   0.707957 0.273511 0.946551 -0.151121
C98   C     C_3   0.292044 0.726489 0.053449 -0.151121
C99   C     C_3   0.334320 0.220439 0.017981 -0.107371
C100  C     C_3   0.665679 0.779560 0.982019 -0.107372
C101  C     C_3   0.164554 0.724644 0.977335 -0.095363
C102  C     C_3   0.835446 0.275356 0.022665 -0.095364
C103  C     C_3   0.790674 0.769114 0.051553 -0.139860
C104  C     C_3   0.209326 0.230886 0.948448 -0.139861
C105  C     C_3   0.237592 0.700181 0.096198 -0.116751
C106  C     C_3   0.762408 0.299820 0.903802 -0.116751
C107  C     C_3   0.716999 0.744710 0.936803 -0.149530
C108  C     C_3   0.283001 0.255290 0.063197 -0.149530
C109  C     C_3   0.779751 0.248350 0.062999 -0.155253
C110  C     C_3   0.220249 0.751650 0.937001 -0.155253
C111  C     C_3   0.259352 0.196796 0.900775 -0.135072
C112  C     C_3   0.740647 0.803204 0.099224 -0.135072
C113  C     C_3   0.272248 0.771591 0.100437 0.170606
C114  C     C_3   0.727752 0.228409 0.899562 0.170606
C115  C     C_3   0.685571 0.819584 0.931798 0.155510
C116  C     C_3   0.314429 0.180416 0.068202 0.155510
C117  C     C_3   0.815044 0.320199 0.069044 0.148998
C118  C     C_3   0.184956 0.679801 0.930956 0.148998
C119  C     C_3   0.228519 0.271270 0.897499 0.174776
C120  C     C_3   0.771481 0.728730 0.102501 0.174776
H1    H     H_    0.716960 0.954988 0.882638 0.095961
H2    H     H_    0.283040 0.045012 0.117362 0.095961
H3    H     H_    0.260344 0.926433 0.142501 0.123859
H4    H     H_    0.739656 0.073566 0.857499 0.123859
H5    H     H_    0.239858 0.427420 0.856044 0.118480
H6    H     H_    0.760142 0.572580 0.143956 0.118480
H7    H     H_    0.784336 0.455693 0.117266 0.096954
H8    H     H_    0.215664 0.544307 0.882734 0.096955
H9    H     H_    0.794788 0.924346 0.436908 0.182682
H10   H     H_    0.205212 0.075654 0.563092 0.182682
H11   H     H_    0.075393 0.797413 0.201357 0.199631
H12   H     H_    0.924607 0.202587 0.798642 0.199631
H13   H     H_    0.428145 0.286966 0.809371 0.192533
H14   H     H_    0.571855 0.713034 0.190629 0.192533
H15   H     H_    0.716443 0.431694 0.565186 0.191774
H16   H     H_    0.283557 0.568306 0.434814 0.191774
H17   H     H_    0.323399 0.026291 0.469127 0.165541
H18   H     H_    0.676601 0.973708 0.530873 0.165541
H19   H     H_    0.725932 0.074618 0.654927 0.189848
H20   H     H_    0.274068 0.925382 0.345073 0.189848
H21   H     H_    0.772846 0.573992 0.335226 0.164606
H22   H     H_    0.227154 0.426008 0.664774 0.164606
H23   H     H_    0.182591 0.532810 0.539218 0.171064
H24   H     H_    0.817409 0.467190 0.460782 0.171064
H25   H     H_    0.432219 0.748357 0.509260 0.090287
H26   H     H_    0.567781 0.251642 0.490740 0.090287
H27   H     H_    0.530873 0.780948 0.380059 0.102019
H28   H     H_    0.469127 0.219052 0.619941 0.102019
H29   H     H_    0.980617 0.291564 0.637461 0.100976
H30   H     H_    0.019383 0.708436 0.362539 0.100976
H31   H     H_    0.068073 0.248491 0.494852 0.085795
H32   H     H_    0.931927 0.751509 0.505148 0.085795
H33   H     H_    0.580162 0.249339 0.687671 0.100112
H34   H     H_    0.419838 0.750661 0.312328 0.100112
H35   H     H_    0.447395 0.219702 0.291817 0.108364
H36   H     H_    0.552605 0.780298 0.708183 0.108364
H37   H     H_    0.052447 0.719244 0.707385 0.112844
H38   H     H_    0.947553 0.280756 0.292614 0.112844
H39   H     H_    0.919099 0.750169 0.313927 0.098338
H40   H     H_    0.080901 0.249831 0.686073 0.098338
H41   H     H_    0.246269 0.681211 0.164397 0.136741
H42   H     H_    0.753731 0.318789 0.835603 0.136741
H43   H     H_    0.706878 0.721322 0.868839 0.130148
H44   H     H_    0.293122 0.278678 0.131161 0.130148
H45   H     H_    0.787329 0.227854 0.129665 0.123994
H46   H     H_    0.212671 0.772146 0.870335 0.123994
H47   H     H_    0.248258 0.174552 0.831561 0.129865
H48   H     H_    0.751742 0.825448 0.168439 0.129865
H49   H     H_    0.654973 0.271527 0.914129 0.119335
H50   H     H_    0.345027 0.728473 0.085871 0.119335
H51   H     H_    0.386559 0.214455 0.048792 0.135670
H52   H     H_    0.613441 0.785544 0.951207 0.135671
H53   H     H_    0.111294 0.722172 0.943921 0.149953
H54   H     H_    0.888706 0.277828 0.056079 0.149953
H55   H     H_    0.842629 0.763670 0.081305 0.124824
H56   H     H_    0.157371 0.236330 0.918695 0.124824
H57   H     H_    0.721506 0.405231 0.928718 0.119090
H58   H     H_    0.278493 0.594769 0.071282 0.119091
H59   H     H_    0.326559 0.354225 0.034638 0.125558
H60   H     H_    0.673441 0.645775 0.965362 0.125557
H61   H     H_    0.178371 0.856384 0.959743 0.125169
H62   H     H_    0.821629 0.143616 0.040257 0.125169
H63   H     H_    0.783368 0.902710 0.068981 0.116998
H64   H     H_    0.216632 0.097290 0.931019 0.116999
H65   H     H_    0.534203 0.775642 0.259745 0.139397
H66   H     H_    0.465797 0.224358 0.740255 0.139397
H67   H     H_    0.359301 0.660247 0.462402 0.142970
H68   H     H_    0.640699 0.339753 0.537598 0.142970
H69   H     H_    0.147079 0.158902 0.582724 0.138533
H70   H     H_    0.852921 0.841098 0.417276 0.138533
H71   H     H_    0.969843 0.265182 0.741827 0.140863
H72   H     H_    0.030157 0.734818 0.258173 0.140864
N1    N     N_R   0.625380 0.928280 0.709340 -0.039639
N2    N     N_R   0.374620 0.071720 0.290660 -0.039639
N3    N     N_R   0.374620 0.928280 0.290660 -0.040748
N4    N     N_R   0.625380 0.071720 0.709340 -0.040748
N5    N     N_R   0.125380 0.428280 0.709340 -0.039387
N6    N     N_R   0.874620 0.571720 0.290660 -0.039387
N7    N     N_R   0.874620 0.428280 0.290660 -0.043499
N8    N     N_R   0.125380 0.571720 0.709340 -0.043499
N9    N     N_R   0.386100 0.070250 0.452470 -0.055913
N10   N     N_R   0.613900 0.929750 0.547530 -0.055913
N11   N     N_R   0.613900 0.070250 0.547530 -0.061188
N12   N     N_R   0.386100 0.929750 0.452470 -0.061188
N13   N     N_R   0.886100 0.570250 0.452470 -0.052982
N14   N     N_R   0.113900 0.429750 0.547530 -0.052982
N15   N     N_R   0.113900 0.570250 0.547530 -0.057238
N16   N     N_R   0.886100 0.429750 0.452470 -0.057238
N17   N     N_R   0.437800 0.869550 0.507970 -0.043239
N18   N     N_R   0.562200 0.130450 0.492030 -0.043239
N19   N     N_R   0.562200 0.869550 0.492030 -0.048137
N20   N     N_R   0.437800 0.130450 0.507970 -0.048137
N21   N     N_R   0.937800 0.369550 0.507970 -0.047582
N22   N     N_R   0.062200 0.630450 0.492030 -0.047582
N23   N     N_R   0.062200 0.369550 0.492030 -0.043188
N24   N     N_R   0.937800 0.630450 0.507970 -0.043188
N25   N     N_R   0.573690 0.128980 0.653840 -0.037445
N26   N     N_R   0.426310 0.871020 0.346160 -0.037445
N27   N     N_R   0.426310 0.128980 0.346160 -0.041647
N28   N     N_R   0.573690 0.871020 0.653840 -0.041647
N29   N     N_R   0.073690 0.628980 0.653840 -0.045374
N30   N     N_R   0.926310 0.371020 0.346160 -0.045374
N31   N     N_R   0.926310 0.628980 0.346160 -0.035212
N32   N     N_R   0.073690 0.371020 0.653840 -0.035212
Ni1   Ni    Ni4+2 0.616560 0.000000 0.627280 0.243558
Ni2   Ni    Ni4+2 0.383440 0.000000 0.372720 0.243558
Ni3   Ni    Ni4+2 0.116560 0.500000 0.627280 0.234561
Ni4   Ni    Ni4+2 0.883440 0.500000 0.372720 0.234561
Ni5   Ni    Ni4+2 0.497990 0.870580 0.500000 0.209888
Ni6   Ni    Ni4+2 0.502010 0.129420 0.500000 0.209888
Ni7   Ni    Ni4+2 0.997990 0.370580 0.500000 0.211917
Ni8   Ni    Ni4+2 0.002010 0.629420 0.500000 0.211917
Cl1   Cl    Cl    0.766678 0.918226 0.548890 -0.674579
Cl2   Cl    Cl    0.233322 0.081774 0.451109 -0.674579
Cl3   Cl    Cl    0.163236 0.843970 0.193714 -0.691430
Cl4   Cl    Cl    0.836764 0.156030 0.806286 -0.691430
Cl5   Cl    Cl    0.342275 0.346263 0.815961 -0.723492
Cl6   Cl    Cl    0.657725 0.653737 0.184039 -0.723492
Cl7   Cl    Cl    0.820821 0.494785 0.603354 -0.677944
Cl8   Cl    Cl    0.179179 0.505215 0.396646 -0.677944

loop_
_geom_bond_atom_site_label_1
_geom_bond_atom_site_label_2
_ccdc_geom_bond_type
N14   N23   A    
C78   C87   A    
C65   C92   A    
N16   N21   A    
C98   C110  S    
N1    N28   A    
C9    C117  S    
C83   C113  S    
C101  H53   S    
C103  C120  S    
C70   H30   S    
C104  C108  S    
C31   C52   A    
N5    N32   A    
N22   Ni8   S    
C110  C118  S    
N4    N25   A    
C109  C117  S    
C81   C115  S    
C104  H56   S    
C71   C94   A    
C99   H51   S    
C19   C44   A    
C64   N16   A    
C74   H34   S    
C13   C110  S    
C57   C89   A    
N28   Ni5   S    
C106  C114  S    
N23   Ni7   S    
C101  C118  S    
C105  C113  S    
C76   N28   A    
C87   C117  S    
C14   C109  S    
C43   Cl4   S    
C79   H39   S    
C79   C86   A    
C42   Cl1   S    
C61   C93   A    
C80   H40   S    
C100  H52   S    
C41   Cl2   S    
C1    C81   A    
C49   C54   A    
C112  H48   S    
C63   C95   A    
C88   C118  S    
C24   C39   A    
C97   C109  S    
C23   C96   S    
C4    H4    S    
N13   Ni4   S    
C111  C119  S    
C51   C56   A    
C46   Cl5   S    
C6    N6    A    
C85   C119  S    
C45   Cl6   S    
C31   H11   S    
C19   C92   S    
C77   H37   S    
N29   Ni8   S    
C12   C120  S    
C20   C35   A    
C8    H8    S    
C71   H31   S    
C21   C38   A    
N13   N24   A    
C3    H3    S    
C35   H68   S    
C72   H32   S    
C15   H63   S    
N12   N17   A    
C84   C114  S    
N11   N18   A    
C67   N19   A    
C33   H66   S    
C66   H26   S    
C75   N27   A    
C66   N18   A    
C25   H13   S    
N7    Ni4   S    
C74   C83   A    
C73   C84   A    
C65   N17   A    
C68   H28   S    
C52   C55   A    
C104  C119  S    
C5    C85   A    
C69   C96   A    
C106  H42   S    
C37   H70   S    
C98   H50   S    
C45   C53   A    
C63   N15   A    
C26   C34   A    
C24   C47   A    
C74   N26   A    
N3    N26   A    
C100  C115  S    
C73   H33   S    
C62   H22   S    
C16   C116  S    
C41   C49   A    
C14   H62   S    
C28   C55   A    
N6    Ni4   S    
N10   Ni1   S    
C8    C88   A    
C29   C50   A    
C2    H2    S    
C101  C105  S    
N9    Ni2   S    
C20   C91   S    
C29   H9    S    
C50   C53   A    
C78   H38   S    
C57   H17   S    
C10   H58   S    
C57   N9    A    
C26   H14   S    
C108  H44   S    
C69   N21   A    
C25   C54   A    
C6    H6    S    
C11   C119  S    
C18   C41   A    
C99   C116  S    
C112  C120  S    
C8    N8    A    
C27   C56   A    
C98   C113  S    
C5    N5    A    
C64   H24   S    
C27   C35   A    
C9    C106  S    
C14   C114  S    
C22   C37   A    
C76   H36   S    
N15   N22   A    
C3    N3    A    
C13   C101  S    
C2    N2    A    
N8    Ni3   S    
C70   N22   A    
C34   H65   S    
C1    N1    A    
N26   Ni5   S    
C80   C85   A    
C10   C118  S    
C75   H35   S    
N25   Ni6   S    
C80   N32   A    
N20   Ni6   S    
C4    C84   A    
C59   H19   S    
C38   H69   S    
C99   C111  S    
C46   C54   A    
C103  H55   S    
C68   C89   A    
N18   Ni6   S    
C67   C90   A    
C73   N25   A    
N7    N30   A    
N17   Ni5   S    
C58   C90   A    
C28   C36   A    
N2    N27   A    
C102  C117  S    
C109  H45   S    
C42   C50   A    
C44   Cl3   S    
C72   C93   A    
N5    Ni3   S    
N15   Ni3   S    
C60   N12   A    
C12   H60   S    
C30   C49   A    
C78   N30   A    
N30   Ni7   S    
C100  C112  S    
C15   C103  S    
C13   H61   S    
C16   C104  S    
C62   C94   A    
C108  C116  S    
C3    C83   A    
C22   C93   S    
C15   C115  S    
C2    C82   A    
C11   H59   S    
C60   H20   S    
N8    N29   A    
N27   Ni6   S    
C65   H25   S    
C77   C88   A    
C26   C53   A    
C32   H12   S    
C48   Cl7   S    
C9    H57   S    
N31   Ni8   S    
C47   C55   A    
C17   C42   A    
C59   C91   A    
C32   C51   A    
C61   H21   S    
C4    N4    A    
N4    Ni1   S    
C9    C97   S    
C23   C48   A    
N19   Ni5   S    
N3    Ni2   S    
C72   N24   A    
C28   H16   S    
C18   C89   S    
C15   C112  S    
C17   C90   S    
C107  H43   S    
N11   Ni1   S    
N21   Ni7   S    
C76   C81   A    
C12   C107  S    
C103  C107  S    
C16   H64   S    
C75   C82   A    
C79   N31   A    
C66   C91   A    
C44   C52   A    
C48   C56   A    
C102  H54   S    
C61   N13   A    
C10   C98   S    
C6    C86   A    
N6    N31   A    
C19   C36   A    
C36   H67   S    
C27   H15   S    
N2    Ni2   S    
C70   C95   A    
C97   H49   S    
C82   C116  S    
N10   N19   A    
C30   H10   S    
N16   Ni4   S    
C67   H27   S    
C39   H72   S    
C110  H46   S    
C58   H18   S    
C40   H71   S    
C43   C51   A    
C71   N23   A    
C11   C99   S    
N24   Ni8   S    
C31   C39   A    
C5    H5    S    
C107  C115  S    
C64   C96   A    
C105  H41   S    
C32   C40   A    
C69   H29   S    
C7    N7    A    
C18   C33   A    
C1    H1    S    
C20   C43   A    
C12   C100  S    
C14   C102  S    
N1    Ni1   S    
C47   Cl8   S    
C21   C46   A    
C59   N11   A    
C21   C94   S    
N32   Ni7   S    
C22   C45   A    
C111  H47   S    
C58   N10   A    
C11   C108  S    
C17   C34   A    
C102  C106  S    
C29   C37   A    
N14   Ni3   S    
C24   C95   S    
C77   N29   A    
C10   C105  S    
C86   C120  S    
N9    N20   A    
C30   C38   A    
C7    H7    S    
C97   C114  S    
C60   C92   A    
N12   Ni2   S    
C62   N14   A    
C7    C87   A    
C13   C113  S    
C23   C40   A    
C16   C111  S    
C25   C33   A    
C63   H23   S    
C68   N20   A    
