data_mof_unit_6881.cif
_audit_creation_date              2012-12-10T17:20:53-0500
_audit_creation_method            fapswitch 2.2
_symmetry_space_group_name_H-M    P1
_symmetry_Int_Tables_number       1
_space_group_crystal_system       triclinic
_cell_length_a                    14.337312
_cell_length_b                    10.772373
_cell_length_c                    9.658614
_cell_angle_alpha                 89.693883
_cell_angle_beta                  89.930553
_cell_angle_gamma                 94.113652
_cell_volume                      1487.87643869

loop_
_atom_site_label
_atom_site_type_symbol
_atom_type_description
_atom_site_fract_x
_atom_site_fract_y
_atom_site_fract_z
_atom_type_partial_charge
C1    C     C_R   0.500283 0.262858 0.500356 0.768153
C2    C     C_1   0.771081 0.500766 0.499920 -0.204041
C3    C     C_R   0.669686 0.145883 0.578385 -0.166529
C4    C     C_R   0.751418 0.088913 0.609979 -0.123197
C5    C     C_R   0.753227 0.960140 0.601941 -0.150177
C6    C     C_R   0.672937 0.887509 0.564287 -0.193942
C7    C     C_R   0.588829 0.943022 0.535098 0.108969
C8    C     C_R   0.587679 0.074057 0.539445 0.093540
C9    C     C_R   0.505070 0.129466 0.500998 -0.085131
C10   C     C_R   0.425830 0.057025 0.458428 -0.201131
C11   C     C_R   0.426203 0.928701 0.457837 -0.196508
C12   C     C_R   0.331291 0.499407 0.500095 0.793012
C13   C     C_R   0.506268 0.871604 0.497883 -0.080385
C14   C     C_R   0.640249 0.663381 0.133133 0.455397
C15   C     C_R   0.708650 0.726985 0.049832 -0.263383
C16   C     C_R   0.702671 0.724769 0.909490 -0.270461
C17   C     C_R   0.630157 0.656334 0.848193 -0.126117
C18   C     C_R   0.564990 0.577585 0.922874 0.146818
C19   C     C_R   0.567032 0.578965 0.072555 0.146936
C20   C     C_R   0.438230 0.426087 0.074284 -0.061330
C21   C     C_R   0.438400 0.425992 0.927051 -0.043577
C22   C     C_R   0.501456 0.737294 0.499512 0.803974
C23   C     C_R   0.668704 0.500592 0.499953 0.801927
C24   C     C_1   0.228885 0.499662 0.500220 -0.198799
C25   C     C_1   0.143420 0.499922 0.500241 -0.012359
C26   C     C_1   0.042699 0.500236 0.500204 -0.000450
C27   C     C_1   0.957236 0.500480 0.500131 -0.001904
C28   C     C_1   0.856529 0.500703 0.500010 -0.014522
Cu1   Cu    Cu3+1 0.499990 0.499990 0.640660 0.934370
Cu2   Cu    Cu3+1 0.500010 0.500010 0.359340 0.975789
H1    H     H_    0.363014 0.100155 0.427533 0.136083
H2    H     H_    0.753102 0.780277 0.847349 0.171458
H3    H     H_    0.387712 0.364875 0.872995 0.134038
H4    H     H_    0.671653 0.246166 0.583553 0.132285
H5    H     H_    0.813901 0.145047 0.639084 0.138369
H6    H     H_    0.817227 0.916375 0.624166 0.131914
H7    H     H_    0.387445 0.365132 0.129273 0.133812
N1    N     N_R   0.500820 0.501210 0.147910 -0.177020
N2    N     N_R   0.500850 0.501290 0.852040 -0.180831
O1    O     O_R   0.499990 0.319640 0.618810 -0.571513
O2    O     O_R   0.500000 0.319660 0.381240 -0.571515
O3    O     O_R   0.376050 0.499990 0.618810 -0.556078
O4    O     O_R   0.376060 0.500010 0.381240 -0.564417
O5    O     O_R   0.500000 0.680340 0.618760 -0.600733
O6    O     O_R   0.500010 0.680360 0.381190 -0.502085
O7    O     O_R   0.623940 0.499990 0.618760 -0.592391
O8    O     O_R   0.623950 0.500010 0.381190 -0.497632
H8    H     H_    0.629163 0.669761 0.740560 0.206213
H9    H     H_    0.677908 0.788290 0.555279 0.113907
H10   H     H_    0.363496 0.873450 0.427299 0.139179
O9    O     O_3   0.644541 0.693248 0.270299 -0.701792
H11   H     H_    0.699636 0.750659 0.292806 0.294876
H12   H     H_    0.764895 0.786203 0.094666 0.148931

loop_
_geom_bond_atom_site_label_1
_geom_bond_atom_site_label_2
_ccdc_geom_bond_type
C2    C28   T    
C18   N2    A    
Cu2   O2    S    
C6    C7    A    
O9    H11   S    
C19   N1    A    
Cu1   O3    S    
C16   H2    S    
C20   N1    A    
C9    C10   A    
C12   C24   S    
Cu2   O6    S    
C14   O9    S    
C21   N2    A    
C17   H8    S    
Cu1   O7    S    
Cu1   N2    S    
C17   C18   A    
C25   C26   S    
C4    H5    S    
C7    C8    A    
Cu1   O5    S    
C23   O7    A    
C24   C25   T    
C20   H7    S    
C11   C13   A    
C26   C27   T    
Cu1   Cu2   S    
C4    C5    A    
C15   H12   S    
Cu1   O1    S    
C1    O2    A    
C13   C22   S    
C3    C8    A    
C12   O4    A    
C6    H9    S    
C5    C6    A    
Cu2   O4    S    
C23   O8    A    
C10   C11   A    
C15   C16   A    
C5    H6    S    
Cu2   O8    S    
C7    C13   A    
C22   O6    A    
C1    C9    S    
C20   C21   A    
Cu2   N1    S    
C18   C19   A    
C2    C23   S    
C11   H10   S    
C14   C15   A    
C16   C17   A    
C3    H4    S    
C12   O3    A    
C1    O1    A    
C21   H3    S    
C14   C19   A    
C22   O5    A    
C3    C4    A    
C8    C9    A    
C27   C28   S    
C10   H1    S    
