data_mof_unit_17202.cif
_audit_creation_date              2012-12-11T15:49:08-0500
_audit_creation_method            fapswitch 2.2
_symmetry_space_group_name_H-M    P1
_symmetry_Int_Tables_number       1
_space_group_crystal_system       triclinic
_cell_length_a                    21.623543
_cell_length_b                    7.181134
_cell_length_c                    14.865095
_cell_angle_alpha                 90.082437
_cell_angle_beta                  106.878294
_cell_angle_gamma                 90.011857
_cell_volume                      2208.84030328

loop_
_atom_site_label
_atom_site_type_symbol
_atom_type_description
_atom_site_fract_x
_atom_site_fract_y
_atom_site_fract_z
_atom_type_partial_charge
O1    O     O_R   0.335860 0.638190 0.002110 -0.542976
O2    O     O_R   0.664140 0.361810 0.997890 -0.537934
O3    O     O_R   0.164140 0.138190 0.997890 -0.543639
O4    O     O_R   0.835860 0.861810 0.002110 -0.538269
O5    O     O_R   0.217530 0.305920 0.861960 -0.546718
O6    O     O_R   0.782470 0.694080 0.138040 -0.532841
O7    O     O_R   0.282470 0.805920 0.138040 -0.546524
O8    O     O_R   0.717530 0.194080 0.861960 -0.529030
C1    C     C_R   0.205399 0.476348 0.825496 0.753704
C2    C     C_R   0.794491 0.523231 0.174418 0.761747
C3    C     C_R   0.294662 0.976608 0.174468 0.757290
C4    C     C_R   0.705516 0.022810 0.825557 0.759856
O9    O     O_R   0.338690 0.308320 0.993240 -0.540187
O10   O     O_R   0.661310 0.691680 0.006760 -0.545423
O11   O     O_R   0.161310 0.808320 0.006760 -0.539724
O12   O     O_R   0.838690 0.191680 0.993240 -0.544190
O13   O     O_R   0.286170 0.140430 0.130100 -0.524272
O14   O     O_R   0.713830 0.859570 0.869900 -0.542056
O15   O     O_R   0.213830 0.640430 0.869900 -0.523142
O16   O     O_R   0.786170 0.359570 0.130100 -0.541925
C5    C     C_R   0.364985 0.477258 0.997862 0.679343
C6    C     C_R   0.635013 0.522745 0.002130 0.677454
C7    C     C_R   0.135014 0.977233 0.002124 0.681070
C8    C     C_R   0.864983 0.022767 0.997861 0.678048
O17   O     O_3   0.232630 0.472410 0.044750 -0.380013
O18   O     O_3   0.767370 0.527590 0.955250 -0.378761
O19   O     O_3   0.267370 0.972410 0.955250 -0.379690
O20   O     O_3   0.732630 0.027590 0.044750 -0.381332
V1    V     V_3+5 0.253220 0.196620 0.991700 1.462772
V2    V     V_3+5 0.746780 0.803380 0.008300 1.460901
V3    V     V_3+5 0.246780 0.696620 0.008300 1.464923
V4    V     V_3+5 0.753220 0.303380 0.991700 1.467922
C9    C     C_R   0.030132 0.826434 0.004775 -0.127843
C10   C     C_R   0.969855 0.173577 0.995164 -0.113375
C11   C     C_R   0.469817 0.326430 0.995110 -0.131732
C12   C     C_R   0.530176 0.673590 0.004855 -0.118922
H1    H     H_    0.052140 0.690150 0.008357 0.130447
H2    H     H_    0.947847 0.309861 0.991576 0.128179
H3    H     H_    0.447776 0.190135 0.991468 0.130744
H4    H     H_    0.552216 0.809885 0.008493 0.127279
C13   C     C_R   0.965175 0.837804 0.003286 -0.124036
C14   C     C_R   0.034811 0.162207 0.996649 -0.117115
C15   C     C_R   0.534776 0.337775 0.996600 -0.123459
C16   C     C_R   0.465218 0.662246 0.003370 -0.113216
H5    H     H_    0.939466 0.709526 0.006066 0.135964
H6    H     H_    0.060518 0.290485 0.993859 0.131629
H7    H     H_    0.560454 0.209480 0.993762 0.135265
H8    H     H_    0.439541 0.790541 0.006208 0.132020
C17   C     C_R   0.934022 0.011561 0.998418 -0.049449
C18   C     C_R   0.065968 0.988450 0.001536 -0.050691
C19   C     C_R   0.565971 0.511538 0.001547 -0.050347
C20   C     C_R   0.434025 0.488479 0.998428 -0.050883
C21   C     C_R   0.677992 0.008860 0.723336 -0.096393
C22   C     C_R   0.322479 0.980189 0.276922 -0.129405
C23   C     C_R   0.822315 0.511892 0.276590 -0.097571
C24   C     C_R   0.177703 0.478519 0.722987 -0.095966
C25   C     C_R   0.690669 0.915884 0.572523 0.237980
C26   C     C_R   0.309741 0.918065 0.430748 0.233377
C27   C     C_R   0.808125 0.454604 0.430303 0.246806
C28   C     C_R   0.188608 0.396461 0.569774 0.241768
C29   C     C_R   0.717118 0.950065 0.668903 -0.273794
C30   C     C_R   0.283387 0.935996 0.333778 -0.209715
C31   C     C_R   0.782098 0.478012 0.333041 -0.284513
C32   C     C_R   0.215750 0.421086 0.666706 -0.281909
C33   C     C_R   0.611505 0.033584 0.682291 0.297284
C34   C     C_R   0.389115 0.005902 0.316728 0.300023
C35   C     C_R   0.889359 0.523447 0.316440 0.298952
C36   C     C_R   0.111665 0.513438 0.682858 0.298555
C37   C     C_R   0.582055 0.966243 0.589301 -0.078461
C38   C     C_R   0.418483 0.955265 0.412538 -0.060811
C39   C     C_R   0.917417 0.467999 0.411727 -0.077384
C40   C     C_R   0.080880 0.454041 0.588723 -0.078044
C41   C     C_R   0.622773 0.922425 0.532457 0.016824
C42   C     C_R   0.377695 0.927571 0.471105 -0.025992
C43   C     C_R   0.876077 0.448993 0.470026 0.011888
C44   C     C_R   0.120757 0.408822 0.530726 0.021980
C45   C     C_R   0.513842 0.939429 0.551182 -0.072147
C46   C     C_R   0.486669 0.929951 0.451912 -0.070463
C47   C     C_R   0.984949 0.431843 0.451027 -0.072869
C48   C     C_R   0.012216 0.436780 0.550388 -0.070324
C49   C     C_R   0.528210 0.877066 0.397313 0.339949
C50   C     C_R   0.472249 0.903331 0.607996 0.364699
C51   C     C_R   0.969815 0.406847 0.606672 0.342376
C52   C     C_R   0.025476 0.373953 0.395875 0.342124
C53   C     C_R   0.594909 0.876351 0.437695 -0.163936
C54   C     C_R   0.405568 0.900881 0.567800 -0.190789
C55   C     C_R   0.903187 0.417186 0.566431 -0.163168
C56   C     C_R   0.092092 0.366839 0.435684 -0.147425
H9    H     H_    0.624765 0.833189 0.394172 0.170531
H10   H     H_    0.375937 0.872025 0.613612 0.144146
H11   H     H_    0.872650 0.394450 0.611677 0.171784
H12   H     H_    0.121171 0.321333 0.391477 0.176649
H13   H     H_    0.231858 0.916754 0.302523 0.143392
H14   H     H_    0.768543 0.932742 0.701704 0.123328
H15   H     H_    0.266917 0.396781 0.698634 0.121199
H16   H     H_    0.730241 0.471975 0.301175 0.121932
O21   O     O_3   0.423301 0.084349 0.260970 -0.631131
H17   H     H_    0.461090 0.150947 0.302335 0.306462
O22   O     O_3   0.577564 0.127425 0.733932 -0.632470
H18   H     H_    0.540005 0.189143 0.689497 0.306349
O23   O     O_3   0.079543 0.608337 0.736624 -0.630560
H19   H     H_    0.043265 0.677633 0.693593 0.307606
O24   O     O_3   0.925239 0.596201 0.261579 -0.633061
H20   H     H_    0.964004 0.657504 0.303613 0.308833
N1    N     N_3   0.732167 0.864378 0.516421 -0.651580
H21   H     H_    0.780197 0.854251 0.558031 0.245474
H22   H     H_    0.730710 0.972130 0.468669 0.211886
N2    N     N_3   0.266501 0.880842 0.485685 -0.653916
H23   H     H_    0.272311 0.984482 0.536857 0.250359
H24   H     H_    0.278769 0.752639 0.519262 0.218209
N3    N     N_3   0.765792 0.430458 0.488311 -0.648940
H25   H     H_    0.717741 0.454323 0.449530 0.247734
H26   H     H_    0.768651 0.291103 0.509244 0.212209
N4    N     N_3   0.229271 0.348571 0.511849 -0.670904
H27   H     H_    0.277619 0.339600 0.552292 0.224590
H28   H     H_    0.226881 0.457874 0.464621 0.231273
O25   O     O_3   0.505865 0.803460 0.307922 -0.627591
H29   H     H_    0.464722 0.737490 0.302704 0.303979
O26   O     O_3   0.494484 0.847315 0.700557 -0.628116
H30   H     H_    0.535345 0.777826 0.708935 0.303518
O27   O     O_3   0.990679 0.345247 0.698402 -0.627992
H31   H     H_    0.030146 0.269481 0.705925 0.304232
O28   O     O_3   0.001906 0.302601 0.306161 -0.624802
H32   H     H_    0.959700 0.242584 0.300648 0.305035

loop_
_geom_bond_atom_site_label_1
_geom_bond_atom_site_label_2
_ccdc_geom_bond_type
O17   V3    S    
C51   C55   A    
C26   C30   A    
O23   H19   S    
C55   H11   S    
O19   V1    S    
O13   V1    S    
C28   N4    S    
N3    H25   S    
C10   C14   A    
C40   C44   A    
O15   V3    S    
C39   C47   A    
N4    H27   S    
C35   O24   S    
O28   H32   S    
C34   C38   A    
C45   C46   A    
C52   O28   S    
O1    C5    A    
N1    H22   S    
C34   O21   S    
O9    V1    S    
C11   H3    S    
O4    C8    A    
C38   C46   A    
C49   O25   S    
O1    V3    S    
N2    H23   S    
O2    V4    S    
C14   H6    S    
C25   C41   A    
O3    V1    S    
O3    C7    A    
C38   C42   A    
C37   C45   A    
C1    O15   A    
C56   H12   S    
C2    O16   A    
C23   C31   A    
O2    C6    A    
C27   N3    S    
C24   C32   A    
C37   C41   A    
O14   V2    S    
C21   C33   A    
C44   C56   A    
C26   N2    S    
C4    C21   S    
C36   C40   A    
C16   C20   A    
O11   C7    A    
O12   C8    A    
C21   C29   A    
C50   O26   S    
O10   V2    S    
C48   C51   A    
C13   C17   A    
O21   H17   S    
O5    V1    S    
O7    V3    S    
C25   N1    S    
O8    V4    S    
C12   H4    S    
C36   O23   S    
C33   O22   S    
C54   H10   S    
C53   H9    S    
C29   H14   S    
C7    C18   S    
C22   C30   A    
C9    C18   A    
C50   C54   A    
C31   H16   S    
C28   C44   A    
C9    H1    S    
O7    C3    A    
O5    C1    A    
C23   C35   A    
O22   H18   S    
O8    C4    A    
O9    C5    A    
N3    H26   S    
C1    C24   S    
C51   O27   S    
C25   C29   A    
C2    C23   S    
C12   C19   A    
C41   C53   A    
O27   H31   S    
C3    C22   S    
C14   C18   A    
C22   C34   A    
C43   C55   A    
O6    V2    S    
C12   C16   A    
O12   V4    S    
C27   C43   A    
C11   C20   A    
C11   C15   A    
C26   C42   A    
O16   V4    S    
C8    C17   S    
C3    O13   A    
C10   C17   A    
C10   H2    S    
C52   C56   A    
C32   H15   S    
O6    C2    A    
N4    H28   S    
O26   H30   S    
O11   V3    S    
O18   V4    S    
C42   C54   A    
N1    H21   S    
C27   C31   A    
C28   C32   A    
C9    C13   A    
O10   C6    A    
O20   V2    S    
C40   C48   A    
C24   C36   A    
O25   H29   S    
C39   C43   A    
C46   C49   A    
C15   C19   A    
C47   C52   A    
C45   C50   A    
C33   C37   A    
N2    H24   S    
C35   C39   A    
O4    V2    S    
C47   C48   A    
C30   H13   S    
C4    O14   A    
O24   H20   S    
C13   H5    S    
C15   H7    S    
C5    C20   S    
C49   C53   A    
C16   H8    S    
C6    C19   S    
