data_mof_unit_27769.cif
_audit_creation_date              2012-12-11T15:55:49-0500
_audit_creation_method            fapswitch 2.2
_symmetry_space_group_name_H-M    P1
_symmetry_Int_Tables_number       1
_space_group_crystal_system       triclinic
_cell_length_a                    6.93629
_cell_length_b                    14.536997
_cell_length_c                    16.077681
_cell_angle_alpha                 89.870281
_cell_angle_beta                  90.049049
_cell_angle_gamma                 90.093481
_cell_volume                      1621.15112406

loop_
_atom_site_label
_atom_site_type_symbol
_atom_type_description
_atom_site_fract_x
_atom_site_fract_y
_atom_site_fract_z
_atom_type_partial_charge
O1    O     O_R   0.505680 0.583900 0.413320 -0.521113
O2    O     O_R   0.176010 0.594950 0.586080 -0.545630
O3    O     O_R   0.005680 0.416100 0.586680 -0.536854
C1    C     C_R   0.345166 0.617262 0.614954 0.696478
O4    O     O_R   0.175960 0.594930 0.413930 -0.555975
O5    O     O_R   0.005640 0.416080 0.413300 -0.542421
C2    C     C_R   0.345185 0.617898 0.385621 0.730933
O6    O     O_R   0.505720 0.583920 0.586700 -0.536576
O7    O     O_3   0.339190 0.441320 0.500000 -0.372675
V1    V     V_3+5 0.064350 0.510890 0.500000 1.391409
O8    O     O_R   0.675920 0.405050 0.413920 -0.546168
C3    C     C_R   0.844762 0.383039 0.384914 0.704812
O9    O     O_R   0.675960 0.405070 0.586070 -0.544852
C4    C     C_R   0.844840 0.383360 0.615200 0.695786
V2    V     V_3+5 0.564340 0.489110 0.500000 1.417482
O10   O     O_3   0.839370 0.558680 0.500000 -0.366419
C5    C     C_R   0.030708 0.277661 0.709045 0.108452
C6    C     C_R   0.855800 0.319135 0.686780 -0.107794
C7    C     C_R   0.695220 0.302148 0.738453 -0.189643
H1    H     H_    0.559647 0.336717 0.726988 0.129197
C8    C     C_R   0.706899 0.238344 0.804527 -0.190037
H2    H     H_    0.579607 0.225432 0.841712 0.131456
C9    C     C_R   0.879417 0.189935 0.820576 -0.106694
C10   C     C_R   0.042225 0.214692 0.774147 0.105378
C11   C     C_3   0.179435 0.154845 0.727631 -0.418210
C12   C     C_3   0.166901 0.223633 0.656526 -0.403750
H3    H     H_    0.116844 0.086479 0.712223 0.171512
H4    H     H_    0.323934 0.152540 0.757309 0.174035
H5    H     H_    0.096995 0.195205 0.599835 0.171030
H6    H     H_    0.304115 0.261080 0.645162 0.176497
C13   C     C_R   0.045735 0.237382 0.208672 0.473727
C14   C     C_R   0.032468 0.299231 0.275462 -0.235130
H7    H     H_    0.161717 0.334964 0.295254 0.133456
C15   C     C_R   0.855986 0.315522 0.315674 -0.116627
C16   C     C_R   0.692032 0.267220 0.288709 -0.148020
H8    H     H_    0.553680 0.277826 0.318323 0.145527
C17   C     C_R   0.704982 0.203323 0.223950 -0.214088
H9    H     H_    0.576507 0.165792 0.206407 0.193985
C18   C     C_R   0.881133 0.186953 0.183107 -0.159257
C19   C     C_R   0.188254 0.725026 0.717057 -0.156315
H10   H     H_    0.047625 0.706718 0.692884 0.118287
C20   C     C_R   0.199223 0.788577 0.782261 -0.154963
H11   H     H_    0.066547 0.817417 0.806115 0.117887
C21   C     C_R   0.378604 0.814558 0.816037 -0.045180
C22   C     C_R   0.546723 0.775317 0.782602 -0.156943
H12   H     H_    0.687357 0.793644 0.806756 0.115825
C23   C     C_R   0.535757 0.711777 0.717390 -0.144227
H13   H     H_    0.668442 0.682977 0.693504 0.119081
C24   C     C_R   0.356359 0.685689 0.683701 -0.044914
C25   C     C_R   0.220845 0.685692 0.252489 -0.260691
H14   H     H_    0.107483 0.634428 0.251957 0.123937
C26   C     C_R   0.230807 0.749409 0.187087 -0.157249
H15   H     H_    0.123283 0.746771 0.138250 0.125321
C27   C     C_R   0.380012 0.814694 0.183825 -0.097273
C28   C     C_R   0.516772 0.816273 0.248229 -0.229068
H16   H     H_    0.627250 0.869016 0.248330 0.124251
C29   C     C_R   0.506824 0.752994 0.314883 0.458627
C30   C     C_R   0.356878 0.687045 0.317309 -0.128956
O11   O     O_R   0.229200 0.915950 0.913350 -0.544148
O12   O     O_R   0.559090 0.905000 0.086080 -0.542954
O13   O     O_R   0.729280 0.083880 0.086680 -0.544717
C31   C     C_R   0.390136 0.882765 0.114927 0.712552
O14   O     O_R   0.558920 0.904980 0.913920 -0.544809
O15   O     O_R   0.729110 0.083860 0.913300 -0.541814
C32   C     C_R   0.389777 0.882786 0.884950 0.677335
O16   O     O_R   0.229360 0.915970 0.086730 -0.538060
O17   O     O_3   0.395680 0.058580 0.000030 -0.362011
V3    V     V_3+5 0.670570 0.989070 0.999990 1.403860
O18   O     O_R   0.058820 0.094950 0.913870 -0.541818
C33   C     C_R   0.889799 0.117678 0.885598 0.687039
O19   O     O_R   0.058990 0.094970 0.086020 -0.507209
C34   C     C_R   0.890456 0.117640 0.114734 0.720603
V4    V     V_3+5 0.170560 0.010930 0.999930 1.440180
O20   O     O_3   0.895590 0.941310 0.999960 -0.375458
O21   O     O_3   0.628097 0.762491 0.382762 -0.560784
C35   C     C_3   0.817365 0.739172 0.359281 -0.170883
H17   H     H_    0.823154 0.668675 0.332519 0.124124
H18   H     H_    0.909575 0.739629 0.415667 0.171063
H19   H     H_    0.878824 0.790294 0.315130 0.121610
O22   O     O_3   0.223208 0.222434 0.172172 -0.555908
C36   C     C_3   0.262850 0.295557 0.116992 -0.253980
H20   H     H_    0.282780 0.361455 0.151003 0.122806
H21   H     H_    0.147904 0.302634 0.068977 0.119943
H22   H     H_    0.399717 0.280478 0.084101 0.162780

loop_
_geom_bond_atom_site_label_1
_geom_bond_atom_site_label_2
_ccdc_geom_bond_type
C28   H16   S    
O14   C32   A    
V4    O20   S    
C4    C6    S    
C7    H1    S    
C35   H19   S    
C1    O6    A    
C36   H20   S    
C13   O22   S    
C23   C24   A    
C22   H12   S    
C21   C22   A    
C11   H4    S    
C5    C12   S    
O15   V3    S    
C7    C8    A    
C35   H18   S    
C6    C7    A    
O5    C3    A    
V3    O20   S    
C19   C24   A    
O12   C31   A    
C15   C16   A    
O14   V3    S    
O8    V2    S    
C13   C14   A    
C25   C26   A    
C18   C34   S    
O18   V4    S    
O17   V4    S    
O15   C33   A    
O7    V1    S    
O11   V4    S    
C2    C30   S    
C19   C20   A    
O9    C4    A    
C9    C33   S    
C21   C32   S    
C20   C21   A    
C36   H21   S    
C26   C27   A    
C25   H14   S    
C22   C23   A    
C5    C10   A    
C31   O16   A    
O17   V3    S    
C25   C30   A    
C10   C11   S    
O19   V4    S    
C27   C31   S    
C11   C12   S    
O16   V4    S    
C16   H8    S    
C14   C15   A    
O2    C1    A    
O21   C35   S    
C17   H9    S    
C23   H13   S    
O9    V2    S    
C9    C10   A    
C5    C6    A    
C35   H17   S    
O3    C4    A    
O1    V2    S    
O13   C34   A    
C19   H10   S    
C12   H6    S    
O6    V2    S    
C28   C29   A    
C20   H11   S    
C3    C15   S    
O2    V1    S    
C36   H22   S    
C26   H15   S    
O4    C2    A    
C27   C28   A    
C16   C17   A    
O1    C2    A    
O22   C36   S    
O5    V1    S    
O8    C3    A    
C11   H3    S    
C1    C24   S    
C14   H7    S    
C29   O21   S    
C8    C9    A    
O7    V2    S    
O4    V1    S    
C17   C18   A    
O3    V1    S    
V1    O10   S    
O11   C32   A    
O13   V3    S    
C29   C30   A    
C13   C18   A    
O18   C33   A    
O19   C34   A    
O12   V3    S    
C12   H5    S    
C8    H2    S    
V2    O10   S    
