data_mof_unit_55351.cif
_audit_creation_date              2012-12-10T19:53:37-0500
_audit_creation_method            fapswitch 2.2
_symmetry_space_group_name_H-M    P1
_symmetry_Int_Tables_number       1
_space_group_crystal_system       triclinic
_cell_length_a                    18.384091
_cell_length_b                    18.392289
_cell_length_c                    42.796448
_cell_angle_alpha                 90.005297
_cell_angle_beta                  89.985374
_cell_angle_gamma                 90.000882
_cell_volume                      14470.5704712

loop_
_atom_site_label
_atom_site_type_symbol
_atom_type_description
_atom_site_fract_x
_atom_site_fract_y
_atom_site_fract_z
_atom_type_partial_charge
C1    C     C_R   0.999957 0.500064 0.915762 0.911737
C2    C     C_R   0.499972 0.000009 0.118593 -0.125997
C3    C     C_R   0.749129 0.801845 0.025005 0.239931
C4    C     C_R   0.812790 0.760197 0.020799 0.229654
C5    C     C_R   0.760101 0.187364 0.020887 0.228352
C6    C     C_R   0.186914 0.239530 0.020640 0.268272
C7    C     C_R   0.241692 0.810575 0.022101 0.264512
C8    C     C_R   0.698184 0.249057 0.525041 0.300814
C9    C     C_R   0.750797 0.698130 0.525009 0.301561
C10   C     C_R   0.301781 0.750956 0.525026 0.241043
C11   C     C_R   0.249146 0.301852 0.525000 0.239882
C12   C     C_R   0.312801 0.260199 0.520800 0.228783
C13   C     C_R   0.500149 0.000046 0.618588 -0.125601
C14   C     C_R   0.260158 0.687296 0.520838 0.228396
C15   C     C_R   0.687166 0.739817 0.520814 0.265684
C16   C     C_R   0.739834 0.312704 0.520859 0.265697
C17   C     C_3   0.337261 0.718597 0.953254 0.133793
C18   C     C_3   0.286954 0.342173 0.956327 0.204593
C19   C     C_3   0.659826 0.283871 0.954727 0.133663
C20   C     C_3   0.715697 0.659382 0.954918 0.134828
C21   C     C_3   0.661173 0.723130 0.952102 0.222192
C22   C     C_3   0.723590 0.338369 0.951937 0.224999
C23   C     C_3   0.340651 0.277977 0.952993 0.206102
C24   C     C_R   0.999886 0.500193 0.618588 -0.125683
C25   C     C_3   0.272623 0.665097 0.950253 0.236846
C26   C     C_3   0.840443 0.215952 0.454818 0.137505
C27   C     C_3   0.784159 0.840372 0.454821 0.137393
C28   C     C_3   0.159594 0.784043 0.454817 0.134941
C29   C     C_3   0.215871 0.159580 0.454831 0.135192
C30   C     C_3   0.161405 0.223367 0.452009 0.223204
C31   C     C_3   0.223373 0.838531 0.452001 0.223528
C32   C     C_3   0.838620 0.776576 0.452002 0.227750
C33   C     C_3   0.776670 0.161460 0.452005 0.227407
C34   C     C_R   0.007579 0.565393 0.135058 -0.218231
C35   C     C_R   0.500720 0.000271 0.781493 0.429521
C36   C     C_R   0.434515 0.007117 0.135066 -0.214477
C37   C     C_R   0.992641 0.434631 0.135062 -0.210106
C38   C     C_R   0.565416 0.992913 0.135061 -0.212566
C39   C     C_R   0.507407 0.065487 0.635037 -0.218585
C40   C     C_R   0.934354 0.507280 0.635011 -0.215827
C41   C     C_R   0.493073 0.934655 0.635081 -0.210074
C42   C     C_R   0.065287 0.493331 0.635103 -0.212829
C43   C     C_R   0.008440 0.566084 0.167696 0.323709
C44   C     C_R   0.433811 0.007933 0.167704 0.324628
C45   C     C_R   0.991883 0.433947 0.167701 0.320284
C46   C     C_R   0.999217 0.500982 0.781480 0.428836
C47   C     C_R   0.566098 0.992115 0.167698 0.319570
C48   C     C_R   0.508373 0.066228 0.667672 0.324244
C49   C     C_R   0.933524 0.508278 0.667643 0.324757
C50   C     C_R   0.492440 0.934014 0.667720 0.320314
C51   C     C_R   0.065847 0.492744 0.667742 0.319756
C52   C     C_R   0.000113 0.500011 0.281502 0.429410
C53   C     C_R   0.499997 0.000001 0.281505 0.429425
C54   C     C_R   0.000162 0.500030 0.218422 0.414919
C55   C     C_R   0.499943 0.000029 0.218426 0.414801
C56   C     C_R   0.500582 0.000215 0.718415 0.414975
C57   C     C_R   0.500032 0.000004 0.915770 0.913822
C58   C     C_R   0.999452 0.500750 0.718405 0.415023
C59   C     C_R   0.504219 0.066648 0.832297 0.381110
C60   C     C_R   0.932890 0.504185 0.832324 0.380185
C61   C     C_R   0.497082 0.933656 0.832232 0.380441
C62   C     C_R   0.065953 0.497569 0.832175 0.389211
C63   C     C_R   0.004058 0.566478 0.332282 0.380343
C64   C     C_R   0.433502 0.003975 0.332286 0.380534
C65   C     C_R   0.996082 0.433526 0.332274 0.380389
C66   C     C_R   0.566514 0.996022 0.332269 0.380256
C67   C     C_R   0.503305 0.065809 0.864926 -0.154025
C68   C     C_R   0.500007 0.000000 0.415769 0.912991
C69   C     C_R   0.933838 0.503243 0.864959 -0.153828
C70   C     C_R   0.497509 0.934363 0.864864 -0.152152
C71   C     C_R   0.065291 0.497910 0.864790 -0.169256
C72   C     C_R   0.003357 0.565705 0.364912 -0.154594
C73   C     C_R   0.434275 0.003309 0.364916 -0.154630
C74   C     C_R   0.996720 0.434293 0.364905 -0.154648
C75   C     C_R   0.565749 0.996690 0.364900 -0.154669
C76   C     C_R   0.500249 0.000050 0.881377 -0.174682
C77   C     C_R   0.999703 0.500377 0.881363 -0.164661
C78   C     C_R   0.000023 0.499997 0.381386 -0.173807
C79   C     C_R   0.000002 0.499998 0.415773 0.912650
C80   C     C_R   0.500013 0.000000 0.381384 -0.173907
C81   C     C_R   0.500720 0.000190 0.815710 -0.216530
C82   C     C_R   0.999347 0.500970 0.815692 -0.216649
C83   C     C_R   0.000086 0.500004 0.315721 -0.215789
C84   C     C_R   0.500006 0.999997 0.315723 -0.215783
C85   C     C_R   0.000013 0.500004 0.084206 0.854432
C86   C     C_R   0.499991 0.000001 0.084210 0.853998
C87   C     C_R   0.500018 0.000007 0.584206 0.853443
C88   C     C_R   0.999982 0.500024 0.584209 0.853781
C89   C     C_R   0.861403 0.641708 0.999417 0.862310
C90   C     C_R   0.000174 0.500019 0.184226 -0.174047
C91   C     C_R   0.358429 0.861230 0.999566 0.873752
C92   C     C_R   0.138698 0.358373 0.999460 0.874099
C93   C     C_R   0.641722 0.138591 0.999422 0.862144
C94   C     C_R   0.140646 0.639482 0.000455 0.925269
C95   C     C_R   0.639528 0.859310 0.000464 0.914860
C96   C     C_R   0.859318 0.360467 0.000458 0.913158
C97   C     C_R   0.360473 0.140677 0.000487 0.914599
C98   C     C_R   0.361411 0.141715 0.499414 0.861771
C99   C     C_R   0.858280 0.361407 0.499423 0.872371
C100  C     C_R   0.638595 0.858288 0.499414 0.872705
C101  C     C_R   0.499949 0.000028 0.184230 -0.174352
C102  C     C_R   0.141717 0.638591 0.499420 0.862126
C103  C     C_R   0.640690 0.139534 0.500458 0.918235
C104  C     C_R   0.139543 0.359320 0.500458 0.914654
C105  C     C_R   0.359313 0.860467 0.500457 0.913231
C106  C     C_R   0.860446 0.640671 0.500460 0.916477
C107  C     C_R   0.233079 0.712877 0.972960 -0.039206
C108  C     C_R   0.289544 0.235321 0.973190 -0.030516
C109  C     C_R   0.765645 0.288521 0.972935 -0.024679
C110  C     C_R   0.711207 0.765337 0.972984 -0.024464
C111  C     C_R   0.761993 0.710571 0.973474 0.000734
C112  C     C_R   0.500481 0.000149 0.684222 -0.174236
C113  C     C_R   0.710873 0.237728 0.973414 0.000049
C114  C     C_R   0.239026 0.290371 0.973796 -0.023786
C115  C     C_R   0.288153 0.763120 0.973561 -0.007888
C116  C     C_R   0.734519 0.211370 0.472958 -0.028905
C117  C     C_R   0.788650 0.734491 0.472956 -0.028723
C118  C     C_R   0.265508 0.788625 0.472949 -0.024408
C119  C     C_R   0.211363 0.265482 0.472948 -0.024434
C120  C     C_R   0.262131 0.210697 0.473436 0.000394
C121  C     C_R   0.210731 0.737838 0.473435 0.000345
C122  C     C_R   0.737895 0.789283 0.473443 -0.006148
C123  C     C_R   0.999613 0.500602 0.684217 -0.174305
C124  C     C_R   0.789290 0.262158 0.473444 -0.005699
C125  C     C_R   0.193901 0.697858 0.000213 -0.287351
C126  C     C_R   0.301734 0.193671 0.000049 -0.288862
C127  C     C_R   0.806278 0.301752 0.000002 -0.271887
C128  C     C_R   0.698222 0.806237 0.000006 -0.272144
C129  C     C_R   0.811629 0.703549 0.997949 -0.247525
C130  C     C_R   0.703607 0.188344 0.997963 -0.247601
C131  C     C_R   0.188713 0.296726 0.998059 -0.256707
C132  C     C_R   0.296885 0.811060 0.998517 -0.252946
C133  C     C_R   0.693742 0.198244 0.500004 -0.291133
C134  C     C_R   0.000071 0.500011 0.118589 -0.125460
C135  C     C_R   0.801698 0.693689 0.499995 -0.290970
C136  C     C_R   0.306258 0.801757 0.499996 -0.272198
C137  C     C_R   0.198279 0.306287 0.499988 -0.272277
C138  C     C_R   0.311669 0.203582 0.497937 -0.247708
C139  C     C_R   0.203584 0.688350 0.497953 -0.247759
C140  C     C_R   0.688338 0.796422 0.497945 -0.256124
C141  C     C_R   0.796418 0.311646 0.497965 -0.256296
C142  C     C_R   0.199991 0.746759 0.025858 0.302822
C143  C     C_R   0.250375 0.197664 0.024904 0.300146
C144  C     C_R   0.801721 0.251034 0.025060 0.241408
H1    H     H_    0.382445 0.694631 0.967125 0.039911
H2    H     H_    0.806024 0.884695 0.469799 0.036688
H3    H     H_    0.115229 0.805869 0.469796 0.033115
H4    H     H_    0.194005 0.115278 0.469820 0.032855
H5    H     H_    0.108104 0.211732 0.463215 0.050113
H6    H     H_    0.211677 0.891798 0.463203 0.049496
H7    H     H_    0.891918 0.788221 0.463197 0.050746
H8    H     H_    0.788360 0.108196 0.463204 0.051559
H9    H     H_    0.013412 0.616023 0.122407 0.234350
H10   H     H_    0.383833 0.012665 0.122419 0.234199
H11   H     H_    0.986783 0.383998 0.122414 0.235884
H12   H     H_    0.308719 0.384953 0.972144 0.063011
H13   H     H_    0.616107 0.987360 0.122410 0.236338
H14   H     H_    0.512956 0.116130 0.622373 0.234024
H15   H     H_    0.883700 0.512660 0.622329 0.233793
H16   H     H_    0.487416 0.883978 0.622448 0.235902
H17   H     H_    0.116031 0.487815 0.622488 0.236102
H18   H     H_    0.505443 0.116730 0.877560 0.262635
H19   H     H_    0.882929 0.505179 0.877630 0.261986
H20   H     H_    0.495261 0.883400 0.877447 0.263287
H21   H     H_    0.116219 0.495776 0.877313 0.223222
H22   H     H_    0.005894 0.616629 0.377531 0.262356
H23   H     H_    0.615388 0.305737 0.969656 0.032924
H24   H     H_    0.383328 0.005851 0.377538 0.262355
H25   H     H_    0.994161 0.383366 0.377518 0.262345
H26   H     H_    0.616697 0.994148 0.377511 0.262276
H27   H     H_    0.197495 0.751072 0.111730 0.396977
H28   H     H_    0.237618 0.189488 0.110574 0.399053
H29   H     H_    0.734121 0.245376 0.088517 0.350817
H30   H     H_    0.755098 0.734638 0.088527 0.351090
H31   H     H_    0.883547 0.904402 0.033526 0.372931
H32   H     H_    0.904372 0.116767 0.033856 0.373074
H33   H     H_    0.115733 0.095143 0.032469 0.371295
H34   H     H_    0.693913 0.615093 0.969937 0.033572
H35   H     H_    0.098274 0.880490 0.038609 0.375830
H36   H     H_    0.691375 0.259973 0.610775 0.398604
H37   H     H_    0.739575 0.691159 0.610735 0.398513
H38   H     H_    0.234308 0.745093 0.588504 0.350804
H39   H     H_    0.255145 0.234613 0.588508 0.350965
H40   H     H_    0.383571 0.404453 0.533480 0.372667
H41   H     H_    0.404469 0.616654 0.533650 0.372785
H42   H     H_    0.616293 0.595581 0.533479 0.373066
H43   H     H_    0.595531 0.383437 0.533689 0.373298
H44   H     H_    0.482616 0.746343 0.932609 0.357044
H45   H     H_    0.607888 0.711516 0.963336 0.054885
H46   H     H_    0.215764 0.492052 0.911079 0.403679
H47   H     H_    0.514117 0.254124 0.936576 0.353345
H48   H     H_    0.744145 0.512786 0.935802 0.352695
H49   H     H_    0.594186 0.748238 0.871861 0.415435
H50   H     H_    0.749835 0.405653 0.871811 0.415010
H51   H     H_    0.409876 0.254919 0.872954 0.415363
H52   H     H_    0.237278 0.608872 0.869168 0.406649
H53   H     H_    0.986959 0.244449 0.435746 0.352667
H54   H     H_    0.755782 0.986879 0.435720 0.352680
H55   H     H_    0.013079 0.755568 0.435739 0.352603
H56   H     H_    0.711825 0.391651 0.963113 0.049891
H57   H     H_    0.244234 0.013051 0.435751 0.352578
H58   H     H_    0.093358 0.249630 0.372012 0.415052
H59   H     H_    0.249693 0.906545 0.371998 0.415055
H60   H     H_    0.906670 0.750228 0.371993 0.415166
H61   H     H_    0.750413 0.093395 0.372006 0.415154
H62   H     H_    0.098107 0.700813 0.155539 0.362293
H63   H     H_    0.298563 0.096873 0.155589 0.362285
H64   H     H_    0.902429 0.299028 0.155552 0.384560
H65   H     H_    0.701416 0.903278 0.155532 0.384479
H66   H     H_    0.597310 0.201414 0.655430 0.362279
H67   H     H_    0.393842 0.288224 0.964529 0.051291
H68   H     H_    0.798046 0.596771 0.655354 0.362466
H69   H     H_    0.403711 0.798546 0.655653 0.384632
H70   H     H_    0.201723 0.404491 0.655738 0.384538
H71   H     H_    0.535462 0.262547 0.826442 0.418457
H72   H     H_    0.736744 0.534448 0.826612 0.418564
H73   H     H_    0.466850 0.737613 0.826126 0.418491
H74   H     H_    0.262318 0.468822 0.826183 0.422573
H75   H     H_    0.035929 0.762271 0.326358 0.418882
H76   H     H_    0.237603 0.035712 0.326369 0.418798
H77   H     H_    0.964250 0.237731 0.326323 0.418919
H78   H     H_    0.284535 0.610304 0.959954 0.095188
H79   H     H_    0.762411 0.964287 0.326298 0.418996
H80   H     H_    0.884799 0.194131 0.469792 0.036382
N1    N     N_R   0.943209 0.528453 0.234417 -0.068575
N2    N     N_R   0.971430 0.443715 0.765496 -0.061655
N3    N     N_R   0.557836 0.972256 0.765461 -0.061280
N4    N     N_R   0.027093 0.558146 0.765454 -0.061086
N5    N     N_R   0.943176 0.528422 0.265496 -0.061232
N6    N     N_R   0.471697 0.943017 0.265500 -0.061312
N7    N     N_R   0.057078 0.471614 0.265495 -0.061469
N8    N     N_R   0.528266 0.057002 0.265499 -0.061435
N9    N     N_R   0.471652 0.943037 0.234421 -0.067823
N10   N     N_R   0.057093 0.471600 0.234415 -0.068507
N11   N     N_R   0.528261 0.057007 0.234420 -0.069160
N12   N     N_R   0.443488 0.028279 0.734433 -0.068656
N13   N     N_R   0.971515 0.443613 0.734418 -0.068101
N14   N     N_R   0.557760 0.972206 0.734382 -0.068568
N15   N     N_R   0.027225 0.558027 0.734376 -0.069051
N16   N     N_R   0.443546 0.028281 0.765513 -0.061430
O1    O     O_3   0.000000 0.500000 0.999980 -0.563398
O2    O     O_R   1.000000 0.560770 0.430670 -0.572092
O3    O     O_3   0.625249 0.387738 0.552909 -0.397186
O4    O     O_2   0.371368 0.717829 0.890974 -0.152793
O5    O     O_2   0.326233 0.832600 0.912851 -0.198356
O6    O     O_3   0.457252 0.791464 0.926243 -0.471858
O7    O     O_2   0.298810 0.385925 0.895637 -0.178061
O8    O     O_2   0.179619 0.339211 0.912309 -0.215470
O9    O     O_3   0.220245 0.466842 0.931372 -0.508709
O10   O     O_2   0.620487 0.291422 0.893138 -0.158423
O11   O     O_2   0.670093 0.175231 0.911618 -0.193932
O12   O     O_3   0.539361 0.211162 0.927818 -0.465014
O13   O     O_R   0.439230 0.000000 0.430670 -0.572014
O14   O     O_2   0.707933 0.619750 0.893343 -0.160279
O15   O     O_2   0.824353 0.668989 0.911752 -0.192750
O16   O     O_3   0.787902 0.538527 0.928084 -0.466572
O17   O     O_2   0.617164 0.841695 0.919854 -0.277468
O18   O     O_2   0.724625 0.780165 0.899750 -0.173667
O19   O     O_3   0.598024 0.719329 0.891317 -0.481117
O20   O     O_2   0.842581 0.382058 0.919848 -0.277374
O21   O     O_2   0.781030 0.274735 0.899686 -0.174538
O22   O     O_3   0.720429 0.401350 0.891119 -0.475014
O23   O     O_2   0.382276 0.159959 0.919767 -0.274330
O24   O     O_R   1.000000 0.439230 0.430670 -0.572327
O25   O     O_2   0.277188 0.225625 0.899760 -0.172093
O26   O     O_3   0.405661 0.283269 0.892549 -0.472377
O27   O     O_2   0.150566 0.626242 0.919365 -0.304512
O28   O     O_2   0.210237 0.736657 0.901160 -0.170973
O29   O     O_3   0.269571 0.611855 0.887651 -0.485519
O30   O     O_2   0.879856 0.208317 0.393215 -0.160286
O31   O     O_2   0.830723 0.324674 0.411730 -0.194334
O32   O     O_3   0.961282 0.288143 0.427945 -0.466790
O33   O     O_2   0.791823 0.879747 0.393222 -0.160347
O34   O     O_2   0.675377 0.830731 0.411741 -0.194271
O35   O     O_R   1.000000 0.560690 0.069300 -0.613569
O36   O     O_3   0.712025 0.961210 0.427965 -0.466934
O37   O     O_2   0.120230 0.791671 0.393219 -0.160206
O38   O     O_2   0.169335 0.675312 0.411724 -0.193838
O39   O     O_3   0.038767 0.711861 0.427951 -0.466614
O40   O     O_2   0.208210 0.120127 0.393240 -0.160228
O41   O     O_2   0.324659 0.169157 0.411728 -0.193897
O42   O     O_3   0.287996 0.038703 0.427983 -0.466656
O43   O     O_2   0.117901 0.342232 0.419841 -0.276662
O44   O     O_2   0.225069 0.280325 0.399672 -0.173690
O45   O     O_3   0.098226 0.220013 0.391228 -0.475540
O46   O     O_R   0.439310 0.000000 0.069300 -0.610953
O47   O     O_2   0.342307 0.882119 0.419848 -0.276597
O48   O     O_2   0.280486 0.774956 0.399673 -0.173727
O49   O     O_3   0.220064 0.901698 0.391219 -0.475543
O50   O     O_2   0.882127 0.657672 0.419843 -0.276794
O51   O     O_2   0.774969 0.719559 0.399683 -0.173809
O52   O     O_3   0.901817 0.779857 0.391210 -0.475812
O53   O     O_2   0.657770 0.117846 0.419856 -0.276849
O54   O     O_2   0.719592 0.225015 0.399682 -0.173799
O55   O     O_3   0.780041 0.098280 0.391220 -0.475843
O56   O     O_2   0.950564 0.673438 0.201614 -0.157967
O57   O     O_R   0.000000 0.439310 0.069300 -0.611685
O58   O     O_2   0.077463 0.642555 0.212334 -0.228299
O59   O     O_3   0.048179 0.715016 0.161762 -0.439945
O60   O     O_2   0.326688 0.949425 0.201576 -0.160320
O61   O     O_2   0.356905 0.076402 0.212380 -0.228067
O62   O     O_3   0.284610 0.046879 0.161783 -0.444634
O63   O     O_2   0.049843 0.326713 0.201643 -0.163146
O64   O     O_2   0.922879 0.357430 0.212335 -0.226152
O65   O     O_3   0.952379 0.284937 0.161780 -0.427742
O66   O     O_2   0.673156 0.050606 0.201597 -0.160160
O67   O     O_2   0.642988 0.923593 0.212341 -0.226067
O68   O     O_R   0.560690 0.000000 0.069300 -0.613378
O69   O     O_3   0.715335 0.953262 0.161759 -0.424513
O70   O     O_2   0.450075 0.173324 0.701607 -0.158191
O71   O     O_2   0.577170 0.143107 0.712246 -0.228182
O72   O     O_3   0.547326 0.215357 0.661679 -0.441915
O73   O     O_2   0.826459 0.449691 0.701524 -0.161157
O74   O     O_2   0.856282 0.576820 0.712194 -0.228110
O75   O     O_3   0.784229 0.546768 0.661590 -0.444804
O76   O     O_2   0.551014 0.827177 0.701700 -0.163287
O77   O     O_2   0.423889 0.857221 0.712391 -0.225999
O78   O     O_3   0.453761 0.784773 0.661865 -0.427791
O79   O     O_R   0.500000 0.060690 0.569300 -0.614081
O80   O     O_2   0.172439 0.551649 0.701781 -0.160177
O81   O     O_2   0.142766 0.424483 0.712439 -0.226036
O82   O     O_3   0.215297 0.454578 0.661951 -0.424839
O83   O     O_2   0.566179 0.147263 0.787201 -0.205290
O84   O     O_2   0.438263 0.171382 0.799668 -0.222626
O85   O     O_3   0.536885 0.216648 0.838530 -0.489279
O86   O     O_2   0.851855 0.565766 0.787283 -0.204707
O87   O     O_2   0.828300 0.437811 0.799754 -0.224915
O88   O     O_3   0.782712 0.536209 0.838655 -0.488489
O89   O     O_2   0.435445 0.852982 0.787094 -0.203804
O90   O     O_R   0.939310 0.500000 0.569300 -0.612285
O91   O     O_2   0.563538 0.829499 0.799418 -0.224139
O92   O     O_3   0.465329 0.783395 0.838298 -0.490606
O93   O     O_2   0.147004 0.436145 0.787091 -0.201215
O94   O     O_2   0.169835 0.564365 0.799310 -0.225640
O95   O     O_3   0.216444 0.466647 0.838289 -0.510834
O96   O     O_2   0.066402 0.646757 0.287179 -0.204856
O97   O     O_2   0.938546 0.671370 0.299580 -0.223795
O98   O     O_3   0.037233 0.716391 0.338462 -0.488573
O99   O     O_2   0.353170 0.066285 0.287206 -0.205079
O100  O     O_2   0.328622 0.938455 0.299559 -0.224238
O101  O     O_R   0.500000 0.939310 0.569300 -0.611318
O102  O     O_3   0.283495 0.037022 0.338476 -0.488645
O103  O     O_2   0.933810 0.353255 0.287158 -0.204309
O104  O     O_2   0.061653 0.328654 0.299559 -0.224365
O105  O     O_3   0.962920 0.283607 0.338433 -0.488510
O106  O     O_2   0.646834 0.933707 0.287165 -0.204326
O107  O     O_2   0.671381 0.061540 0.299516 -0.223645
O108  O     O_3   0.716523 0.962982 0.338418 -0.488616
O109  O     O_3   0.500000 0.000000 0.999980 -0.562650
O110  O     O_R   0.060690 0.500000 0.569300 -0.613170
O111  O     O_R   0.853850 0.585430 0.981810 -0.617186
O112  O     O_R   0.414570 0.853850 0.981810 -0.617087
O113  O     O_R   0.146150 0.414570 0.981810 -0.597513
O114  O     O_R   0.585430 0.146150 0.981810 -0.619138
O115  O     O_R   0.146150 0.585430 0.981810 -0.618178
O116  O     O_R   0.585430 0.853850 0.981810 -0.631384
O117  O     O_R   0.853850 0.414570 0.981810 -0.632327
O118  O     O_R   0.414570 0.146150 0.981810 -0.631297
O119  O     O_R   0.353850 0.085430 0.481810 -0.617360
O120  O     O_3   0.500000 0.000000 0.499980 -0.562640
O121  O     O_R   0.914570 0.353850 0.481810 -0.617784
O122  O     O_R   0.646150 0.914570 0.481810 -0.617552
O123  O     O_R   0.085430 0.646150 0.481810 -0.617256
O124  O     O_R   0.646150 0.085430 0.481810 -0.630414
O125  O     O_R   0.085430 0.353850 0.481810 -0.631540
O126  O     O_R   0.353850 0.914570 0.481810 -0.632056
O127  O     O_R   0.914570 0.646150 0.481810 -0.630957
O128  O     O_R   0.085450 0.353830 0.018160 -0.579403
O129  O     O_R   0.646170 0.085450 0.018160 -0.577732
O130  O     O_R   0.914550 0.646170 0.018160 -0.577541
O131  O     O_3   0.000000 0.500000 0.499980 -0.562608
O132  O     O_R   0.353830 0.914550 0.018160 -0.576118
O133  O     O_R   0.914550 0.353830 0.018160 -0.562411
O134  O     O_R   0.353830 0.085450 0.018160 -0.563432
O135  O     O_R   0.085450 0.646170 0.018160 -0.563750
O136  O     O_R   0.646170 0.914550 0.018160 -0.561966
O137  O     O_R   0.585450 0.853830 0.518160 -0.576988
O138  O     O_R   0.146170 0.585450 0.518160 -0.577976
O139  O     O_R   0.414550 0.146170 0.518160 -0.577347
O140  O     O_R   0.853830 0.414550 0.518160 -0.576356
O141  O     O_R   0.414550 0.853830 0.518160 -0.562337
O142  O     O_R   0.060770 0.500000 0.930670 -0.596832
O143  O     O_R   0.853830 0.585450 0.518160 -0.562191
O144  O     O_R   0.585450 0.146170 0.518160 -0.561479
O145  O     O_R   0.146170 0.414550 0.518160 -0.561821
O146  O     O_2   0.091902 0.739118 0.068487 -0.175524
O147  O     O_2   0.181713 0.640783 0.068710 -0.337205
O148  O     O_3   0.219991 0.764996 0.091566 -0.461530
O149  O     O_2   0.254176 0.086933 0.066314 -0.167726
O150  O     O_2   0.352111 0.176938 0.069449 -0.338726
O151  O     O_3   0.225595 0.213275 0.090464 -0.461179
O152  O     O_2   0.911409 0.255793 0.066977 -0.124811
O153  O     O_R   0.500000 0.060770 0.930670 -0.573368
O154  O     O_2   0.822097 0.354031 0.069295 -0.346172
O155  O     O_3   0.784935 0.228307 0.090864 -0.423034
O156  O     O_2   0.744655 0.911723 0.066833 -0.122833
O157  O     O_2   0.646351 0.822500 0.069341 -0.341989
O158  O     O_3   0.772230 0.785430 0.090802 -0.422910
O159  O     O_2   0.908953 0.739970 0.067707 -0.168384
O160  O     O_2   0.957702 0.784035 0.017975 -0.276068
O161  O     O_3   0.887938 0.874762 0.052762 -0.384035
O162  O     O_2   0.739604 0.091407 0.067834 -0.167623
O163  O     O_2   0.784154 0.042576 0.018187 -0.276661
O164  O     O_R   0.939230 0.500000 0.930670 -0.569723
O165  O     O_3   0.874558 0.112505 0.053057 -0.381445
O166  O     O_2   0.089775 0.258824 0.067253 -0.145758
O167  O     O_2   0.042052 0.215972 0.017142 -0.285921
O168  O     O_3   0.110932 0.124348 0.051812 -0.399459
O169  O     O_2   0.266310 0.903665 0.069726 -0.154496
O170  O     O_2   0.216447 0.955296 0.021549 -0.276711
O171  O     O_3   0.130072 0.882854 0.057270 -0.393771
O172  O     O_2   0.588080 0.244382 0.566772 -0.167832
O173  O     O_2   0.678115 0.146385 0.569234 -0.336311
O174  O     O_3   0.714889 0.272369 0.590641 -0.461951
O175  O     O_R   0.500000 0.939230 0.930670 -0.570701
O176  O     O_2   0.755297 0.587990 0.566685 -0.169290
O177  O     O_2   0.853346 0.677967 0.569255 -0.339488
O178  O     O_3   0.727235 0.714696 0.590606 -0.461700
O179  O     O_2   0.411552 0.755593 0.566908 -0.124522
O180  O     O_2   0.322234 0.853815 0.569314 -0.345896
O181  O     O_3   0.285127 0.728021 0.590823 -0.422889
O182  O     O_2   0.244642 0.411709 0.566835 -0.122880
O183  O     O_2   0.146358 0.322460 0.569334 -0.342318
O184  O     O_3   0.272251 0.285412 0.590792 -0.423044
O185  O     O_2   0.409030 0.240048 0.567677 -0.167426
O186  O     O_R   0.560770 0.000000 0.430670 -0.572530
O187  O     O_2   0.457659 0.284092 0.517914 -0.276391
O188  O     O_3   0.387943 0.374824 0.552720 -0.382273
O189  O     O_2   0.239850 0.591200 0.567747 -0.167298
O190  O     O_2   0.284171 0.542512 0.518038 -0.277060
O191  O     O_3   0.374741 0.612331 0.552873 -0.381556
O192  O     O_2   0.590913 0.760001 0.567694 -0.147328
O193  O     O_2   0.542281 0.715988 0.517930 -0.284412
O194  O     O_3   0.611916 0.625212 0.552722 -0.397151
O195  O     O_2   0.760146 0.408765 0.567776 -0.148054
O196  O     O_2   0.715886 0.457511 0.518076 -0.283089
S1    S     S_3+6 0.171077 0.721176 0.064231 0.093101
S2    S     S_3+6 0.773372 0.667354 0.563460 0.095326
S3    S     S_3+6 0.332258 0.773793 0.563506 0.107844
S4    S     S_3+6 0.226403 0.332443 0.563478 0.109203
S5    S     S_3+6 0.394354 0.288498 0.540105 0.154099
S6    S     S_3+6 0.288437 0.605842 0.540202 0.154520
S7    S     S_3+6 0.605570 0.711544 0.540115 0.158642
S8    S     S_3+6 0.711568 0.394175 0.540231 0.158608
S9    S     S_3+6 0.371077 0.765938 0.919308 0.147665
S10   S     S_3+6 0.245536 0.381764 0.922193 0.135801
S11   S     S_3+6 0.624242 0.239836 0.920276 0.148209
S12   S     S_3+6 0.272255 0.166349 0.063350 0.096237
S13   S     S_3+6 0.759554 0.623457 0.920474 0.147649
S14   S     S_3+6 0.651826 0.768729 0.914946 0.118978
S15   S     S_3+6 0.769561 0.347534 0.914841 0.120690
S16   S     S_3+6 0.349839 0.234149 0.915421 0.124424
S17   S     S_3+6 0.223056 0.661590 0.913879 0.116013
S18   S     S_3+6 0.876277 0.259862 0.420378 0.146336
S19   S     S_3+6 0.740254 0.876218 0.420388 0.146350
S20   S     S_3+6 0.123782 0.740130 0.420378 0.147051
S21   S     S_3+6 0.259777 0.123688 0.420396 0.146978
S22   S     S_3+6 0.152246 0.269130 0.414878 0.120928
S23   S     S_3+6 0.832122 0.273990 0.063537 0.107610
S24   S     S_3+6 0.269207 0.847732 0.414876 0.121013
S25   S     S_3+6 0.847788 0.730769 0.414875 0.120548
S26   S     S_3+6 0.730868 0.152244 0.414882 0.120515
S27   S     S_3+6 0.021250 0.650348 0.187050 0.126335
S28   S     S_3+6 0.349428 0.020241 0.187059 0.124837
S29   S     S_3+6 0.979156 0.349683 0.187062 0.128333
S30   S     S_3+6 0.650468 0.979811 0.187047 0.130614
S31   S     S_3+6 0.520825 0.150581 0.686999 0.126156
S32   S     S_3+6 0.849043 0.520476 0.686935 0.124100
S33   S     S_3+6 0.480194 0.849724 0.687116 0.128361
S34   S     S_3+6 0.726398 0.832460 0.063482 0.109340
S35   S     S_3+6 0.150158 0.480786 0.687175 0.130557
S36   S     S_3+6 0.511174 0.151783 0.813122 0.103636
S37   S     S_3+6 0.847638 0.510777 0.813203 0.102373
S38   S     S_3+6 0.490565 0.848593 0.812962 0.103317
S39   S     S_3+6 0.151101 0.491397 0.812913 0.096571
S40   S     S_3+6 0.011355 0.651545 0.313074 0.102725
S41   S     S_3+6 0.348400 0.011229 0.313081 0.102496
S42   S     S_3+6 0.988823 0.348465 0.313055 0.102803
S43   S     S_3+6 0.651610 0.988767 0.313041 0.103058
S44   S     S_3+6 0.894339 0.788443 0.040136 0.152333
S45   S     S_3+6 0.788310 0.105972 0.040320 0.154646
S46   S     S_3+6 0.104905 0.210958 0.039531 0.157506
S47   S     S_3+6 0.214923 0.890531 0.042998 0.161031
S48   S     S_3+6 0.667475 0.226343 0.563493 0.096440
Zn1   Zn    Zn3+2 1.000000 0.586730 0.025950 1.114847
Zn2   Zn    Zn3+2 0.500000 0.913260 0.974020 1.074841
Zn3   Zn    Zn3+2 0.086740 0.500000 0.974020 1.082126
Zn4   Zn    Zn3+2 0.500000 0.086740 0.974020 1.070662
Zn5   Zn    Zn3+2 0.413260 1.000000 0.474020 1.071994
Zn6   Zn    Zn3+2 1.000000 0.413260 0.474020 1.074108
Zn7   Zn    Zn3+2 0.586740 1.000000 0.474020 1.074900
Zn8   Zn    Zn3+2 1.000000 0.586740 0.474020 1.072457
Zn9   Zn    Zn3+2 0.413270 0.000000 0.025950 1.115982
Zn10  Zn    Zn3+2 1.000000 0.413270 0.025950 1.116682
Zn11  Zn    Zn3+2 0.586730 0.000000 0.025950 1.113510
Zn12  Zn    Zn3+2 0.500000 0.086730 0.525950 1.112699
Zn13  Zn    Zn3+2 0.913270 0.500000 0.525950 1.115590
Zn14  Zn    Zn3+2 0.500000 0.913270 0.525950 1.116430
Zn15  Zn    Zn3+2 0.086730 0.500000 0.525950 1.113577
Zn16  Zn    Zn3+2 0.913260 0.500000 0.974020 1.072620

loop_
_geom_bond_atom_site_label_1
_geom_bond_atom_site_label_2
_ccdc_geom_bond_type
O109  Zn2   S    
O20   S15   D    
C51   C123  A    
O143  Zn13  S    
C21   C110  S    
O163  S45   D    
C42   H17   S    
C57   O153  A    
O161  S44   S    
C93   O129  A    
O88   S37   S    
O30   S18   D    
C31   S24   S    
O5    S9    D    
C98   C138  S    
C35   N3    A    
C57   C76   S    
C56   N14   A    
O178  S2    S    
C22   S15   S    
C19   C113  S    
C126  C143  A    
C1    C77   S    
O150  S12   D    
O9    S10   S    
O117  Zn16  S    
C110  C111  A    
C64   C84   A    
O2    Zn8   S    
O196  S8    D    
H58   O45   S    
C88   O90   A    
O90   Zn13  S    
C109  C127  A    
O92   S38   S    
C66   S43   S    
O184  S4    S    
O28   S17   D    
O102  S41   S    
O8    S10   D    
C95   O136  A    
H61   O55   S    
O111  Zn16  S    
O21   S15   D    
C86   O68   A    
C91   O112  A    
O73   S32   D    
C8    C16   A    
H70   O82   S    
C79   O24   A    
C86   O46   A    
C19   H23   S    
C73   H24   S    
C49   S32   S    
O176  S2    D    
O137  Zn14  S    
O86   S37   D    
O122  Zn7   S    
O59   S27   S    
O103  S42   D    
O105  S42   S    
C31   H6    S    
C30   H5    S    
C116  C133  A    
O145  Zn15  S    
C102  O138  A    
H74   O95   S    
C96   C127  S    
C99   O140  A    
O18   S14   D    
O36   S19   S    
C20   C111  S    
O154  S23   D    
O4    S9    D    
C22   C109  S    
O42   S21   S    
H52   O29   S    
C3    S34   S    
C45   C90   A    
C7    C132  A    
C28   S20   S    
O131  Zn15  S    
O109  Zn4   S    
C5    C130  A    
O133  Zn10  S    
C26   H80   S    
H60   O52   S    
C120  C138  A    
O37   S20   D    
C37   C45   A    
C93   C130  S    
C117  C135  A    
H66   O72   S    
C44   S28   S    
C118  C136  A    
C25   C107  S    
O139  Zn12  S    
C34   H9    S    
C28   H3    S    
O54   S26   D    
H50   O22   S    
C72   H22   S    
C99   C141  S    
O108  S43   S    
C38   H13   S    
C97   C126  S    
O96   S40   D    
C44   C101  A    
H31   O161  S    
C103  O124  A    
O74   S32   D    
O144  Zn12  S    
O49   S24   S    
C97   O118  A    
O91   S38   D    
O170  S47   D    
O44   S22   D    
H64   O65   S    
O116  Zn2   S    
O17   S14   D    
C9    C15   A    
O185  S5    D    
O10   S11   D    
O155  S23   S    
C96   O117  A    
O97   S40   D    
O147  S1    D    
O113  Zn3   S    
O67   S30   D    
H27   O148  S    
N7    N10   A    
C102  C139  S    
C57   O175  A    
O84   S36   D    
C33   S26   S    
O160  S44   D    
C29   S21   S    
O71   S31   D    
O129  Zn11  S    
C20   C21   S    
C17   S9    S    
H69   O78   S    
O149  S12   D    
C110  C128  A    
C63   S40   S    
C89   O111  A    
C144  S23   S    
O165  S45   S    
C94   O135  A    
C20   S13   S    
C40   H15   S    
C69   C77   A    
C67   H18   S    
C48   S31   S    
C32   C117  S    
C117  C122  A    
C29   H4    S    
H79   O108  S    
O25   S16   D    
C89   C129  S    
C31   C118  S    
H40   O188  S    
C103  O144  A    
H39   O184  S    
C53   C84   S    
C33   C116  S    
C54   C90   S    
C52   N5    A    
C34   C134  A    
C51   S35   S    
C40   C49   A    
O60   S28   D    
O82   S35   S    
H51   O26   S    
C89   O130  A    
C65   S42   S    
C72   C78   A    
C59   C67   A    
O131  Zn13  S    
C21   H45   S    
C95   C128  S    
O51   S25   D    
O120  Zn7   S    
C85   O57   A    
C92   O113  A    
C64   C73   A    
C125  C142  A    
O156  S34   D    
C53   N6    A    
O52   S25   S    
O125  Zn6   S    
O124  Zn7   S    
N2    N13   A    
C60   S37   S    
C94   O115  A    
C6    S46   S    
H62   O59   S    
O57   Zn10  S    
O189  S6    D    
O19   S14   S    
C25   S17   S    
C113  C130  A    
O187  S5    D    
H38   O181  S    
O11   S11   D    
O77   S33   D    
C142  S1    S    
C107  C125  A    
C10   C14   A    
C3    C128  A    
C1    O164  A    
O195  S8    D    
H33   O168  S    
H48   O16   S    
C32   S25   S    
N3    N14   A    
C93   O114  A    
C65   C74   A    
O76   S33   D    
O27   S17   D    
C54   N1    A    
C29   C30   S    
C41   H16   S    
C2    C38   A    
C26   C33   S    
O95   S39   S    
C13   C87   S    
C25   H78   S    
O64   S29   D    
O114  Zn4   S    
C9    C135  A    
C48   C112  A    
O112  Zn2   S    
C39   H14   S    
C104  O125  A    
C14   S6    S    
C12   C138  A    
C124  C141  A    
O13   Zn5   S    
C54   N10   A    
C3    C4    A    
O174  S48   S    
C71   C77   A    
O75   S32   S    
C17   C115  S    
C94   C125  S    
C97   O134  A    
O120  Zn12  S    
O45   S22   S    
O169  S47   D    
C34   C43   A    
H57   O42   S    
O115  Zn3   S    
C143  S12   S    
C52   N7    A    
O138  Zn15  S    
O162  S45   D    
O186  Zn7   S    
O128  Zn10  S    
C108  C126  A    
C121  C139  A    
C16   C141  A    
C122  C140  A    
O106  S43   D    
C61   C81   A    
O190  S6    D    
O191  S6    S    
C70   C76   A    
C78   C79   S    
C60   C69   A    
C63   C72   A    
C62   C71   A    
O104  S42   D    
C98   O139  A    
C99   O121  A    
O151  S12   S    
C53   N8    A    
O99   S41   D    
H29   O155  S    
H73   O92   S    
O119  Zn5   S    
C71   H21   S    
O34   S19   D    
C37   C134  A    
C56   N12   A    
H68   O75   S    
O23   S16   D    
C4    S44   S    
C15   S7    S    
O131  Zn6   S    
C58   N15   A    
C61   C70   A    
O43   S22   D    
C24   C42   A    
C114  C131  A    
H28   O151  S    
C13   C41   A    
C36   H10   S    
O62   S28   S    
C58   C123  S    
O29   S17   S    
O166  S46   D    
C22   H56   S    
O81   S35   D    
O100  S41   D    
H36   O174  S    
C49   C123  A    
C104  C137  S    
H77   O105  S    
O53   S26   D    
C108  C114  A    
C18   S10   S    
C74   H25   S    
O68   Zn11  S    
C111  C129  A    
H55   O39   S    
C9    S2    S    
C58   N13   A    
C100  O122  A    
O172  S48   D    
C62   C82   A    
O118  Zn4   S    
H63   O62   S    
C26   C124  S    
O153  Zn4   S    
O1    Zn10  S    
C27   C122  S    
C64   S41   S    
C29   C120  S    
C43   C90   A    
O179  S3    D    
C115  C132  A    
O181  S3    S    
O182  S4    D    
O72   S31   S    
H43   O3    S    
C47   S30   S    
O159  S44   D    
C5    C144  A    
C20   H34   S    
C91   C132  S    
O39   S20   S    
O146  S1    D    
H46   O9    S    
N1    N5    A    
C85   O35   A    
C63   C83   A    
C52   C83   S    
C17   H1    S    
C105  O126  A    
O175  Zn2   S    
O1    Zn1   S    
O94   S39   D    
O183  S4    D    
C75   H26   S    
O127  Zn8   S    
C8    S48   S    
O58   S27   D    
O3    S8    S    
O35   Zn1   S    
O14   S13   D    
O47   S24   D    
O134  Zn9   S    
O63   S29   D    
H71   O85   S    
C41   C50   A    
O32   S18   S    
C15   C140  A    
C116  C124  A    
C27   C32   S    
C28   C31   S    
C35   N16   A    
C59   C81   A    
C55   N11   A    
C6    C131  A    
O87   S37   D    
C23   S16   S    
C119  C120  A    
C4    C129  A    
C21   S14   S    
H59   O49   S    
H72   O88   S    
O142  Zn3   S    
C11   C137  A    
H30   O158  S    
H35   O171  S    
C23   H67   S    
C27   H2    S    
C23   C108  S    
O132  Zn9   S    
O101  Zn14  S    
H49   O19   S    
O89   S38   D    
O33   S19   D    
C127  C144  A    
O15   S13   D    
C30   S22   S    
O6    S9    S    
O135  Zn1   S    
O136  Zn11  S    
C27   S19   S    
C1    O142  A    
C74   C78   A    
C19   S11   S    
C46   N4    A    
C50   S33   S    
C85   C134  S    
O140  Zn13  S    
C106  O143  A    
O152  S23   D    
C45   S29   S    
C39   C48   A    
C68   C80   S    
O123  Zn8   S    
C47   C101  A    
O121  Zn6   S    
C37   H11   S    
O80   S35   D    
H65   O69   S    
C18   C114  S    
O130  Zn1   S    
C35   C81   S    
C102  O123  A    
H32   O165  S    
O171  S47   S    
O38   S20   D    
C10   C136  A    
O1    Zn3   S    
O41   S21   D    
C104  O145  A    
O148  S1    S    
C65   C83   A    
H54   O36   S    
C30   C119  S    
O55   S26   S    
O177  S2    D    
O16   S13   S    
N6    N9    A    
C79   O2    A    
C92   C131  S    
C100  C140  S    
O173  S48   D    
C60   C82   A    
C11   S4    S    
O109  Zn9   S    
O69   S30   S    
O131  Zn8   S    
C66   C75   A    
H44   O6    S    
C75   C80   A    
O126  Zn5   S    
C105  O141  A    
C42   C51   A    
O1    Zn16  S    
C62   S39   S    
O56   S27   D    
H42   O194  S    
C46   C82   S    
O83   S36   D    
O85   S36   S    
C7    S47   S    
C55   N9    A    
C12   S5    S    
C68   O13   A    
O22   S15   S    
C5    S45   S    
O50   S25   D    
C26   S18   S    
O40   S21   D    
C18   C23   S    
C119  C137  A    
C19   C22   S    
O158  S34   S    
N4    N15   A    
O79   Zn12  S    
O31   S18   D    
C28   C121  S    
O93   S39   D    
C66   C84   A    
N8    N11   A    
N12   N16   A    
C118  C121  A    
O48   S24   D    
O110  Zn15  S    
O26   S16   S    
C24   C88   S    
O188  S5    S    
C50   C112  A    
H47   O12   S    
C46   N2    A    
O141  Zn14  S    
C14   C139  A    
H53   O32   S    
H76   O102  S    
C107  C115  A    
C38   C47   A    
C105  C136  S    
O168  S46   S    
O194  S7    S    
C87   O79   A    
C106  C135  S    
O61   S28   D    
C16   S8    S    
O78   S33   S    
C87   O101  A    
O107  S43   D    
O120  Zn5   S    
C91   O132  A    
O192  S7    D    
C100  O137  A    
C2    C36   A    
O70   S31   D    
C8    C133  A    
C59   S36   S    
C68   O186  A    
O12   S11   S    
C69   H19   S    
C18   H12   S    
C17   C25   S    
C33   H8    S    
C70   H20   S    
O157  S34   D    
C11   C12   A    
C109  C113  A    
C55   C101  S    
O193  S7    D    
O7    S10   D    
C103  C133  S    
O180  S3    D    
C10   S3    S    
C32   H7    S    
O109  Zn11  S    
H75   O98   S    
O120  Zn14  S    
C24   C40   A    
C73   C80   A    
C2    C86   S    
C106  O127  A    
C88   O110  A    
H37   O178  S    
C13   C39   A    
C36   C44   A    
C43   S27   S    
C96   O133  A    
O167  S46   D    
O98   S40   S    
C61   S38   S    
O66   S30   D    
O65   S29   S    
O164  Zn16  S    
C95   O116  A    
C92   O128  A    
C67   C76   A    
O46   Zn9   S    
C6    C143  A    
H41   O191  S    
C56   C112  S    
C7    C142  A    
C98   O119  A    
O24   Zn6   S    
