data_mof_unit_43285.cif
_audit_creation_date              2012-12-11T14:43:39-0500
_audit_creation_method            fapswitch 2.2
_symmetry_space_group_name_H-M    P1
_symmetry_Int_Tables_number       1
_space_group_crystal_system       triclinic
_cell_length_a                    20.222682
_cell_length_b                    7.096435
_cell_length_c                    17.265675
_cell_angle_alpha                 89.882044
_cell_angle_beta                  91.8338
_cell_angle_gamma                 89.927889
_cell_volume                      2476.50246097

loop_
_atom_site_label
_atom_site_type_symbol
_atom_type_description
_atom_site_fract_x
_atom_site_fract_y
_atom_site_fract_z
_atom_type_partial_charge
O1    O     O_R   0.564840 0.505290 0.579830 -0.533486
O2    O     O_R   0.435160 0.005290 0.420170 -0.533909
O3    O     O_R   0.556720 0.179930 0.409350 -0.564889
O4    O     O_R   0.443280 0.679930 0.590650 -0.569249
C1    C     C_R   0.570287 0.342184 0.381559 0.761012
C2    C     C_R   0.429768 0.841916 0.618531 0.756427
O5    O     O_R   0.572280 0.175810 0.578530 -0.503481
O6    O     O_R   0.427720 0.675810 0.421470 -0.505255
O7    O     O_R   0.450830 0.001920 0.590540 -0.513293
O8    O     O_R   0.549170 0.501920 0.409460 -0.511482
C3    C     C_R   0.590694 0.342548 0.603395 0.773844
C4    C     C_R   0.409427 0.843127 0.396560 0.783628
O9    O     O_3   0.460130 0.338030 0.503750 -0.377027
O10   O     O_3   0.539870 0.838030 0.496250 -0.370929
V1    V     V_3+5 0.507400 0.064560 0.499310 1.624232
V2    V     V_3+5 0.492600 0.564560 0.500690 1.616776
C5    C     C_R   0.142886 0.923900 0.167732 -0.079938
C6    C     C_R   0.857142 0.425371 0.832263 -0.074287
C7    C     C_R   0.355952 0.845445 0.334808 -0.253137
C8    C     C_R   0.644728 0.342942 0.664609 -0.238696
C9    C     C_R   0.318757 0.769664 0.203425 0.357803
C10   C     C_R   0.683449 0.257949 0.794553 0.309962
C11   C     C_R   0.363231 0.738496 0.266119 0.351811
C12   C     C_R   0.639644 0.227079 0.731463 0.319567
C13   C     C_R   0.297339 0.953859 0.343359 -0.127180
C14   C     C_R   0.701973 0.457810 0.657421 -0.136364
C15   C     C_R   0.245593 0.947097 0.285317 0.047990
C16   C     C_R   0.754082 0.449899 0.715070 0.040558
C17   C     C_R   0.255872 0.847809 0.215924 -0.064715
C18   C     C_R   0.745153 0.343537 0.783133 -0.056274
C19   C     C_R   0.203696 0.831765 0.159378 -0.069832
C20   C     C_R   0.797392 0.327646 0.839549 -0.076358
C21   C     C_R   0.135079 0.034461 0.234237 -0.051366
C22   C     C_R   0.863814 0.541346 0.766910 -0.056238
C23   C     C_R   0.184683 0.042357 0.292959 -0.080445
C24   C     C_R   0.813964 0.550538 0.708451 -0.091595
H1    H     H_    0.210853 0.748767 0.108472 0.239827
H2    H     H_    0.791147 0.239868 0.889401 0.237990
H3    H     H_    0.089797 0.113226 0.241443 0.176888
H4    H     H_    0.908423 0.623347 0.760393 0.176123
H5    H     H_    0.175135 0.125496 0.343889 0.146911
H6    H     H_    0.822541 0.638539 0.658507 0.147447
C25   C     C_R   0.351467 0.585439 0.777968 -0.090291
C26   C     C_R   0.647739 0.088998 0.221077 -0.081966
H7    H     H_    0.246392 0.449597 0.849886 0.183864
H8    H     H_    0.752477 0.952571 0.148758 0.184409
C27   C     C_R   0.386713 0.825297 0.686134 -0.042677
C28   C     C_R   0.613199 0.326540 0.313898 -0.050230
C29   C     C_R   0.076069 0.042902 0.741880 0.408753
C30   C     C_R   0.924001 0.539771 0.258323 0.408968
C31   C     C_R   0.117132 0.097982 0.681199 -0.118107
C32   C     C_R   0.883133 0.593569 0.319331 -0.117610
C33   C     C_R   0.181211 0.028003 0.677018 -0.247589
C34   C     C_R   0.819015 0.524349 0.323472 -0.246820
C35   C     C_R   0.205686 0.894920 0.730711 0.060808
C36   C     C_R   0.794253 0.393467 0.269331 0.060701
C37   C     C_R   0.164687 0.839712 0.793088 -0.089455
C38   C     C_R   0.835064 0.339402 0.206672 -0.090510
C39   C     C_R   0.271131 0.818165 0.726886 0.085264
C40   C     C_R   0.728670 0.318046 0.272974 0.085298
C41   C     C_R   0.285947 0.653978 0.771268 0.020516
C42   C     C_R   0.713429 0.155685 0.227988 0.016982
C43   C     C_R   0.235975 0.574694 0.815508 -0.214438
C44   C     C_R   0.763187 0.076483 0.183499 -0.214664
C45   C     C_R   0.188243 0.696457 0.842711 0.361839
C46   C     C_R   0.811245 0.197735 0.156742 0.363488
C47   C     C_R   0.321858 0.897283 0.681634 -0.222726
C48   C     C_R   0.678183 0.396867 0.318594 -0.219955
C49   C     C_R   0.402054 0.679057 0.739658 -0.113392
C50   C     C_R   0.597450 0.182503 0.259898 -0.124442
C51   C     C_R   0.101687 0.925856 0.802769 -0.232536
C52   C     C_R   0.898173 0.424760 0.197150 -0.233194
H9    H     H_    0.312152 0.011198 0.641379 0.126819
H10   H     H_    0.688153 0.509251 0.359277 0.125468
H11   H     H_    0.210033 0.072778 0.628738 0.148542
H12   H     H_    0.790355 0.568060 0.372009 0.145887
O11   O     O_R   0.950790 0.256670 0.090520 -0.539642
O12   O     O_R   0.049210 0.756670 0.909480 -0.540061
O13   O     O_R   0.927720 0.590370 0.921470 -0.544459
O14   O     O_R   0.072280 0.090370 0.078530 -0.542775
C53   C     C_R   0.910007 0.423302 0.895305 0.838421
C54   C     C_R   0.090078 0.922881 0.104597 0.837600
O15   O     O_R   0.943270 0.586180 0.090640 -0.521025
O16   O     O_R   0.056730 0.086180 0.909360 -0.521761
O17   O     O_R   0.064850 0.759970 0.079840 -0.509842
O18   O     O_R   0.935150 0.259970 0.920160 -0.509699
C55   C     C_R   0.933928 0.419446 0.121937 0.886039
C56   C     C_R   0.065987 0.919721 0.878013 0.884029
O19   O     O_3   0.039850 0.428050 0.996240 -0.372610
O20   O     O_3   0.960150 0.928050 0.003760 -0.372506
V3    V     V_3+5 0.992610 0.701540 0.000700 1.726434
V4    V     V_3+5 0.007390 0.201540 0.999300 1.728126
S1    S     S_3+6 0.992347 0.119858 0.739081 -0.034026
O21   O     O_2   0.992164 0.323847 0.761635 -0.378307
O22   O     O_2   0.963765 0.101248 0.657987 -0.318021
O23   O     O_3   0.945197 0.994291 0.798879 -0.536843
H13   H     H_    0.898983 0.027900 0.783885 0.349871
S2    S     S_3+6 0.007601 0.616960 0.260667 -0.034910
O24   O     O_2   0.007254 0.820609 0.237286 -0.380095
O25   O     O_2   0.036493 0.599584 0.341711 -0.318381
O26   O     O_3   0.054785 0.490982 0.201125 -0.535585
H14   H     H_    0.100952 0.526341 0.215330 0.352519
C57   C     C_1   0.095260 0.231793 0.622491 0.480716
N1    N     N_1   0.077911 0.339068 0.575494 -0.252951
C58   C     C_1   0.905180 0.725572 0.378366 0.480328
N2    N     N_1   0.922660 0.831405 0.425628 -0.253244
S3    S     S_3+6 0.207027 0.748533 0.939770 0.020331
O27   O     O_2   0.179507 0.932119 0.967392 -0.374615
O28   O     O_2   0.184556 0.587978 0.989238 -0.322408
O29   O     O_3   0.289849 0.763318 0.943704 -0.419543
H15   H     H_    0.300343 0.878749 0.914122 0.367818
S4    S     S_3+6 0.793330 0.250672 0.059492 0.018784
O30   O     O_2   0.820829 0.434545 0.032081 -0.375384
O31   O     O_2   0.816603 0.090364 0.010621 -0.324454
O32   O     O_3   0.710503 0.265141 0.054406 -0.420100
H16   H     H_    0.699553 0.380385 0.083728 0.364768
S5    S     S_3+6 0.349920 0.777497 0.109370 0.139690
O33   O     O_2   0.330865 0.597891 0.068527 -0.237450
O34   O     O_2   0.320286 0.945835 0.068202 -0.270958
O35   O     O_3   0.432703 0.801767 0.111253 -0.457246
H17   H     H_    0.444999 0.797998 0.056209 0.386559
S6    S     S_3+6 0.651350 0.259933 0.888200 0.125312
O36   O     O_2   0.674728 0.085525 0.930346 -0.255423
O37   O     O_2   0.676312 0.434661 0.928483 -0.281280
O38   O     O_3   0.568144 0.267050 0.885568 -0.429090
H18   H     H_    0.555690 0.265289 0.940583 0.389336
S7    S     S_3+6 0.425118 0.559316 0.258435 0.049349
O39   O     O_2   0.492339 0.647504 0.269101 -0.360385
O40   O     O_2   0.415859 0.413506 0.320359 -0.331788
O41   O     O_3   0.420683 0.445062 0.173135 -0.426982
H19   H     H_    0.466911 0.433849 0.156400 0.379499
S8    S     S_3+6 0.581357 0.038359 0.737532 0.053847
O42   O     O_2   0.512467 0.117776 0.732537 -0.316385
O43   O     O_2   0.590295 0.902079 0.672131 -0.354440
O44   O     O_3   0.590584 0.914622 0.820351 -0.421543
H20   H     H_    0.630664 0.836564 0.813682 0.369690
C59   C     C_1   0.288991 0.061658 0.413605 0.350377
N3    N     N_1   0.282401 0.147674 0.469724 -0.376484
C60   C     C_1   0.708780 0.573353 0.588819 0.355232
N4    N     N_1   0.714149 0.665543 0.534004 -0.369603
C61   C     C_1   0.469948 0.615078 0.750934 0.469997
N5    N     N_1   0.523885 0.563251 0.760103 -0.228500
C62   C     C_1   0.529355 0.121318 0.248476 0.415383
N6    N     N_1   0.475153 0.072393 0.239226 -0.207149
C63   C     C_1   0.367851 0.422109 0.825913 0.383022
N7    N     N_1   0.380927 0.292022 0.863978 -0.232333
C64   C     C_1   0.630870 0.927950 0.172391 0.388995
N8    N     N_1   0.617398 0.799681 0.133732 -0.248169

loop_
_geom_bond_atom_site_label_1
_geom_bond_atom_site_label_2
_ccdc_geom_bond_type
O15   C55   A    
C43   C45   A    
O11   V4    S    
O4    V2    S    
S1    O21   D    
C35   C39   A    
C15   C17   A    
C24   H6    S    
C64   N8    T    
O1    C3    A    
O2    C4    A    
C6    C53   S    
C2    O7    A    
S4    O31   D    
C63   N7    T    
O17   V3    S    
O44   H20   S    
O5    C3    A    
C50   C62   S    
C21   H3    S    
C22   H4    S    
S5    O34   D    
C48   H10   S    
C62   N6    T    
C26   C64   S    
C40   C42   A    
C5    C54   S    
C41   C43   A    
C30   C52   A    
O29   H15   S    
C27   C49   A    
C42   C44   A    
C39   C47   A    
C38   C46   A    
C8    C12   A    
S8    O42   D    
C29   C31   A    
C30   C32   A    
S3    O27   D    
C26   C50   A    
C47   H9    S    
C20   H2    S    
O19   V3    S    
O13   V3    S    
C53   O18   A    
O5    V1    S    
O6    V2    S    
S3    O28   D    
C33   H11   S    
C5    C21   A    
C7    C13   A    
C27   C47   A    
S4    O30   D    
C32   C34   A    
C10   S6    S    
C33   C35   A    
C46   S4    S    
C1    C28   S    
C34   C36   A    
C3    C8    S    
C39   C41   A    
C30   S2    S    
C2    C27   S    
O26   H14   S    
O4    C2    A    
C14   C60   S    
S5    O35   S    
C28   C50   A    
O13   C53   A    
C15   C23   A    
C9    C17   A    
H7    C43   S    
C28   C48   A    
C13   C59   S    
C36   C40   A    
H8    C44   S    
C31   C33   A    
C44   C46   A    
O14   V4    S    
C7    C11   A    
S7    O40   D    
C25   C63   S    
C12   S8    S    
O20   V4    S    
O6    C4    A    
O23   H13   S    
O1    V2    S    
C37   C51   A    
O19   V4    S    
O2    V1    S    
C6    C22   A    
C16   C24   A    
S8    O43   D    
C34   H12   S    
O14   C54   A    
C32   C58   S    
S1    O23   S    
S2    O25   D    
C35   C37   A    
O38   H18   S    
C5    C19   A    
S3    O29   S    
C10   C12   A    
C6    C20   A    
S6    O37   D    
S7    O39   D    
S2    O26   S    
C52   C55   S    
O3    V1    S    
O35   H17   S    
C25   C41   A    
C11   S7    S    
C58   N2    T    
O12   C56   A    
C10   C18   A    
O16   C56   A    
C37   C45   A    
O3    C1    A    
C60   N4    T    
O12   V3    S    
C13   C15   A    
C54   O17   A    
O15   V3    S    
C59   N3    T    
C14   C16   A    
C40   C48   A    
C26   C42   A    
S6    O38   S    
C9    C11   A    
O41   H19   S    
O7    V1    S    
S7    O41   S    
C1    O8    A    
C17   C19   A    
O8    V2    S    
C61   N5    T    
C18   C20   A    
C38   C52   A    
O20   V3    S    
S1    O22   D    
C8    C14   A    
C31   C57   S    
S8    O44   S    
C4    C7    S    
C16   C18   A    
C21   C23   A    
C36   C38   A    
C22   C24   A    
C23   H5    S    
C9    S5    S    
C51   C56   S    
C19   H1    S    
O11   C55   A    
C25   C49   A    
S2    O24   D    
C29   C51   A    
O9    V2    S    
C57   N1    T    
O10   V1    S    
O18   V4    S    
O16   V4    S    
C29   S1    S    
S6    O36   D    
S5    O33   D    
C49   C61   S    
C45   S3    S    
S4    O32   S    
O32   H16   S    
