data_mof_unit_26546.cif
_audit_creation_date              2012-12-10T16:35:49-0500
_audit_creation_method            fapswitch 2.2
_symmetry_space_group_name_H-M    P1
_symmetry_Int_Tables_number       1
_space_group_crystal_system       triclinic
_cell_length_a                    14.256281
_cell_length_b                    16.554241
_cell_length_c                    13.105764
_cell_angle_alpha                 90.00494
_cell_angle_beta                  107.88871
_cell_angle_gamma                 90.046278
_cell_volume                      2943.45367933

loop_
_atom_site_label
_atom_site_type_symbol
_atom_type_description
_atom_site_fract_x
_atom_site_fract_y
_atom_site_fract_z
_atom_type_partial_charge
C1    C     C_R   0.314801 0.845286 0.475113 0.514502
C2    C     C_R   0.686733 0.843909 0.522971 0.524389
C3    C     C_R   0.186135 0.656792 0.524180 0.523411
C4    C     C_R   0.186728 0.343901 0.522985 0.524382
C5    C     C_R   0.547813 0.999142 0.786377 0.491655
C6    C     C_R   0.047812 0.499142 0.786377 0.491664
C7    C     C_R   0.451483 0.000098 0.214779 0.527970
C8    C     C_R   0.951483 0.500098 0.214779 0.527971
C9    C     C_2   0.428884 0.001002 0.098313 0.036724
C10   C     C_2   0.928882 0.501003 0.098313 0.036718
C11   C     C_2   0.502918 0.982766 0.058858 -0.111827
C12   C     C_R   0.314730 0.154601 0.475489 0.514632
C13   C     C_2   0.002913 0.482764 0.058855 -0.111838
C14   C     C_2   0.568984 0.997656 0.904169 0.055063
C15   C     C_2   0.068983 0.497651 0.904169 0.055061
C16   C     C_2   0.492608 0.988407 0.943673 -0.173800
C17   C     C_2   0.992605 0.488413 0.943671 -0.173802
C18   C     C_2   0.759564 0.221969 0.535193 -0.007336
C19   C     C_2   0.762646 0.781662 0.529085 -0.006755
C20   C     C_2   0.259598 0.721937 0.535141 -0.007321
C21   C     C_2   0.262624 0.281630 0.529143 -0.006758
C22   C     C_2   0.672325 0.008889 0.974584 0.562223
C23   C     C_R   0.814805 0.345283 0.475118 0.514501
C24   C     C_2   0.172328 0.508865 0.974585 0.562235
C25   C     C_3   0.327729 0.027637 0.026689 -0.282481
C26   C     C_3   0.254531 0.048767 0.087002 -0.429714
C27   C     C_3   0.827729 0.527650 0.026695 -0.282480
C28   C     C_3   0.754526 0.548757 0.087011 -0.429707
C29   C     C_3   0.357853 0.722575 0.627790 -0.287915
C30   C     C_3   0.378253 0.654168 0.710074 -0.404712
C31   C     C_3   0.368442 0.289819 0.607168 -0.285701
C32   C     C_3   0.395250 0.365714 0.676609 -0.406746
C33   C     C_3   0.857748 0.222669 0.627940 -0.287967
C34   C     C_R   0.814732 0.654602 0.475494 0.514633
C35   C     C_3   0.877998 0.154392 0.710406 -0.404664
C36   C     C_3   0.868508 0.789921 0.606982 -0.285680
C37   C     C_3   0.895362 0.865907 0.676234 -0.406811
C38   C     C_3   0.649254 0.291833 0.363069 -0.259139
C39   C     C_3   0.649553 0.363915 0.289586 -0.445169
C40   C     C_3   0.638584 0.696021 0.382904 -0.260249
C41   C     C_3   0.631104 0.615212 0.323687 -0.450937
C42   C     C_3   0.149199 0.791885 0.363133 -0.259142
C43   C     C_3   0.149469 0.863995 0.289683 -0.445184
C44   C     C_3   0.138630 0.196086 0.382772 -0.260252
C45   C     C_2   0.240714 0.783911 0.462013 0.017697
C46   C     C_3   0.131175 0.115313 0.323480 -0.450954
C47   C     C_2   0.239525 0.214721 0.464243 0.018509
C48   C     C_2   0.740719 0.283906 0.462013 0.017689
C49   C     C_2   0.739522 0.714717 0.464255 0.018499
C50   C     C_R   0.686126 0.156801 0.524195 0.523390
H1    H     H_    0.418607 0.983381 0.888211 0.140314
H2    H     H_    0.336345 0.081445 0.979599 0.156304
H3    H     H_    0.294882 0.977928 0.969928 0.138697
H4    H     H_    0.744314 0.496632 0.135963 0.142132
H5    H     H_    0.780670 0.602063 0.139499 0.170966
H6    H     H_    0.682007 0.563919 0.028517 0.137684
H7    H     H_    0.836351 0.581470 0.979627 0.156318
H8    H     H_    0.794884 0.477953 0.969912 0.138681
H9    H     H_    0.321035 0.652448 0.751526 0.187837
H10   H     H_    0.383380 0.595278 0.671539 0.173825
H11   H     H_    0.450354 0.665137 0.771877 0.124810
H12   H     H_    0.918603 0.483403 0.888209 0.140312
H13   H     H_    0.419659 0.722720 0.592701 0.144134
H14   H     H_    0.362120 0.779724 0.673570 0.154167
H15   H     H_    0.384813 0.420748 0.625877 0.169442
H16   H     H_    0.351758 0.369160 0.733724 0.195732
H17   H     H_    0.474308 0.362854 0.724739 0.124999
H18   H     H_    0.383550 0.237184 0.662540 0.148667
H19   H     H_    0.421002 0.286992 0.559740 0.152073
H20   H     H_    0.820615 0.152741 0.751641 0.187764
H21   H     H_    0.883273 0.095440 0.672087 0.173916
H22   H     H_    0.949991 0.165454 0.772351 0.124834
H23   H     H_    0.573764 0.965103 0.114162 0.163408
H24   H     H_    0.919622 0.222704 0.592954 0.144074
H25   H     H_    0.861990 0.279887 0.673571 0.154248
H26   H     H_    0.884762 0.920876 0.625365 0.169437
H27   H     H_    0.852013 0.869408 0.733485 0.195727
H28   H     H_    0.974468 0.863130 0.724212 0.124991
H29   H     H_    0.883688 0.737351 0.662462 0.148622
H30   H     H_    0.920993 0.787027 0.559470 0.152147
H31   H     H_    0.655160 0.421546 0.334327 0.143693
H32   H     H_    0.711691 0.359120 0.255509 0.168108
H33   H     H_    0.579675 0.364587 0.222112 0.146208
H34   H     H_    0.073757 0.465093 0.114158 0.163409
H35   H     H_    0.642176 0.236714 0.312787 0.184619
H36   H     H_    0.582922 0.298894 0.389864 0.172660
H37   H     H_    0.685382 0.612605 0.278507 0.148638
H38   H     H_    0.643729 0.564228 0.381321 0.160406
H39   H     H_    0.556098 0.608605 0.265712 0.139912
H40   H     H_    0.581857 0.694366 0.425129 0.171507
H41   H     H_    0.620348 0.743796 0.320311 0.177195
H42   H     H_    0.155106 0.921608 0.334467 0.143719
H43   H     H_    0.211578 0.859215 0.255559 0.168058
H44   H     H_    0.079568 0.864691 0.222242 0.146217
H45   H     H_    0.765128 0.059733 0.107486 0.334905
H46   H     H_    0.142070 0.736789 0.312800 0.184639
H47   H     H_    0.082904 0.798938 0.389997 0.172631
H48   H     H_    0.185508 0.112730 0.278369 0.148685
H49   H     H_    0.143738 0.064296 0.381059 0.160313
H50   H     H_    0.056197 0.108739 0.265437 0.139923
H51   H     H_    0.081838 0.194405 0.424909 0.171554
H52   H     H_    0.120470 0.243902 0.320232 0.177169
H53   H     H_    0.265144 0.559686 0.107497 0.334908
H54   H     H_    0.244326 0.996659 0.135985 0.142142
H55   H     H_    0.280677 0.102087 0.139460 0.170943
H56   H     H_    0.182009 0.063915 0.028506 0.137684
O1    O     O_3   0.500010 1.000000 0.500000 -0.432929
O2    O     O_R   0.103010 0.337110 0.452470 -0.566222
O3    O     O_R   0.316670 0.095240 0.537470 -0.543929
O4    O     O_R   0.316670 0.904760 0.537470 -0.548539
O5    O     O_R   0.816670 0.595240 0.537470 -0.543905
O6    O     O_R   0.816670 0.404760 0.537470 -0.548586
O7    O     O_R   0.703490 0.904800 0.585920 -0.540580
O8    O     O_R   0.703490 0.095200 0.585920 -0.544627
O9    O     O_R   0.203490 0.404800 0.585920 -0.540597
O10   O     O_R   0.203490 0.595200 0.585920 -0.544606
O11   O     O_R   0.458050 1.000000 0.725250 -0.560303
O12   O     O_3   0.000010 0.500000 0.500000 -0.432924
O13   O     O_R   0.958050 0.500000 0.725250 -0.560305
O14   O     O_R   0.461630 0.932310 0.264690 -0.547972
O15   O     O_R   0.461630 0.067690 0.264690 -0.534763
O16   O     O_R   0.961630 0.432310 0.264690 -0.547990
O17   O     O_R   0.961630 0.567690 0.264690 -0.534755
O18   O     O_R   0.618750 0.000000 0.745380 -0.505045
O19   O     O_R   0.118750 0.500000 0.745380 -0.505042
O20   O     O_2   0.740424 0.978469 0.949840 -0.510630
O21   O     O_R   0.692115 0.056307 0.067145 -0.716649
O22   O     O_2   0.240419 0.478437 0.949835 -0.510658
O23   O     O_R   0.376880 0.837120 0.424150 -0.548481
O24   O     O_R   0.192130 0.556274 0.067156 -0.716630
O25   O     O_R   0.376880 0.162880 0.424150 -0.553545
O26   O     O_R   0.876880 0.337120 0.424150 -0.548460
O27   O     O_R   0.876880 0.662880 0.424150 -0.553575
O28   O     O_R   0.603010 0.162890 0.452470 -0.564660
O29   O     O_R   0.603010 0.837110 0.452470 -0.566225
O30   O     O_R   0.103010 0.662890 0.452470 -0.564669
Zn1   Zn    Zn3+2 0.485630 0.096680 0.411850 0.911908
Zn2   Zn    Zn3+2 0.485630 0.903320 0.411850 0.909271
Zn3   Zn    Zn3+2 0.985630 0.596680 0.411850 0.911913
Zn4   Zn    Zn3+2 0.985630 0.403320 0.411850 0.909262
Zn5   Zn    Zn3+2 0.399590 0.000000 0.573760 0.909397
Zn6   Zn    Zn3+2 0.899590 0.500000 0.573760 0.909389
Zn7   Zn    Zn3+2 0.629190 0.000000 0.602520 0.941031
Zn8   Zn    Zn3+2 0.129190 0.500000 0.602520 0.941043

loop_
_geom_bond_atom_site_label_1
_geom_bond_atom_site_label_2
_ccdc_geom_bond_type
C10   C27   S    
O29   Zn2   S    
C41   H39   S    
C46   H49   S    
C29   H13   S    
C12   O25   A    
C4    O9    A    
C16   H1    S    
C1    C45   S    
C26   H56   S    
O28   Zn1   S    
C28   H6    S    
C9    C25   S    
C23   O6    A    
C21   C31   S    
C5    O18   A    
C38   H36   S    
C42   H46   S    
C36   C37   S    
C25   H3    S    
C1    O23   A    
C3    O10   A    
C12   C47   S    
C38   C39   S    
C1    O4    A    
C2    O7    A    
C22   O20   D    
O19   Zn8   S    
O6    Zn6   S    
C40   C49   S    
O17   Zn3   S    
C43   H44   S    
C15   C17   D    
C3    O30   A    
O15   Zn1   S    
C50   O28   A    
O5    Zn6   S    
C26   H54   S    
C6    C15   S    
O10   Zn8   S    
C33   H25   S    
O23   Zn2   S    
C35   H20   S    
C30   H10   S    
O18   Zn7   S    
O1    Zn5   S    
C38   C48   S    
C20   C45   D    
C44   C47   S    
C46   H48   S    
C29   H14   S    
C35   H21   S    
C34   O5    A    
C7    O15   A    
O30   Zn3   S    
O12   Zn4   S    
C43   H43   S    
C26   H55   S    
C12   O3    A    
H53   O24   S    
C28   H5    S    
C44   C46   S    
C20   C29   S    
C31   H18   S    
C41   H37   S    
C38   H35   S    
C39   H31   S    
C36   H30   S    
C42   H47   S    
O2    Zn4   S    
C44   H52   S    
C34   O27   A    
C25   C26   S    
C37   H27   S    
C10   C13   D    
O7    Zn7   S    
C5    O11   A    
C50   O8    A    
C42   C45   S    
O1    Zn1   S    
O4    Zn5   S    
O11   Zn5   S    
C29   C30   S    
O25   Zn1   S    
C24   O24   S    
C17   H12   S    
C4    O2    A    
C11   C16   S    
C19   C49   D    
C31   C32   S    
C13   H34   S    
C30   H9    S    
C3    C20   S    
C27   H7    S    
C9    C11   D    
C5    C14   S    
C32   H17   S    
C40   C41   S    
C37   H26   S    
C35   H22   S    
O27   Zn3   S    
C11   H23   S    
C14   C16   D    
O14   Zn2   S    
C42   C43   S    
O1    Zn7   S    
O12   Zn3   S    
C6    O13   A    
C18   C50   S    
C32   H16   S    
C7    C9    S    
C41   H38   S    
C46   H50   S    
O9    Zn8   S    
C15   C24   S    
C34   C49   S    
C28   H4    S    
C23   C48   S    
C2    C19   S    
C7    O14   A    
C2    O29   A    
C39   H32   S    
O12   Zn6   S    
C36   H29   S    
C18   C48   D    
C44   H51   S    
C8    O17   A    
O26   Zn4   S    
C37   H28   S    
O12   Zn8   S    
C43   H42   S    
C13   C17   S    
C19   C36   S    
O8    Zn7   S    
C14   C22   S    
O1    Zn2   S    
C25   H2    S    
O16   Zn4   S    
C4    C21   S    
C8    O16   A    
C22   O21   S    
C27   H8    S    
C33   C35   S    
C23   O26   A    
C40   H41   S    
C18   C33   S    
C39   H33   S    
H45   O21   S    
C33   H24   S    
C31   H19   S    
C8    C10   S    
C30   H11   S    
C27   C28   S    
C24   O22   D    
O13   Zn6   S    
O3    Zn5   S    
C40   H40   S    
C6    O19   A    
C32   H15   S    
C21   C47   D    
