data_mof_unit_35531.cif
_audit_creation_date              2012-12-10T18:06:48-0500
_audit_creation_method            fapswitch 2.2
_symmetry_space_group_name_H-M    P1
_symmetry_Int_Tables_number       1
_space_group_crystal_system       triclinic
_cell_length_a                    12.542514
_cell_length_b                    13.212989
_cell_length_c                    15.304874
_cell_angle_alpha                 84.296896
_cell_angle_beta                  99.207665
_cell_angle_gamma                 96.496526
_cell_volume                      2479.07287524

loop_
_atom_site_label
_atom_site_type_symbol
_atom_type_description
_atom_site_fract_x
_atom_site_fract_y
_atom_site_fract_z
_atom_type_partial_charge
C1    C     C_R   0.442875 0.308662 0.508333 0.901165
C2    C     C_R   0.686633 0.491384 0.943035 -0.005222
C3    C     C_R   0.594657 0.542754 0.904094 0.050329
C4    C     C_R   0.435624 0.515583 0.335364 0.948351
C5    C     C_R   0.743780 0.445887 0.888073 -0.102033
C6    C     C_R   0.706342 0.443194 0.797406 -0.053972
C7    C     C_R   0.559105 0.541450 0.812719 -0.202846
C8    C     C_R   0.623263 0.940671 0.353702 -0.191663
C9    C     C_R   0.577690 0.800635 0.460328 -0.186055
C10   C     C_R   0.341309 0.162246 0.579755 -0.238648
C11   C     C_R   0.320709 0.057653 0.599380 0.491484
C12   C     C_R   0.468787 0.570759 0.100377 0.033383
C13   C     C_R   0.374261 0.990212 0.561131 -0.274533
C14   C     C_R   0.444392 0.027229 0.498493 0.045345
C15   C     C_R   0.450707 0.131976 0.469309 0.062771
C16   C     C_R   0.554631 0.691761 0.485743 0.882955
C17   C     C_R   0.508082 0.964199 0.463107 0.119990
C18   C     C_R   0.561035 0.002372 0.389769 0.070651
C19   C     C_R   0.551376 0.102088 0.353079 -0.123625
C20   C     C_R   0.498778 0.166773 0.393400 -0.119058
C21   C     C_R   0.522652 0.865206 0.499948 -0.276611
C22   C     C_R   0.632169 0.839365 0.387573 0.356643
C23   C     C_R   0.400846 0.649702 0.070977 0.039183
C24   C     C_R   0.408284 0.199714 0.516613 -0.201140
C25   C     C_R   0.143780 0.619372 0.645091 0.377462
C26   C     C_R   0.758965 0.374282 0.400395 -0.086553
C27   C     C_R   0.853289 0.329416 0.395387 0.326816
C28   C     C_R   0.565904 0.488204 0.664692 0.846232
C29   C     C_R   0.950672 0.362757 0.449405 0.279488
C30   C     C_R   0.953106 0.453359 0.493497 -0.144126
C31   C     C_R   0.853532 0.487737 0.503185 0.222086
C32   C     C_R   0.049261 0.508918 0.531816 0.016307
C33   C     C_R   0.046025 0.574526 0.599358 0.028451
C34   C     C_R   0.547543 0.552719 0.049465 0.043647
C35   C     C_R   0.945220 0.595587 0.616854 -0.175159
C36   C     C_R   0.851170 0.558140 0.565169 -0.112148
C37   C     C_R   0.147814 0.506096 0.501307 0.044928
C38   C     C_R   0.240418 0.605947 0.615737 -0.084410
C39   C     C_R   0.404562 0.548600 0.241437 -0.140098
C40   C     C_R   0.611402 0.489622 0.759463 -0.105151
C41   C     C_R   0.337337 0.680414 0.130247 -0.008584
C42   C     C_R   0.345018 0.633510 0.216972 -0.247404
C43   C     C_R   0.453197 0.509384 0.178244 0.379379
C44   C     C_1   0.764485 0.387324 0.746862 0.241409
C45   C     C_R   0.534278 0.585689 0.958857 0.050207
C46   C     C_1   0.269811 0.763426 0.106132 0.211102
C47   C     C_R   0.461051 0.659292 0.926934 -0.124138
C48   C     C_R   0.398954 0.694476 0.983581 -0.118139
C49   C     C_R   0.642874 0.509095 0.088431 -0.159850
C50   C     C_R   0.715930 0.483566 0.036306 0.410669
H1    H     H_    0.347534 0.754474 0.957837 0.195193
H2    H     H_    0.486192 0.575627 0.782854 0.164963
H3    H     H_    0.937425 0.645968 0.666326 0.218572
H4    H     H_    0.153380 0.466780 0.444035 0.198090
H5    H     H_    0.682274 0.343341 0.366437 0.218699
H6    H     H_    0.777576 0.584867 0.575900 0.199844
H7    H     H_    0.306036 0.664032 0.265589 0.184225
H8    H     H_    0.456403 0.695016 0.860031 0.180866
H9    H     H_    0.662424 0.499035 0.159978 0.229070
H10   H     H_    0.847652 0.777167 0.437575 0.363396
H11   H     H_    0.135446 0.074893 0.757067 0.405246
H12   H     H_    0.814632 0.407117 0.915533 0.215664
H13   H     H_    0.104823 0.639976 0.872811 0.395647
H14   H     H_    0.179354 0.225628 0.421918 0.391013
H15   H     H_    0.741831 0.186069 0.203906 0.388398
H16   H     H_    0.009111 0.475150 0.072917 0.402417
H17   H     H_    0.444795 0.265640 0.082886 0.395590
H18   H     H_    0.586935 0.130912 0.294516 0.205891
H19   H     H_    0.663231 0.971539 0.297710 0.204241
H20   H     H_    0.489103 0.835133 0.559064 0.169724
H21   H     H_    0.306802 0.214665 0.614818 0.244999
H22   H     H_    0.356694 0.909605 0.578837 0.176895
H23   H     H_    0.494547 0.244018 0.363936 0.215854
H24   H     H_    0.317514 0.636910 0.650055 0.173871
N1    N     N_R   0.239390 0.551900 0.544730 -0.145989
N2    N     N_R   0.759950 0.448600 0.455730 -0.140980
N3    N     N_1   0.811190 0.342465 0.706640 -0.137693
N4    N     N_1   0.215684 0.829919 0.086830 -0.119694
O1    O     O_R   0.374950 0.371210 0.521360 -0.568856
O2    O     O_2   0.759598 0.829652 0.262328 -0.253829
O3    O     O_3   0.807543 0.717357 0.408711 -0.511786
O4    O     O_2   0.130622 0.957293 0.620847 -0.218870
O5    O     O_2   0.281539 0.937018 0.742904 -0.242337
O6    O     O_3   0.191159 0.107406 0.721252 -0.508286
O7    O     O_2   0.264380 0.718089 0.778301 -0.324598
O8    O     O_2   0.084757 0.774062 0.722284 -0.228768
O9    O     O_3   0.095168 0.601790 0.819111 -0.534786
O10   O     O_2   0.116922 0.299754 0.571832 -0.288529
O11   O     O_2   0.001460 0.168269 0.491984 -0.186110
O12   O     O_R   0.542050 0.338030 0.492790 -0.625693
O13   O     O_3   0.137627 0.285935 0.407169 -0.519415
O14   O     O_2   0.949023 0.226149 0.290800 -0.157194
O15   O     O_2   0.814985 0.129161 0.375351 -0.290768
O16   O     O_3   0.745821 0.247067 0.237491 -0.497248
O17   O     O_2   0.858371 0.457510 0.186976 -0.243018
O18   O     O_2   0.839435 0.328300 0.079395 -0.255594
O19   O     O_3   0.942792 0.505086 0.042245 -0.548043
O20   O     O_2   0.561369 0.343914 0.226652 -0.343469
O21   O     O_2   0.365480 0.322256 0.229360 -0.303341
O22   O     O_3   0.432925 0.339029 0.076362 -0.518766
O23   O     O_R   0.368720 0.526070 0.390200 -0.616761
O24   O     O_R   0.535820 0.492890 0.361630 -0.560454
O25   O     O_R   0.457950 0.661970 0.507210 -0.626779
O26   O     O_R   0.625050 0.628790 0.478640 -0.563255
O27   O     O_R   0.464180 0.507110 0.638370 -0.606535
O28   O     O_R   0.631280 0.473930 0.609800 -0.640741
O29   O     O_2   0.635494 0.679383 0.293509 -0.292421
S1    S     S_3+6 0.708616 0.765560 0.334409 0.063647
S2    S     S_3+6 0.228884 0.011090 0.672805 0.092087
S3    S     S_3+6 0.149053 0.683131 0.742435 0.036902
S4    S     S_3+6 0.052981 0.276382 0.483159 0.079551
S5    S     S_3+6 0.843530 0.229255 0.324664 0.114377
S6    S     S_3+6 0.840689 0.440346 0.089843 0.072773
S7    S     S_3+6 0.454054 0.374892 0.180675 0.005913
Zn1   Zn    Zn3+2 0.388420 0.522150 0.519080 0.996493
Zn2   Zn    Zn3+2 0.611580 0.477850 0.480920 1.021229

loop_
_geom_bond_atom_site_label_1
_geom_bond_atom_site_label_2
_ccdc_geom_bond_type
C1    O12   A    
O1    Zn1   S    
C35   H3    S    
C41   C42   A    
C19   C20   A    
C26   H5    S    
O21   S7    D    
O9    S3    S    
C12   C23   A    
C26   C27   A    
H16   O19   S    
C44   N3    T    
O8    S3    D    
C9    C16   S    
C7    H2    S    
C12   C43   A    
C3    C7    A    
C43   S7    S    
C30   C31   A    
C9    C22   A    
O20   S7    D    
C27   C29   A    
C28   C40   S    
C18   C19   A    
O13   S4    S    
C2    C50   A    
N2    Zn2   S    
O26   Zn2   S    
O10   S4    D    
C16   O26   A    
C48   H1    S    
C35   C36   A    
C28   O28   A    
C4    O24   A    
C20   H23   S    
C26   N2    A    
C7    C40   A    
O5    S2    D    
O12   Zn2   S    
C10   H21   S    
C37   N1    A    
O3    S1    S    
C6    C44   S    
C13   C14   A    
C14   C17   A    
C42   H7    S    
O27   Zn1   S    
C39   C42   A    
C38   N1    A    
C45   C47   A    
C15   C20   A    
O4    S2    D    
O22   S7    S    
O7    S3    D    
C46   N4    T    
O14   S5    D    
C39   C43   A    
C10   C24   A    
C3    C45   A    
C8    C18   A    
O28   Zn2   S    
C11   S2    S    
O25   Zn1   S    
C29   C30   A    
C36   H6    S    
C25   C38   A    
H10   O3    S    
C16   O25   A    
C8    C22   A    
C47   C48   A    
C4    C39   S    
C28   O27   A    
C41   C46   S    
C4    O23   A    
C17   C18   A    
C8    H19   S    
C19   H18   S    
C34   C45   A    
C32   C37   A    
C25   S3    S    
C37   H4    S    
H17   O22   S    
H15   O16   S    
C27   S5    S    
O23   Zn1   S    
C6    C40   A    
O18   S6    D    
C2    C5    A    
N1    Zn1   S    
O29   S1    D    
C12   C34   A    
C1    O1    A    
C38   H24   S    
O2    S1    D    
C15   C24   A    
C34   C49   A    
C23   C48   A    
H13   O9    S    
C31   C36   A    
C29   S4    S    
H11   O6    S    
C23   C41   A    
C13   H22   S    
O11   S4    D    
O6    S2    S    
C49   H9    S    
C21   H20   S    
C50   S6    S    
C32   C33   A    
C2    C3    A    
C47   H8    S    
C30   C32   A    
C11   C13   A    
C9    C21   A    
C31   N2    A    
C5    C6    A    
O17   S6    D    
C22   S1    S    
O16   S5    S    
C33   C35   A    
C5    H12   S    
C17   C21   A    
O24   Zn2   S    
C10   C11   A    
O15   S5    D    
C1    C24   S    
C49   C50   A    
C14   C15   A    
H14   O13   S    
O19   S6    S    
C25   C33   A    
