data_mof_unit_17199.cif
_audit_creation_date              2012-12-10T18:11:54-0500
_audit_creation_method            fapswitch 2.2
_symmetry_space_group_name_H-M    P1
_symmetry_Int_Tables_number       1
_space_group_crystal_system       triclinic
_cell_length_a                    15.835679
_cell_length_b                    10.748565
_cell_length_c                    9.485594
_cell_angle_alpha                 90.488296
_cell_angle_beta                  91.441846
_cell_angle_gamma                 90.453753
_cell_volume                      1613.92753758

loop_
_atom_site_label
_atom_site_type_symbol
_atom_type_description
_atom_site_fract_x
_atom_site_fract_y
_atom_site_fract_z
_atom_type_partial_charge
C1    C     C_R   0.497206 0.260142 0.499362 0.777620
C2    C     C_3   0.082498 0.500987 0.498486 0.190667
C3    C     C_3   0.974300 0.589409 0.590677 -0.156512
C4    C     C_3   0.917198 0.500116 0.503755 0.191995
C5    C     C_3   0.027118 0.612300 0.457982 -0.159337
C6    C     C_3   0.968423 0.523025 0.371091 -0.151272
C7    C     C_1   0.174296 0.500916 0.496131 -0.086660
C8    C     C_1   0.825480 0.499466 0.505314 -0.072747
C9    C     C_3   0.476569 0.072478 0.647638 -0.352113
C10   C     C_3   0.472874 0.930304 0.646670 -0.377227
C11   C     C_3   0.427835 0.069928 0.393244 -0.397546
C12   C     C_R   0.339898 0.500072 0.498547 0.821886
C13   C     C_3   0.583664 0.074769 0.454132 -0.413135
C14   C     C_3   0.496148 0.122239 0.498477 0.147475
C15   C     C_3   0.497327 0.878343 0.500166 0.085044
C16   C     C_3   0.429629 0.925965 0.392038 -0.404453
C17   C     C_3   0.585287 0.930582 0.455934 -0.123068
C18   C     C_3   0.523492 0.624920 0.091148 -0.170064
C19   C     C_3   0.530132 0.626435 0.925106 0.065484
C20   C     C_3   0.562294 0.409858 0.085500 -0.238634
C21   C     C_3   0.416850 0.469521 0.079348 -0.214257
C22   C     C_3   0.552064 0.397490 0.920317 0.000232
C23   C     C_R   0.498008 0.739985 0.500300 0.764395
C24   C     C_3   0.414845 0.481749 0.912609 -0.271518
C25   C     C_R   0.660038 0.499500 0.501506 0.875354
C26   C     C_3   0.972547 0.388855 0.544296 -0.155007
C27   C     C_3   0.025313 0.411742 0.411606 -0.164829
C28   C     C_1   0.249997 0.500558 0.495888 -0.205145
C29   C     C_1   0.749829 0.499188 0.504657 -0.143485
C30   C     C_3   0.031243 0.478127 0.631195 -0.155736
Cu1   Cu    Cu3+1 0.500040 0.499860 0.642410 0.921176
Cu2   Cu    Cu3+1 0.499960 0.500140 0.357590 0.896725
H1    H     H_    0.047592 0.338897 0.338011 0.127790
H2    H     H_    0.407928 0.898628 0.672088 0.152899
H3    H     H_    0.364246 0.102379 0.423905 0.153657
H4    H     H_    0.366123 0.888729 0.417827 0.158877
H5    H     H_    0.597239 0.107428 0.345853 0.144989
H6    H     H_    0.633667 0.116209 0.524970 0.193501
H7    H     H_    0.596195 0.897871 0.346104 0.118890
H8    H     H_    0.439099 0.104453 0.284976 0.167964
H9    H     H_    0.443799 0.892648 0.283832 0.164005
H10   H     H_    0.580167 0.658700 0.149891 0.162715
H11   H     H_    0.948724 0.297231 0.579876 0.132578
H12   H     H_    0.473740 0.692116 0.121280 0.116778
H13   H     H_    0.482447 0.696316 0.890013 0.104367
H14   H     H_    0.627730 0.437133 0.117825 0.159508
H15   H     H_    0.398042 0.373394 0.108834 0.141843
H16   H     H_    0.368325 0.532470 0.122497 0.156909
H17   H     H_    0.372059 0.559074 0.881723 0.150501
H18   H     H_    0.386027 0.396086 0.864678 0.155776
H19   H     H_    0.551796 0.317003 0.132827 0.140342
H20   H     H_    0.941171 0.541469 0.264391 0.134656
H21   H     H_    0.515474 0.309447 0.901333 0.090887
H22   H     H_    0.050877 0.703960 0.422412 0.126878
H23   H     H_    0.951794 0.662150 0.664234 0.128498
H24   H     H_    0.058422 0.459723 0.737938 0.126731
H25   H     H_    0.415161 0.109619 0.683338 0.142229
H26   H     H_    0.526051 0.103591 0.725479 0.232298
H27   H     H_    0.515142 0.895774 0.731464 0.186210
N1    N     N_3   0.501840 0.500250 0.143650 -0.135171
N2    N     N_3   0.501160 0.503300 0.856280 -0.163608
O1    O     O_R   0.500050 0.317570 0.620260 -0.579036
O2    O     O_R   0.499980 0.317810 0.379740 -0.600875
O3    O     O_R   0.379110 0.499870 0.620240 -0.592252
O4    O     O_R   0.379040 0.500110 0.379720 -0.587381
O5    O     O_R   0.500020 0.682190 0.620260 -0.608505
O6    O     O_R   0.499950 0.682430 0.379740 -0.598939
O7    O     O_R   0.620960 0.499890 0.620280 -0.577457
O8    O     O_R   0.620890 0.500130 0.379760 -0.582787
C31   C     C_2   0.658649 0.883887 0.545591 0.799798
O9    O     O_2   0.669428 0.921061 0.666897 -0.624872
O10   O     O_R   0.715589 0.800464 0.487303 -0.789830
H28   H     H_    0.762529 0.776931 0.556454 0.323912
C32   C     C_3   0.615327 0.687536 0.876565 -0.334488
C33   C     C_3   0.693087 0.691418 0.979096 -0.333640
C34   C     C_3   0.774768 0.718363 0.901956 -0.777957
H29   H     H_    0.785721 0.646394 0.819859 0.272547
H30   H     H_    0.771810 0.811098 0.851702 0.272003
H31   H     H_    0.829011 0.718221 0.978455 0.227732
H32   H     H_    0.685218 0.767285 0.058088 0.197083
H33   H     H_    0.700832 0.603856 0.037886 0.249834
H34   H     H_    0.633952 0.653289 0.774153 0.274784
H35   H     H_    0.602372 0.786975 0.857640 0.180816
C35   C     C_2   0.635963 0.368448 0.854823 0.877607
O11   O     O_2   0.696783 0.437641 0.871406 -0.627865
O12   O     O_R   0.645470 0.256560 0.780957 -0.787463
H36   H     H_    0.704318 0.246253 0.743002 0.328426

loop_
_geom_bond_atom_site_label_1
_geom_bond_atom_site_label_2
_ccdc_geom_bond_type
Cu1   O5    S    
C24   N2    S    
Cu1   N2    S    
C2    C7    S    
C34   H31   S    
C32   H35   S    
C4    C8    S    
C1    O1    A    
C27   H1    S    
C26   C27   S    
C12   C28   S    
C8    C29   T    
C23   O5    A    
C34   H30   S    
C9    H26   S    
C20   H19   S    
C10   C15   S    
C18   H10   S    
C5    C6    S    
C12   O3    A    
C11   C14   S    
C15   C16   S    
C18   C19   S    
C17   H7    S    
C23   O6    A    
C3    H23   S    
C6    C27   S    
C31   O9    D    
C20   N1    S    
C33   H32   S    
C13   H5    S    
C21   H16   S    
C15   C23   S    
C17   C31   S    
C13   C14   S    
C25   C29   S    
Cu1   O1    S    
C25   O7    A    
C32   H34   S    
C1    O2    A    
C26   H11   S    
C22   H21   S    
C24   H18   S    
Cu1   O7    S    
C32   C33   S    
C5    H22   S    
C34   H29   S    
C21   N1    S    
C4    C6    S    
C9    C14   S    
O12   H36   S    
C33   H33   S    
C30   H24   S    
C7    C28   T    
C22   C35   S    
C3    C30   S    
C33   C34   S    
C18   H12   S    
C11   C16   S    
Cu1   Cu2   S    
C10   H2    S    
C35   O11   D    
C13   H6    S    
C2    C27   S    
Cu2   O6    S    
C18   N1    S    
C20   C22   S    
C26   C30   S    
C2    C5    S    
C25   O8    A    
Cu2   N1    S    
C3    C4    S    
C9    C10   S    
C24   H17   S    
C15   C17   S    
Cu1   O3    S    
C19   C32   S    
Cu2   O2    S    
C35   O12   S    
O10   H28   S    
C3    C5    S    
C4    C26   S    
C19   H13   S    
Cu2   O8    S    
C12   O4    A    
C13   C17   S    
C2    C30   S    
C11   H3    S    
C10   H27   S    
C16   H4    S    
C22   N2    S    
C19   N2    S    
C9    H25   S    
C11   H8    S    
C21   C24   S    
C31   O10   S    
C1    C14   S    
C6    H20   S    
C16   H9    S    
C20   H14   S    
Cu2   O4    S    
C21   H15   S    
