data_mof_unit_67133.cif
_audit_creation_date              2013-03-05T15:58:42-0500
_audit_creation_method            fapswitch 2.2
_symmetry_space_group_name_H-M    P1
_symmetry_Int_Tables_number       1
_space_group_crystal_system       triclinic
_cell_length_a                    8.289184
_cell_length_b                    13.128019
_cell_length_c                    14.95939
_cell_angle_alpha                 97.436958
_cell_angle_beta                  96.755225
_cell_angle_gamma                 99.317191
_cell_volume                      1576.84306385

loop_
_atom_site_label
_atom_site_type_symbol
_atom_site_description
_atom_site_fract_x
_atom_site_fract_y
_atom_site_fract_z
_atom_type_partial_charge
P1    P     P_3+3 0.998770 0.403620 0.291990 0.502883
O1    O     O_2   0.827930 0.435360 0.277760 -0.367216
O2    O     O_3   0.100310 0.439010 0.391180 -0.449819
O3    O     O_3   0.625610 0.634200 0.333270 -0.307080
O4    O     O_2   0.663653 0.530196 0.176833 -0.372537
O5    O     O_3   0.955477 0.266658 0.272947 -0.519077
O6    O     O_3   0.681164 0.727847 0.175827 -0.470326
H1    H     H_    0.458492 0.783303 0.164041 0.008285
C1    C     C_3   0.630218 0.870785 0.281297 -0.881964
H2    H     H_    0.576158 0.822583 0.329343 0.232096
H3    H     H_    0.765131 0.891981 0.302521 0.315053
P2    P     P_3+3 0.687370 0.751000 0.571300 0.513475
P3    P     P_3+3 0.109555 0.828786 0.394769 0.533020
O7    O     O_2   0.857120 0.766320 0.543890 -0.303449
O8    O     O_3   0.056570 0.691100 0.379020 -0.328228
O9    O     O_2   0.989729 0.877685 0.450890 -0.360142
O10   O     O_3   0.738502 0.787330 0.689195 -0.531049
O11   O     O_3   0.062954 0.872364 0.290973 -0.513502
C2    C     C_3   0.177400 0.848942 0.232869 0.291160
H4    H     H_    0.292405 0.832105 0.268983 -0.037937
C3    C     C_3   0.227548 0.943391 0.185454 -0.806134
H5    H     H_    0.272355 0.014037 0.236881 0.223164
C4    C     C_3   0.376979 0.784135 0.755706 0.210958
H6    H     H_    0.457786 0.735751 0.786335 0.029503
H7    H     H_    0.448576 0.824559 0.708449 0.106289
C5    C     C_3   0.341406 0.864259 0.829321 0.053434
H8    H     H_    0.457958 0.907185 0.869523 0.065019
H9    H     H_    0.265303 0.825523 0.875907 0.106293
Ba1   Ba    Ba6+2 0.843760 0.550230 0.455610 1.623061
C6    C     C_3   0.959295 0.228980 0.356956 0.379873
H10   H     H_    0.852722 0.245840 0.389865 0.030971
H11   H     H_    0.072210 0.264067 0.404151 0.161695
C7    C     C_3   0.955371 0.112231 0.342083 -0.821337
H12   H     H_    0.840940 0.072548 0.297107 0.259493
H13   H     H_    0.958621 0.081770 0.407751 0.217122
H14   H     H_    0.065554 0.095576 0.311518 0.289877
C8    C     C_3   0.769807 0.704137 0.734180 0.195879
H15   H     H_    0.872390 0.671445 0.706968 0.112589
H16   H     H_    0.659006 0.641736 0.720267 0.133511
C9    C     C_3   0.821275 0.743295 0.839051 -0.529225
H17   H     H_    0.958296 0.760834 0.852789 0.160627
P4    P     P_3+3 0.190950 0.596470 0.708020 0.489072
O12   O     O_2   0.361790 0.564680 0.722290 -0.377232
O13   O     O_3   0.089410 0.561080 0.608830 -0.351774
O14   O     O_3   0.564100 0.365890 0.666740 -0.397340
O15   O     O_3   0.225605 0.731279 0.706685 -0.504738
P5    P     P_3+3 0.086012 0.176807 0.630857 0.513374
O16   O     O_3   0.601940 0.368260 0.453780 -0.381280
O17   O     O_3   0.133140 0.308990 0.620990 -0.407280
O18   O     O_2   0.217269 0.125100 0.585722 -0.368707
O19   O     O_3   0.125730 0.167911 0.747189 -0.432024
Ba2   Ba    Ba6+2 0.346080 0.449860 0.544400 1.607592
P6    P     P_3+3 0.575566 0.618439 0.213900 0.517595
C10   C     C_3   0.592750 0.810329 0.185037 0.390914
H18   H     H_    0.633409 0.864749 0.137931 0.162750
H19   H     H_    0.576671 0.943175 0.284063 0.209902
O20   O     O_3   0.587770 0.631830 0.546230 -0.399076
C11   C     C_3   0.544379 0.250249 0.263778 0.218317
H20   H     H_    0.659241 0.293921 0.303051 0.141592
C12   C     C_3   0.600812 0.202710 0.175043 -0.724478
H21   H     H_    0.661511 0.267490 0.142623 0.181223
H22   H     H_    0.695965 0.155851 0.193351 0.235719
P7    P     P_3+3 0.511857 0.230632 0.431952 0.406552
O21   O     O_2   0.332600 0.233710 0.456170 -0.390639
O22   O     O_3   0.475997 0.176475 0.314796 -0.619974
H23   H     H_    0.331363 0.928679 0.148577 0.188354
C13   C     C_3   0.107969 0.262030 0.799187 0.205668
H24   H     H_    0.185220 0.329628 0.779053 0.117419
H25   H     H_    0.978087 0.273347 0.789039 0.035960
C14   C     C_3   0.167895 0.263950 0.900477 0.283448
H26   H     H_    0.209040 0.345460 0.934172 0.003642
H27   H     H_    0.278196 0.226818 0.909065 0.184405
P8    P     P_3+3 0.602874 0.374128 0.784361 0.506559
C15   C     C_3   0.613627 0.181812 0.735439 0.451397
H28   H     H_    0.718201 0.221593 0.705591 0.008838
O23   O     O_2   0.464868 0.423404 0.824610 -0.362985
O24   O     O_3   0.570123 0.246274 0.807926 -0.481486
H29   H     H_    0.505117 0.156657 0.681760 0.123337
H30   H     H_    0.804802 0.097767 0.779393 0.284855
C16   C     C_3   0.668216 0.086847 0.768542 -0.717298
H31   H     H_    0.622632 0.016575 0.716958 0.181496
H32   H     H_    0.622846 0.073407 0.833588 0.303677
C17   C     C_R   0.351130 0.572914 0.170100 0.116338
H33   H     H_    0.293596 0.564591 0.305039 0.148063
H34   H     H_    0.493235 0.649172 0.033371 0.162558
C18   C     C_R   0.103599 0.469571 0.205313 0.397333
C19   C     C_R   0.913408 0.484290 0.767513 -0.541904
C20   C     C_R   0.815723 0.441950 0.828343 0.297486
C21   C     C_R   0.880244 0.448981 0.920213 -0.219530
C22   C     C_R   0.045170 0.497847 0.953496 0.076386
C23   C     C_R   0.139033 0.547682 0.891412 -0.030038
C24   C     C_R   0.118790 0.501395 0.046890 0.070926
C25   C     C_R   0.283224 0.557476 0.076471 0.026181
C26   C     C_R   0.370184 0.604780 0.013692 -0.125319
C27   C     C_R   0.297046 0.603062 0.925089 -0.026675
C28   C     C_R   0.036858 0.450417 0.112170 -0.248550
C29   C     C_R   0.250373 0.540719 0.233233 -0.388974
C30   C     C_R   0.072849 0.540504 0.797158 0.140221
H35   H     H_    0.919010 0.398976 0.093323 0.173425
H36   H     H_    0.862604 0.475815 0.696406 0.177338
H37   H     H_    0.797732 0.417976 0.964640 0.168523
H38   H     H_    0.365284 0.648361 0.883685 0.143401
C31   C     C_R   0.773466 0.178523 0.540651 -0.538757
C32   C     C_R   0.419782 0.815296 0.480896 -0.454634
C33   C     C_R   0.386896 0.987933 0.450620 -0.211028
C34   C     C_R   0.322378 0.882360 0.447523 0.240604
C35   C     C_R   0.582820 0.851534 0.521170 0.240352
C36   C     C_R   0.649882 0.961877 0.529389 -0.087439
C37   C     C_R   0.549593 0.030222 0.491557 -0.045059
C38   C     C_R   0.613932 0.139198 0.496646 0.259639
C39   C     C_R   0.873392 0.114419 0.577719 0.206964
C40   C     C_R   0.811867 0.006811 0.573348 -0.149573
H39   H     H_    0.307363 0.036239 0.421534 0.185940
H40   H     H_    0.890786 0.959644 0.604745 0.235565
H41   H     H_    0.822187 0.260913 0.544802 0.163653
H42   H     H_    0.366463 0.733559 0.476525 0.168122
S1    S     S_3+6 0.237767 0.955865 0.779820 0.048607
O25   O     O_2   0.061290 0.937451 0.795127 -0.159693
O26   O     O_2   0.320203 0.062496 0.826519 -0.265307
O27   O     O_3   0.241132 0.945526 0.666765 -0.477155
H43   H     H_    0.353800 0.977986 0.659402 0.321329
C41   C     C_2   0.762599 0.663000 0.895365 0.935645
O28   O     O_2   0.630510 0.605458 0.871038 -0.660174
O29   O     O_R   0.844008 0.666144 0.982594 -0.717224
H44   H     H_    0.778498 0.616360 0.016996 0.323340
C42   C     C_2   0.759222 0.840240 0.876228 1.131788
O30   O     O_2   0.754901 0.911284 0.832017 -0.614321
O31   O     O_R   0.710589 0.850322 0.963113 -0.825624
H45   H     H_    0.674364 0.919150 0.980782 0.309199
C43   C     C_2   0.430584 0.325294 0.251676 1.005535
O32   O     O_2   0.291910 0.296635 0.209967 -0.581369
O33   O     O_R   0.474437 0.423004 0.304125 -0.743896
H46   H     H_    0.391031 0.433493 0.346978 0.314810
C44   C     C_2   0.473458 0.133891 0.103994 1.177424
O34   O     O_2   0.351204 0.165171 0.073091 -0.553979
O35   O     O_R   0.505502 0.037702 0.065951 -0.855481
H47   H     H_    0.416123 0.000492 0.014736 0.340319
S2    S     S_3+6 0.011683 0.202291 0.958485 -0.019562
O36   O     O_2   0.060240 0.229576 0.059528 -0.215257
O37   O     O_2   0.849013 0.234378 0.933429 -0.361072
O38   O     O_3   0.990148 0.073653 0.929834 -0.404141
H48   H     H_    0.893531 0.046856 0.958231 0.371701
C45   C     C_2   0.100144 0.753586 0.166599 0.991434
O39   O     O_2   0.135369 0.741852 0.089335 -0.653219
O40   O     O_R   0.986844 0.678530 0.194784 -0.695129
H49   H     H_    0.934498 0.620778 0.144066 0.334474
C46   C     C_2   0.088233 0.962522 0.119878 1.315211
O41   O     O_2   0.090861 0.942524 0.038082 -0.590255
O42   O     O_R   0.954777 0.999900 0.152628 -0.779574
H50   H     H_    0.869191 0.011373 0.102784 0.326424

loop_
_geom_bond_atom_site_label_1
_geom_bond_atom_site_label_2
_geom_bond_distance
_ccdc_geom_bond_type
C19   C20   1.396857 A    
P7    O22   1.775349 S    
C25   C26   1.397323 A    
C16   H31   1.106140 S    
P2    Ba1   3.475050 S    
S1    O25   1.493129 D    
C43   O33   1.383671 S    
C39   C40   1.412446 A    
C5    S1    1.774269 S    
O31   H45   1.010533 S    
C40   H40   1.079876 S    
O40   H49   1.002929 S    
P5    O17   1.745295 S    
C5    H8    1.100878 S    
C42   O30   1.213869 D    
P3    O11   1.745814 S    
C31   C38   1.390968 A    
H33   C29   1.079986 S    
C3    C46   1.500055 S    
O14   P8    1.737076 S    
C2    C3    1.530836 S    
O11   C2    1.403307 S    
C8    C9    1.571674 S    
P4    C30   1.898443 S    
C6    H10   1.099620 S    
O3    P6    1.762356 S    
O12   Ba2   2.861327 S    
C11   C12   1.548068 S    
C45   O39   1.221793 D    
C17   C25   1.422604 A    
C28   H35   1.078019 S    
C24   C28   1.428580 A    
C7    H14   1.108178 S    
C36   C37   1.441769 A    
C12   H22   1.107004 S    
P1    O1    1.538654 D    
P4    O15   1.749550 S    
C4    C5    1.510973 S    
O2    Ba1   2.950687 S    
C18   C29   1.392324 A    
C46   O41   1.221302 D    
C32   H42   1.082826 S    
C2    H4    1.107920 S    
O33   H46   1.010022 S    
C15   O24   1.405442 S    
P2    O10   1.748848 S    
C42   O31   1.401917 S    
C35   C36   1.449009 A    
C14   H26   1.103264 S    
C1    H2    1.104318 S    
O3    Ba1   2.867688 S    
C27   H38   1.061173 S    
C19   C30   1.396267 A    
C21   H37   1.077956 S    
O13   Ba2   2.951519 S    
C4    O15   1.401279 S    
C15   C16   1.514599 S    
C3    H5    1.107471 S    
P4    O13   1.589692 S    
C32   C34   1.387584 A    
O8    Ba1   2.795036 S    
P5    O18   1.547179 D    
C15   H28   1.108311 S    
Ba1   O16   2.853987 S    
C13   H24   1.104020 S    
C16   H32   1.108353 S    
Ba2   O21   2.949531 S    
S1    O27   1.682962 S    
H1    C10   1.106399 S    
P3    C34   1.832111 S    
O16   P7    1.811550 S    
P5    O19   1.755218 S    
O14   Ba2   2.867024 S    
C11   H20   1.088503 S    
P7    O21   1.575770 D    
P1    O5    1.754228 S    
C12   H21   1.112305 S    
P1    O2    1.589691 S    
C3    H23   1.104565 S    
C31   H41   1.082654 S    
P8    C20   1.845308 S    
C8    H15   1.107853 S    
H34   C26   1.076639 S    
C11   O22   1.398975 S    
C22   C24   1.449091 A    
C4    H6    1.096795 S    
O17   Ba2   2.795652 S    
C9    C42   1.513161 S    
P1    Ba1   3.415786 S    
C7    H12   1.105855 S    
C1    H19   1.110219 S    
O19   C13   1.410854 S    
C1    H3    1.105309 S    
C18   C28   1.411969 A    
P2    O20   1.620761 S    
C9    H17   1.110602 S    
O5    C6    1.407713 S    
P2    O7    1.501310 D    
C14   S2    1.786543 S    
P3    O8    1.767484 S    
Ba1   O13   2.853725 S    
C17   C29   1.393821 A    
P8    O23   1.546112 D    
P4    O12   1.538981 D    
O6    P6    1.753726 S    
O7    Ba1   2.949228 S    
C41   O29   1.389137 S    
Ba2   O20   2.853376 S    
C21   C22   1.414787 A    
C12   C44   1.496309 S    
O27   H43   0.986623 S    
C19   H36   1.081688 S    
C33   H39   1.079549 S    
P1    C18   1.870301 S    
C45   O40   1.389874 S    
C33   C37   1.406168 A    
C10   H18   1.108513 S    
C2    C45   1.493257 S    
C6    C7    1.514452 S    
C46   O42   1.394858 S    
Ba1   O20   2.919722 S    
O35   H47   1.013362 S    
S2    O38   1.662672 S    
P2    C35   1.878560 S    
C44   O35   1.395407 S    
O2    Ba2   2.854334 S    
C44   O34   1.217773 D    
S2    O37   1.497342 D    
C31   C39   1.392931 A    
O10   C8    1.397841 S    
C9    C41   1.489192 S    
C33   C34   1.395207 A    
C5    H9    1.110637 S    
P6    C17   1.870664 S    
C13   C14   1.533721 S    
P7    C38   1.878909 S    
S1    O26   1.496457 D    
C43   O32   1.217650 D    
O4    P6    1.544507 D    
C8    H16   1.106895 S    
O42   H50   1.010537 S    
C6    H11   1.098826 S    
C22   C23   1.434711 A    
C11   C43   1.483256 S    
P5    C39   1.855630 S    
C24   C25   1.429864 A    
C7    H13   1.106626 S    
C4    H7    1.107904 S    
C23   C30   1.436951 A    
C26   C27   1.386957 A    
S2    O36   1.498361 D    
C23   C27   1.392672 A    
H30   C16   1.107670 S    
C36   C40   1.420809 A    
O16   Ba2   2.918816 S    
O1    Ba1   2.860930 S    
C20   C21   1.400565 A    
C15   H29   1.108225 S    
P3    O9    1.538372 D    
C37   C38   1.432524 A    
P8    O24   1.744527 S    
C14   H27   1.105887 S    
C1    C10   1.522855 S    
O6    C10   1.403808 S    
C13   H25   1.106068 S    
C41   O28   1.212095 D    
O38   H48   0.986465 S    
C32   C35   1.393486 A    
P4    Ba2   3.416333 S    
O29   H44   1.012305 S    
Ba1   Ba2   4.527814 S    
