data_mof_unit_28981.cif
_audit_creation_date              2012-12-11T14:49:41-0500
_audit_creation_method            fapswitch 2.2
_symmetry_space_group_name_H-M    P1
_symmetry_Int_Tables_number       1
_space_group_crystal_system       triclinic
_cell_length_a                    17.026519
_cell_length_b                    7.007497
_cell_length_c                    16.822395
_cell_angle_alpha                 89.999112
_cell_angle_beta                  100.79911
_cell_angle_gamma                 90.001115
_cell_volume                      1971.58909848

loop_
_atom_site_label
_atom_site_type_symbol
_atom_type_description
_atom_site_fract_x
_atom_site_fract_y
_atom_site_fract_z
_atom_type_partial_charge
O1    O     O_R   0.579510 0.506290 0.439030 -0.539062
O2    O     O_R   0.420490 0.006290 0.560970 -0.539070
O3    O     O_R   0.412540 0.170090 0.405290 -0.521136
O4    O     O_R   0.587460 0.670090 0.594710 -0.521136
C1    C     C_R   0.386148 0.345635 0.381304 0.815721
C2    C     C_R   0.613852 0.845635 0.618695 0.815738
O5    O     O_R   0.578390 0.176230 0.429330 -0.534040
O6    O     O_R   0.421610 0.676230 0.570670 -0.534038
O7    O     O_R   0.587530 0.011250 0.585190 -0.564345
O8    O     O_R   0.412470 0.511250 0.414810 -0.564344
C3    C     C_R   0.603736 0.344473 0.412767 0.709839
C4    C     C_R   0.396269 0.844469 0.587240 0.709840
O9    O     O_3   0.502800 0.340940 0.551110 -0.373871
O10   O     O_3   0.497200 0.840940 0.448890 -0.373868
V1    V     V_3+5 0.499480 0.064020 0.490520 1.487035
V2    V     V_3+5 0.500520 0.564020 0.509480 1.487049
C5    C     C_R   0.162514 0.920302 0.856986 -0.127347
C6    C     C_R   0.837512 0.420271 0.143041 -0.127422
C7    C     C_R   0.333687 0.845632 0.638182 -0.157491
C8    C     C_R   0.666330 0.345648 0.361843 -0.157424
C9    C     C_R   0.211229 0.694508 0.665577 0.142377
C10   C     C_R   0.788805 0.194551 0.334484 0.142353
C11   C     C_R   0.271435 0.713537 0.619317 -0.242206
C12   C     C_R   0.728590 0.213590 0.380733 -0.242294
C13   C     C_R   0.336054 0.966345 0.705966 0.308431
C14   C     C_R   0.663964 0.466323 0.294049 0.308393
C15   C     C_R   0.276092 0.949667 0.753808 0.029746
C16   C     C_R   0.723933 0.449645 0.246217 0.029686
C17   C     C_R   0.214412 0.808830 0.736744 0.022487
C18   C     C_R   0.785632 0.308862 0.263310 0.022607
C19   C     C_R   0.158344 0.791797 0.790597 0.297296
C20   C     C_R   0.841719 0.291859 0.209473 0.297361
C21   C     C_R   0.220863 0.062783 0.868085 -0.244370
C22   C     C_R   0.779138 0.562681 0.131912 -0.244333
C23   C     C_R   0.277679 0.074358 0.819273 -0.130217
C24   C     C_R   0.722329 0.574275 0.180729 -0.130210
H1    H     H_    0.222829 0.167223 0.915607 0.144387
H2    H     H_    0.777150 0.667063 0.084365 0.144328
H3    H     H_    0.322290 0.185816 0.832493 0.186554
H4    H     H_    0.677704 0.685689 0.167486 0.186543
H5    H     H_    0.269463 0.623535 0.566465 0.140761
H6    H     H_    0.730549 0.123598 0.433585 0.140747
C25   C     C_3   0.766029 0.705922 0.817732 -0.032675
C26   C     C_3   0.233968 0.205925 0.182269 -0.032654
H7    H     H_    0.811817 0.596190 0.812280 0.075424
H8    H     H_    0.188179 0.096193 0.187722 0.075407
C27   C     C_3   0.699469 0.674994 0.740070 0.240053
C28   C     C_3   0.300528 0.174994 0.259930 0.240088
H9    H     H_    0.722145 0.567497 0.700701 0.064304
H10   H     H_    0.277851 0.067498 0.299301 0.064290
C29   C     C_3   0.837676 0.921999 0.727131 0.351420
C30   C     C_3   0.162325 0.422004 0.272868 0.351432
C31   C     C_3   0.744362 0.063916 0.816886 0.145829
C32   C     C_3   0.255640 0.563919 0.183112 0.145869
C33   C     C_3   0.809675 0.907420 0.813131 -0.162338
C34   C     C_3   0.190325 0.407423 0.186868 -0.162368
H11   H     H_    0.768174 0.208202 0.807930 0.019687
H12   H     H_    0.231833 0.708202 0.192077 0.019638
C35   C     C_3   0.684337 0.863103 0.689942 -0.049251
C36   C     C_3   0.315664 0.363101 0.310056 -0.049288
C37   C     C_3   0.761077 0.913464 0.656636 -0.052300
C38   C     C_3   0.238924 0.413465 0.343363 -0.052281
C39   C     C_3   0.670454 0.032676 0.746798 0.209397
C40   C     C_3   0.329551 0.532666 0.253195 0.209427
H13   H     H_    0.663321 0.165756 0.709657 0.016424
H14   H     H_    0.336695 0.665746 0.290335 0.016413
H15   H     H_    0.748921 0.056427 0.627638 0.075102
H16   H     H_    0.251086 0.556426 0.372360 0.075111
O11   O     O_R   0.087500 0.266000 0.085220 -0.542045
O12   O     O_R   0.912500 0.766000 0.914780 -0.542025
O13   O     O_R   0.921600 0.589950 0.070670 -0.541206
O14   O     O_R   0.078400 0.089950 0.929330 -0.541216
C41   C     C_R   0.896115 0.422011 0.087349 0.667210
C42   C     C_R   0.103900 0.922020 0.912667 0.667306
O15   O     O_R   0.087460 0.596020 0.094710 -0.549138
O16   O     O_R   0.912540 0.096020 0.905290 -0.549126
O17   O     O_R   0.079520 0.760970 0.939020 -0.532253
O18   O     O_R   0.920480 0.260970 0.060980 -0.532370
C43   C     C_R   0.117194 0.426198 0.117171 0.731425
C44   C     C_R   0.882805 0.926197 0.882829 0.731388
O19   O     O_3   0.997180 0.425140 0.948910 -0.364477
O20   O     O_3   0.002820 0.925140 0.051090 -0.364553
V3    V     V_3+5 0.000520 0.702080 0.009480 1.412690
V4    V     V_3+5 0.999480 0.202080 0.990520 1.412658
O21   O     O_3   0.101335 0.649712 0.778326 -0.654191
H17   H     H_    0.052517 0.694281 0.796469 0.310927
O22   O     O_3   0.898785 0.149905 0.221824 -0.654282
H18   H     H_    0.947524 0.194219 0.203459 0.311025
O23   O     O_3   0.890307 0.768519 0.720125 -0.635817
H19   H     H_    0.860027 0.649221 0.705225 0.306219
O24   O     O_3   0.109692 0.268524 0.279874 -0.635769
H20   H     H_    0.139969 0.149226 0.294776 0.306232
O25   O     O_3   0.771524 0.784979 0.595077 -0.651500
H21   H     H_    0.810680 0.844390 0.565665 0.309303
O26   O     O_3   0.228474 0.284980 0.404923 -0.651501
H22   H     H_    0.189320 0.344393 0.434335 0.309316
O27   O     O_3   0.720552 0.065167 0.892569 -0.629109
H23   H     H_    0.761810 0.135941 0.930880 0.283101
O28   O     O_3   0.279444 0.565187 0.107426 -0.629111
H24   H     H_    0.238206 0.636050 0.069128 0.283103
O29   O     O_3   0.599400 0.004136 0.776246 -0.609517
H25   H     H_    0.583649 0.129848 0.795546 0.312918
O30   O     O_3   0.400599 0.504104 0.223740 -0.609496
H26   H     H_    0.416359 0.629813 0.204441 0.312912
C45   C     C_3   0.884527 0.112373 0.716181 -0.330138
C46   C     C_3   0.975469 0.092433 0.731495 -0.615426
H27   H     H_    0.996134 0.020574 0.789646 0.217513
H28   H     H_    0.994537 0.007710 0.682597 0.220515
H29   H     H_    0.003709 0.235663 0.733424 0.207786
H30   H     H_    0.868552 0.167272 0.653245 0.152907
H31   H     H_    0.870198 0.229257 0.755092 0.140100
C47   C     C_3   0.115478 0.612386 0.283811 -0.330238
C48   C     C_3   0.024537 0.592417 0.268554 -0.615319
H32   H     H_    0.003844 0.520599 0.210398 0.217517
H33   H     H_    0.005506 0.507652 0.317461 0.220645
H34   H     H_    0.996295 0.735638 0.266659 0.207731
H35   H     H_    0.131485 0.667362 0.346732 0.152892
H36   H     H_    0.129771 0.729229 0.244860 0.140158
C49   C     C_3   0.144470 0.555728 0.632549 -0.293072
C50   C     C_3   0.161679 0.356646 0.668505 -0.670896
H37   H     H_    0.217661 0.299983 0.652571 0.223829
H38   H     H_    0.168245 0.359416 0.735301 0.264815
H39   H     H_    0.111897 0.258872 0.643394 0.195596
H40   H     H_    0.085060 0.609178 0.639986 0.213766
H41   H     H_    0.138570 0.542581 0.565767 0.141437
C51   C     C_3   0.855524 0.055655 0.367501 -0.292936
C52   C     C_3   0.838293 0.856658 0.331459 -0.670947
H42   H     H_    0.782251 0.800074 0.347284 0.223887
H43   H     H_    0.831820 0.859548 0.264673 0.264777
H44   H     H_    0.888014 0.758756 0.356606 0.195602
H45   H     H_    0.914960 0.109083 0.360139 0.213843
H46   H     H_    0.861370 0.042341 0.434274 0.141384
O31   O     O_3   0.396670 0.098084 0.728971 -0.645074
H47   H     H_    0.443350 0.064894 0.704671 0.311734
O32   O     O_3   0.603336 0.598019 0.271021 -0.645085
H48   H     H_    0.556651 0.564794 0.295306 0.311725
C53   C     C_3   0.745635 0.652966 0.903265 -0.225087
C54   C     C_3   0.659507 0.665292 0.918236 -0.536742
H49   H     H_    0.627021 0.790006 0.888950 0.314221
H50   H     H_    0.626028 0.532386 0.898597 0.212892
H51   H     H_    0.660128 0.678288 0.984063 0.163601
H52   H     H_    0.766107 0.504416 0.918736 0.123831
H53   H     H_    0.781706 0.742490 0.950622 0.172645
C55   C     C_3   0.254356 0.152978 0.096732 -0.225033
C56   C     C_3   0.340486 0.165241 0.081761 -0.536764
H54   H     H_    0.372972 0.290003 0.111007 0.314182
H55   H     H_    0.373963 0.032357 0.101434 0.212918
H56   H     H_    0.339866 0.178109 0.015932 0.163591
H57   H     H_    0.233863 0.004448 0.081251 0.123782
H58   H     H_    0.218302 0.242542 0.049379 0.172672
O33   O     O_3   0.627165 0.605986 0.757302 -0.613123
H59   H     H_    0.632730 0.465542 0.763292 0.276128
O34   O     O_3   0.372832 0.105993 0.242699 -0.613108
H60   H     H_    0.367269 0.965547 0.236719 0.276118

loop_
_geom_bond_atom_site_label_1
_geom_bond_atom_site_label_2
_ccdc_geom_bond_type
C40   O30   S    
C18   C20   A    
C53   H52   S    
C39   H13   S    
O25   H21   S    
C19   O21   S    
O19   V4    S    
C15   C17   A    
C12   H6    S    
C23   H3    S    
O26   H22   S    
O1    C3    A    
C45   H30   S    
O2    C4    A    
O16   V4    S    
C2    O7    A    
O27   H23   S    
O32   H48   S    
C27   H9    S    
C49   H40   S    
O5    C3    A    
C51   C52   S    
C34   C43   S    
C8    C14   A    
C56   H54   S    
C47   H35   S    
C37   O25   S    
C10   C51   S    
C46   H27   S    
C30   C47   S    
C36   C38   S    
C26   C34   S    
C55   H58   S    
C14   O32   S    
O19   V3    S    
C30   C34   S    
C8    C12   A    
C50   H38   S    
C42   O17   A    
C29   C37   S    
O33   H59   S    
C13   O31   S    
C22   C24   A    
C50   H39   S    
C39   O29   S    
C48   H34   S    
C46   H28   S    
C28   H10   S    
C45   H31   S    
C53   C54   S    
O6    V2    S    
C38   O26   S    
C5    C21   A    
C41   O18   A    
C47   C48   S    
C56   H55   S    
C26   H8    S    
C28   C36   S    
O13   V3    S    
C31   C33   S    
C32   C34   S    
C3    C8    S    
C35   C37   S    
O12   C44   A    
O29   H25   S    
C24   H4    S    
O14   C42   A    
O24   H20   S    
O13   C41   A    
C31   H11   S    
C15   C23   A    
O21   H17   S    
C20   O22   S    
C9    C17   A    
C21   H1    S    
C40   H14   S    
O4    V2    S    
C7    C11   A    
C52   H43   S    
C55   H57   S    
O12   V3    S    
C25   H7    S    
C37   H15   S    
O28   H24   S    
C51   H46   S    
O6    C4    A    
O1    V2    S    
O2    V1    S    
C6    C22   A    
O14   V4    S    
C54   H50   S    
C49   H41   S    
C25   C33   S    
C28   O34   S    
C27   O33   S    
C6    C41   S    
O20   V4    S    
C9    C11   A    
O31   H47   S    
C5    C19   A    
C10   C12   A    
C32   O28   S    
O11   C43   A    
O4    C2    A    
C6    C20   A    
C52   H42   S    
C56   H56   S    
O3    V1    S    
C50   H37   S    
C48   H32   S    
C32   H12   S    
C10   C18   A    
C1    C36   S    
C22   H2    S    
C14   C16   A    
C2    C35   S    
O16   C44   A    
C55   C56   S    
O3    C1    A    
C54   H51   S    
C49   C50   S    
C13   C15   A    
C45   C46   S    
C35   C39   S    
C11   H5    S    
C38   H16   S    
C36   C40   S    
C31   O27   S    
C16   C18   A    
O7    V1    S    
C52   H44   S    
C1    O8    A    
C17   C19   A    
O11   V4    S    
O8    V2    S    
O15   C43   A    
C29   O23   S    
C47   H36   S    
C33   C44   S    
C31   C39   S    
O15   V3    S    
C5    C42   S    
C32   C40   S    
C51   H45   S    
C4    C7    S    
O5    V1    S    
C21   C23   A    
C25   C53   S    
C29   C33   S    
C53   H53   S    
C7    C13   A    
C29   C45   S    
C54   H49   S    
C27   C35   S    
O18   V4    S    
C16   C24   A    
O22   H18   S    
C9    C49   S    
O20   V3    S    
O9    V2    S    
O30   H26   S    
O17   V3    S    
O10   V1    S    
C30   O24   S    
C30   C38   S    
C26   C55   S    
C48   H33   S    
O23   H19   S    
C25   C27   S    
C26   C28   S    
O34   H60   S    
C46   H29   S    
