data_mof_unit_32084.cif
_audit_creation_date              2012-12-10T16:38:06-0500
_audit_creation_method            fapswitch 2.2
_symmetry_space_group_name_H-M    P1
_symmetry_Int_Tables_number       1
_space_group_crystal_system       triclinic
_cell_length_a                    28.109033
_cell_length_b                    18.393996
_cell_length_c                    16.953291
_cell_angle_alpha                 89.881823
_cell_angle_beta                  61.630875
_cell_angle_gamma                 90.008933
_cell_volume                      7712.7700552

loop_
_atom_site_label
_atom_site_type_symbol
_atom_type_description
_atom_site_fract_x
_atom_site_fract_y
_atom_site_fract_z
_atom_type_partial_charge
C1    C     C_R   0.702266 0.268815 0.676065 0.876630
C2    C     C_R   0.084419 0.499725 0.544658 0.065535
C3    C     C_R   0.209219 0.179372 0.891585 -0.006633
C4    C     C_R   0.601109 0.300887 0.051178 -0.225109
C5    C     C_R   0.345538 0.601980 0.992184 -0.213919
C6    C     C_R   0.347359 0.368452 0.993191 -0.203520
C7    C     C_R   0.661914 0.583090 0.994026 -0.207075
C8    C     C_R   0.101116 0.800873 0.051157 -0.224563
C9    C     C_R   0.845449 0.101791 0.992339 -0.214032
C10   C     C_R   0.847143 0.867954 0.993834 -0.203205
C11   C     C_R   0.161774 0.083708 0.994065 -0.206339
C12   C     C_R   0.621843 0.266552 0.102850 0.240473
C13   C     C_R   0.416505 0.000114 0.451642 0.068051
C14   C     C_R   0.321526 0.620988 0.939762 0.201995
C15   C     C_R   0.322122 0.343576 0.944253 0.256458
C16   C     C_R   0.695599 0.589677 0.034314 0.229234
C17   C     C_R   0.121855 0.766522 0.102815 0.240449
C18   C     C_R   0.821330 0.120626 0.940014 0.202497
C19   C     C_R   0.821811 0.842991 0.945109 0.257032
C20   C     C_R   0.195233 0.090794 0.034627 0.228989
C21   C     C_R   0.742205 0.193069 0.791829 0.334954
C22   C     C_R   0.216730 0.726723 0.244949 0.335934
C23   C     C_R   0.267863 0.171284 0.202288 0.346792
C24   C     C_R   0.584140 0.999976 0.546100 0.066000
C25   C     C_R   0.783071 0.725288 0.757608 0.343760
C26   C     C_R   0.242343 0.693313 0.791749 0.335399
C27   C     C_R   0.716736 0.226804 0.244935 0.333383
C28   C     C_R   0.769404 0.669426 0.201796 0.335796
C29   C     C_R   0.282996 0.225334 0.757282 0.344210
C30   C     C_R   0.776797 0.193280 0.829200 0.432665
C31   C     C_R   0.191200 0.755424 0.197651 0.416478
C32   C     C_R   0.236153 0.154280 0.159803 0.308456
C33   C     C_R   0.808119 0.751526 0.808040 0.303367
C34   C     C_R   0.276939 0.693690 0.829099 0.432248
C35   C     C_R   0.077485 0.369071 0.558870 -0.117737
C36   C     C_R   0.691223 0.255504 0.197613 0.414368
C37   C     C_R   0.737708 0.651739 0.159316 0.302811
C38   C     C_R   0.308055 0.251834 0.807574 0.302441
C39   C     C_R   0.078057 0.093845 0.930918 0.927106
C40   C     C_R   0.923481 0.901626 0.068331 0.900355
C41   C     C_R   0.922512 0.095525 0.068305 0.918376
C42   C     C_R   0.073020 0.898613 0.935553 0.900909
C43   C     C_R   0.578134 0.593705 0.930876 0.927365
C44   C     C_R   0.423471 0.401679 0.068301 0.900611
C45   C     C_R   0.422520 0.595536 0.068297 0.918591
C46   C     C_R   0.923183 0.630500 0.436861 -0.117720
C47   C     C_R   0.573023 0.398614 0.935552 0.900622
C48   C     C_R   0.539938 0.132355 0.526457 0.010072
C49   C     C_R   0.461272 0.867754 0.469733 0.005522
C50   C     C_R   0.463031 0.132302 0.464736 -0.003761
C51   C     C_R   0.538089 0.867797 0.531643 0.001244
C52   C     C_R   0.040115 0.632044 0.525277 0.009541
C53   C     C_R   0.961993 0.367454 0.466838 0.001623
C54   C     C_R   0.963040 0.632002 0.464037 0.000725
C55   C     C_R   0.038666 0.367493 0.529258 0.001146
C56   C     C_R   0.520378 0.198985 0.511990 0.357028
C57   C     C_R   0.922980 0.369035 0.437698 -0.119804
C58   C     C_R   0.481222 0.801138 0.483308 0.327606
C59   C     C_R   0.484427 0.198824 0.474959 0.311200
C60   C     C_R   0.517132 0.801228 0.520421 0.332913
C61   C     C_R   0.020428 0.698679 0.511137 0.356505
C62   C     C_R   0.982096 0.300862 0.480133 0.328901
C63   C     C_R   0.984369 0.698542 0.474359 0.309846
C64   C     C_R   0.017909 0.300919 0.517494 0.332800
C65   C     C_R   0.481018 0.066287 0.483188 -0.056405
C66   C     C_R   0.520159 0.933824 0.513154 -0.056582
C67   C     C_R   0.521159 0.066262 0.510354 -0.059574
C68   C     C_R   0.078546 0.630492 0.555474 -0.091490
C69   C     C_R   0.480050 0.933847 0.485924 -0.052928
C70   C     C_R   0.981241 0.565951 0.481888 -0.054162
C71   C     C_R   0.020707 0.433509 0.510902 -0.055318
C72   C     C_R   0.021440 0.565943 0.508904 -0.060797
C73   C     C_R   0.980645 0.433514 0.483489 -0.055569
C74   C     C_R   0.960210 0.499735 0.470285 0.064384
C75   C     C_R   0.041599 0.499720 0.522848 0.063622
C76   C     C_R   0.459827 0.000085 0.472106 0.064231
C77   C     C_R   0.541208 0.000024 0.524613 0.063637
C78   C     C_R   0.894751 0.433642 0.440971 -0.029208
C79   C     C_R   0.577167 0.869344 0.560644 -0.118018
C80   C     C_R   0.106509 0.565894 0.553297 -0.074553
C81   C     C_R   0.105846 0.433609 0.555487 -0.027985
C82   C     C_R   0.894543 0.565973 0.441697 -0.062604
C83   C     C_R   0.394108 0.933934 0.443881 -0.066263
C84   C     C_R   0.606325 0.066113 0.554445 -0.074507
C85   C     C_R   0.605645 0.933826 0.556732 -0.028410
C86   C     C_R   0.394726 0.066271 0.441716 -0.024133
C87   C     C_R   0.845307 0.434458 0.436021 -0.254228
C88   C     C_R   0.155481 0.565112 0.559671 -0.168278
C89   C     C_R   0.154741 0.434406 0.562341 -0.251448
C90   C     C_R   0.423380 0.130773 0.436980 -0.116667
C91   C     C_R   0.844725 0.565270 0.438209 -0.164134
C92   C     C_R   0.344541 0.934752 0.439573 -0.165571
C93   C     C_R   0.655439 0.065248 0.560312 -0.169598
C94   C     C_R   0.654735 0.934506 0.562878 -0.251157
C95   C     C_R   0.345204 0.065503 0.437037 -0.245320
C96   C     C_R   0.825149 0.500316 0.422791 0.365192
C97   C     C_R   0.174522 0.500185 0.576321 0.357857
C98   C     C_R   0.324957 0.999681 0.424318 0.353166
C99   C     C_R   0.674624 0.000278 0.576651 0.358444
C100  C     C_3   0.653468 0.407990 0.748949 -0.752857
C101  C     C_R   0.422296 0.869319 0.440684 -0.122451
C102  C     C_3   0.407808 0.705880 0.200135 -0.792539
C103  C     C_3   0.417090 0.302115 0.210072 -0.790184
C104  C     C_3   0.592017 0.706486 0.802005 -0.799584
C105  C     C_3   0.153446 0.908010 0.748934 -0.752538
C106  C     C_3   0.907810 0.205904 0.200105 -0.795482
C107  C     C_3   0.917241 0.802395 0.210406 -0.787510
C108  C     C_3   0.091890 0.206432 0.801758 -0.800663
C109  C     C_3   0.580458 0.239414 0.194168 -0.787182
C110  C     C_3   0.339941 0.576887 0.854800 -0.820078
C111  C     C_3   0.308844 0.398894 0.891990 -0.888555
C112  C     C_R   0.294285 0.724724 0.326096 0.878704
C113  C     C_R   0.578374 0.130767 0.556658 -0.091866
C114  C     C_3   0.704390 0.521010 0.074755 -0.766182
C115  C     C_3   0.080470 0.739290 0.194081 -0.787708
C116  C     C_3   0.839490 0.076184 0.855372 -0.819992
C117  C     C_3   0.808061 0.898289 0.893403 -0.889588
C118  C     C_3   0.203760 0.022603 0.076200 -0.765558
C119  C     C_R   0.703263 0.236010 0.967674 -0.108773
C120  C     C_R   0.259342 0.697476 0.062772 -0.101764
C121  C     C_R   0.290126 0.237264 0.039229 -0.113865
C122  C     C_R   0.739328 0.691546 0.938498 -0.114535
C123  C     C_R   0.203323 0.736153 0.967629 -0.108386
C124  C     C_R   0.759289 0.197371 0.062824 -0.102079
C125  C     C_R   0.790533 0.736141 0.039422 -0.113461
C126  C     C_R   0.239080 0.192383 0.938273 -0.114313
C127  C     C_R   0.754189 0.201006 0.922684 -0.054458
C128  C     C_R   0.300955 0.261273 0.322855 0.913031
C129  C     C_R   0.208529 0.733569 0.108019 -0.073575
C130  C     C_R   0.252108 0.179111 0.071593 -0.035954
C131  C     C_R   0.782267 0.740631 0.902051 -0.035632
C132  C     C_R   0.254303 0.701295 0.922593 -0.053971
C133  C     C_R   0.708511 0.233548 0.108031 -0.072721
C134  C     C_R   0.752887 0.677474 0.071505 -0.032062
C135  C     C_R   0.282121 0.241362 0.901645 -0.035675
C136  C     C_R   0.779652 0.174431 0.972329 0.116672
C137  C     C_R   0.177725 0.746481 0.061545 0.105402
C138  C     C_R   0.227173 0.154862 0.018646 0.123351
C139  C     C_R   0.705629 0.724809 0.674192 0.922105
C140  C     C_R   0.800894 0.771714 0.958749 0.146226
C141  C     C_R   0.279776 0.674697 0.972200 0.116842
C142  C     C_R   0.677697 0.246439 0.061571 0.105296
C143  C     C_R   0.727643 0.653623 0.018645 0.122084
C144  C     C_R   0.300834 0.272503 0.958232 0.147057
C145  C     C_R   0.631364 0.304269 0.957058 0.019905
C146  C     C_R   0.337793 0.642444 0.067406 0.031581
C147  C     C_R   0.349105 0.325829 0.061053 0.019980
C148  C     C_R   0.664416 0.633365 0.928633 0.024096
C149  C     C_R   0.131376 0.804298 0.957040 0.019962
C150  C     C_R   0.202277 0.768839 0.676059 0.870767
C151  C     C_R   0.837754 0.142368 0.067458 0.031355
C152  C     C_R   0.849210 0.825261 0.061330 0.019457
C153  C     C_R   0.164270 0.133811 0.928554 0.023816
C154  C     C_R   0.616361 0.345598 0.900543 -0.135234
C155  C     C_R   0.373716 0.640089 0.105894 -0.134621
C156  C     C_R   0.381532 0.343944 0.103384 -0.142571
C157  C     C_R   0.627273 0.636216 0.892629 -0.131798
C158  C     C_R   0.116362 0.845613 0.900532 -0.135487
C159  C     C_R   0.873701 0.140068 0.105909 -0.134164
C160  C     C_R   0.881655 0.843679 0.103515 -0.143317
C161  C     C_R   0.794291 0.224739 0.326089 0.872399
C162  C     C_R   0.127142 0.136457 0.892584 -0.131134
C163  C     C_R   0.647762 0.342035 0.807792 0.083997
C164  C     C_R   0.362658 0.681767 0.180529 0.074898
C165  C     C_R   0.374780 0.303546 0.178553 0.067003
C166  C     C_R   0.637403 0.681248 0.820380 0.044658
C167  C     C_R   0.147760 0.842062 0.807777 0.083810
C168  C     C_R   0.862655 0.181780 0.180516 0.075044
C169  C     C_R   0.875007 0.803391 0.178717 0.065684
C170  C     C_R   0.137266 0.181374 0.820250 0.044982
C171  C     C_R   0.680501 0.281404 0.771968 -0.119886
C172  C     C_R   0.801068 0.761039 0.322898 0.919894
C173  C     C_R   0.309325 0.702835 0.234404 -0.105478
C174  C     C_R   0.328436 0.261195 0.223049 -0.090844
C175  C     C_R   0.690463 0.703236 0.766475 -0.095460
C176  C     C_R   0.180525 0.781459 0.771948 -0.117235
C177  C     C_R   0.809325 0.202857 0.234395 -0.106514
C178  C     C_R   0.828846 0.760678 0.223085 -0.086904
C179  C     C_R   0.190336 0.203391 0.766364 -0.097338
C180  C     C_R   0.698903 0.242888 0.826085 -0.145211
C181  C     C_R   0.271834 0.704690 0.197735 -0.144223
C182  C     C_R   0.303697 0.231403 0.172828 -0.030946
C183  C     C_R   0.205564 0.224927 0.674180 0.928926
C184  C     C_R   0.727537 0.704998 0.803821 -0.050628
C185  C     C_R   0.198966 0.743007 0.826045 -0.145371
C186  C     C_R   0.771829 0.204712 0.197735 -0.145049
C187  C     C_R   0.804460 0.730325 0.172684 -0.032132
C188  C     C_R   0.227417 0.205232 0.803606 -0.050585
C189  C     C_R   0.690940 0.129405 0.536408 0.894374
C190  C     C_R   0.309044 0.870589 0.463664 0.922498
C191  C     C_R   0.309268 0.129554 0.462806 0.902725
C192  C     C_R   0.690697 0.870429 0.537307 0.882339
C193  C     C_R   0.190965 0.629331 0.536174 0.892265
C194  C     C_R   0.916803 0.499774 0.450001 0.067882
C195  C     C_R   0.809320 0.370385 0.462373 0.880764
C196  C     C_R   0.809118 0.629452 0.463269 0.941545
C197  C     C_R   0.190712 0.370421 0.537161 0.883364
C198  C     C_R   0.678264 0.261988 0.916827 0.029811
C199  C     C_R   0.290579 0.684254 0.108009 0.022029
C200  C     C_R   0.314885 0.264008 0.090445 -0.017380
C201  C     C_R   0.709393 0.678854 0.891767 -0.006705
C202  C     C_R   0.178306 0.762085 0.916797 0.029442
C203  C     C_R   0.790549 0.184201 0.108038 0.021662
C204  C     C_R   0.815303 0.763069 0.090547 -0.016229
H1    H     H_    0.084463 0.319500 0.585839 0.221404
H2    H     H_    0.368774 0.552893 0.973743 0.178617
H3    H     H_    0.361175 0.423959 0.982050 0.164995
H4    H     H_    0.638370 0.533812 0.007730 0.187629
H5    H     H_    0.059520 0.818884 0.084764 0.165664
H6    H     H_    0.868699 0.052709 0.973959 0.178728
H7    H     H_    0.860783 0.923549 0.982883 0.164638
H8    H     H_    0.138366 0.034303 0.007821 0.187567
H9    H     H_    0.004464 0.200800 0.559126 0.348697
H10   H     H_    0.998477 0.798064 0.430756 0.347576
H11   H     H_    0.994281 0.200118 0.441405 0.348120
H12   H     H_    0.915511 0.680098 0.410836 0.216507
H13   H     H_    0.009047 0.799862 0.548199 0.346238
H14   H     H_    0.503490 0.701278 0.562676 0.348843
H15   H     H_    0.498788 0.298233 0.430982 0.347515
H16   H     H_    0.493069 0.700229 0.445186 0.347978
H17   H     H_    0.509128 0.300261 0.548641 0.346060
H18   H     H_    0.790433 0.461486 0.357134 0.334772
H19   H     H_    0.208181 0.460853 0.643580 0.334799
H20   H     H_    0.290999 0.037787 0.357798 0.362976
H21   H     H_    0.708606 0.960920 0.643383 0.335174
H22   H     H_    0.694838 0.411844 0.691187 0.227823
H23   H     H_    0.915523 0.319363 0.411689 0.220858
H24   H     H_    0.623398 0.405329 0.724102 0.260479
H25   H     H_    0.648373 0.459592 0.786072 0.215959
H26   H     H_    0.399170 0.760338 0.232144 0.222811
H27   H     H_    0.413181 0.665816 0.244334 0.267369
H28   H     H_    0.446560 0.712219 0.137180 0.222936
H29   H     H_    0.411919 0.254024 0.253215 0.221536
H30   H     H_    0.458101 0.296745 0.151804 0.218318
H31   H     H_    0.414616 0.352005 0.248568 0.266113
H32   H     H_    0.601163 0.760659 0.768938 0.217039
H33   H     H_    0.585490 0.666604 0.758999 0.269634
H34   H     H_    0.085165 0.680138 0.582485 0.223658
H35   H     H_    0.553844 0.713700 0.865665 0.226913
H36   H     H_    0.194811 0.911871 0.691157 0.225826
H37   H     H_    0.123367 0.905334 0.724107 0.260516
H38   H     H_    0.148352 0.959615 0.786050 0.216483
H39   H     H_    0.899167 0.260358 0.232124 0.219703
H40   H     H_    0.913195 0.165841 0.244291 0.268505
H41   H     H_    0.946555 0.212251 0.137140 0.223178
H42   H     H_    0.912131 0.754447 0.253725 0.222723
H43   H     H_    0.958290 0.797075 0.152229 0.218186
H44   H     H_    0.914609 0.852419 0.248786 0.265567
H45   H     H_    0.584352 0.819799 0.587411 0.221089
H46   H     H_    0.100994 0.260584 0.768645 0.216753
H47   H     H_    0.085445 0.166461 0.758751 0.269847
H48   H     H_    0.053684 0.213613 0.865373 0.226855
H49   H     H_    0.547976 0.209616 0.188056 0.204619
H50   H     H_    0.597851 0.200240 0.223294 0.252153
H51   H     H_    0.561490 0.285810 0.240411 0.273714
H52   H     H_    0.359659 0.525928 0.857797 0.195462
H53   H     H_    0.305837 0.562092 0.842315 0.253853
H54   H     H_    0.373452 0.604503 0.797258 0.293767
H55   H     H_    0.291208 0.447549 0.934536 0.228057
H56   H     H_    0.415762 0.180341 0.410800 0.215644
H57   H     H_    0.345894 0.412884 0.829239 0.271356
H58   H     H_    0.277290 0.380294 0.875096 0.239550
H59   H     H_    0.712267 0.474863 0.027933 0.211120
H60   H     H_    0.740323 0.524608 0.085348 0.245045
H61   H     H_    0.667659 0.507741 0.138536 0.276758
H62   H     H_    0.048016 0.709480 0.187900 0.205020
H63   H     H_    0.097874 0.700101 0.223172 0.251931
H64   H     H_    0.061463 0.785639 0.240386 0.273704
H65   H     H_    0.859006 0.025147 0.858704 0.195555
H66   H     H_    0.805287 0.061521 0.843091 0.253785
H67   H     H_    0.415101 0.819652 0.414389 0.222508
H68   H     H_    0.873083 0.103451 0.797590 0.293671
H69   H     H_    0.790523 0.946919 0.936060 0.228329
H70   H     H_    0.844874 0.912370 0.830340 0.271594
H71   H     H_    0.776289 0.879551 0.877098 0.239243
H72   H     H_    0.211909 0.976070 0.029806 0.211602
H73   H     H_    0.239418 0.026611 0.087490 0.244846
H74   H     H_    0.166819 0.009666 0.139818 0.276421
H75   H     H_    0.711975 0.129965 0.736103 0.343718
H76   H     H_    0.198549 0.665405 0.347589 0.334559
H77   H     H_    0.250339 0.079082 0.266633 0.339502
H78   H     H_    0.585109 0.180443 0.583488 0.223586
H79   H     H_    0.852300 0.701931 0.653669 0.346965
H80   H     H_    0.212132 0.630003 0.736182 0.344137
H81   H     H_    0.698510 0.165494 0.347596 0.336134
H82   H     H_    0.753331 0.576972 0.265811 0.347866
H83   H     H_    0.352211 0.201474 0.653582 0.346808
H84   H     H_    0.839797 0.198497 0.711120 0.364469
H85   H     H_    0.146163 0.818737 0.297821 0.375776
H86   H     H_    0.175317 0.122540 0.272504 0.352318
H87   H     H_    0.866159 0.801983 0.708005 0.342418
H88   H     H_    0.339913 0.699369 0.711035 0.364665
H89   H     H_    0.559520 0.318930 0.084789 0.165875
H90   H     H_    0.646258 0.318937 0.297691 0.374528
H91   H     H_    0.677663 0.618147 0.271893 0.351557
H92   H     H_    0.366243 0.301789 0.707224 0.342346
O1    O     O_R   0.746490 0.236330 0.638080 -0.586909
O2    O     O_R   0.325830 0.813840 0.483730 -0.651618
O3    O     O_R   0.325830 0.186160 0.483730 -0.607902
O4    O     O_R   0.674170 0.813840 0.516270 -0.632344
O5    O     O_R   0.174170 0.686160 0.516270 -0.638439
O6    O     O_R   0.825830 0.313840 0.483730 -0.628896
O7    O     O_R   0.825830 0.686160 0.483730 -0.628330
O8    O     O_R   0.174170 0.313840 0.516270 -0.631187
O9    O     O_R   0.739960 0.127620 0.525000 -0.543701
O10   O     O_R   0.260040 0.872380 0.475000 -0.552142
O11   O     O_R   0.260040 0.127620 0.475000 -0.579323
O12   O     O_R   0.253510 0.763670 0.361920 -0.587499
O13   O     O_R   0.739960 0.872380 0.525000 -0.589077
O14   O     O_R   0.239960 0.627620 0.525000 -0.544347
O15   O     O_R   0.760040 0.372380 0.475000 -0.594599
O16   O     O_R   0.760040 0.627620 0.475000 -0.541914
O17   O     O_R   0.239960 0.372380 0.525000 -0.588906
O18   O     O_R   0.680700 0.294870 0.629350 -0.621984
O19   O     O_R   0.319300 0.705130 0.370650 -0.627857
O20   O     O_R   0.319300 0.294870 0.370650 -0.631763
O21   O     O_R   0.680700 0.705130 0.629350 -0.635599
O22   O     O_R   0.180700 0.794870 0.629350 -0.626168
O23   O     O_R   0.253510 0.236330 0.361920 -0.570122
O24   O     O_R   0.819300 0.205130 0.370650 -0.625127
O25   O     O_R   0.819300 0.794870 0.370650 -0.633969
O26   O     O_R   0.180700 0.205130 0.629350 -0.631629
O27   O     O_R   0.062020 0.072840 0.007170 -0.629744
O28   O     O_R   0.937980 0.927160 0.992830 -0.635021
O29   O     O_R   0.937980 0.072840 0.992830 -0.639147
O30   O     O_R   0.062020 0.927160 0.007170 -0.640734
O31   O     O_R   0.562020 0.572840 0.007170 -0.629742
O32   O     O_R   0.437980 0.427160 0.992830 -0.635414
O33   O     O_R   0.437980 0.572840 0.992830 -0.639041
O34   O     O_R   0.746490 0.763670 0.638080 -0.581828
O35   O     O_R   0.562020 0.427160 0.007170 -0.640930
O36   O     O_R   0.947860 0.073950 0.109290 -0.601243
O37   O     O_R   0.052140 0.926050 0.890710 -0.603617
O38   O     O_R   0.052140 0.073950 0.890710 -0.606096
O39   O     O_R   0.947860 0.926050 0.109290 -0.613596
O40   O     O_R   0.447860 0.573950 0.109290 -0.601438
O41   O     O_R   0.552140 0.426050 0.890710 -0.603653
O42   O     O_R   0.552140 0.573950 0.890710 -0.606139
O43   O     O_R   0.447860 0.426050 0.109290 -0.613509
O44   O     O_3   0.033745 0.237202 0.541637 -0.786126
O45   O     O_R   0.246490 0.736330 0.638080 -0.588282
O46   O     O_3   0.968778 0.762150 0.449589 -0.792863
O47   O     O_3   0.965488 0.237030 0.457745 -0.785724
O48   O     O_3   0.037564 0.762605 0.532381 -0.771165
O49   O     O_3   0.532882 0.737556 0.544810 -0.786327
O50   O     O_3   0.469043 0.262396 0.449771 -0.793226
O51   O     O_3   0.464366 0.737267 0.461438 -0.785587
O52   O     O_3   0.537567 0.262928 0.533094 -0.771207
O53   O     O_3   0.784699 0.502570 0.398502 -0.712786
O54   O     O_3   0.214136 0.502422 0.602549 -0.718466
O55   O     O_3   0.284394 0.997449 0.400465 -0.726580
O56   O     O_R   0.753510 0.263670 0.361920 -0.596899
O57   O     O_3   0.714460 0.002473 0.602374 -0.718208
O58   O     O_3   0.747535 0.137136 0.734108 -0.731898
O59   O     O_3   0.183422 0.709352 0.333668 -0.725284
O60   O     O_3   0.266992 0.126220 0.268168 -0.784527
O61   O     O_3   0.813890 0.706962 0.668327 -0.726608
O62   O     O_3   0.247694 0.637272 0.734149 -0.731658
O63   O     O_3   0.683410 0.209459 0.333656 -0.724068
O64   O     O_3   0.769130 0.624713 0.267685 -0.738212
O65   O     O_3   0.313813 0.206493 0.668169 -0.725039
O66   O     O_3   0.831721 0.200916 0.774787 -0.771330
O67   O     O_R   0.753510 0.736330 0.361920 -0.571069
O68   O     O_3   0.150497 0.806163 0.237892 -0.771255
O69   O     O_3   0.186725 0.120166 0.207524 -0.776100
O70   O     O_3   0.859421 0.781290 0.766451 -0.764269
O71   O     O_3   0.331828 0.701759 0.774708 -0.771204
O72   O     O_3   0.650566 0.306312 0.237791 -0.772297
O73   O     O_3   0.688788 0.616433 0.206990 -0.777065
O74   O     O_3   0.359424 0.281381 0.765840 -0.764149
O75   O     O_R   0.246490 0.263670 0.638080 -0.582137
O76   O     O_R   0.674170 0.186160 0.516270 -0.635957
Zn1   Zn    Zn3+2 0.792340 0.208750 0.507670 1.062038
Zn2   Zn    Zn3+2 0.494040 0.500000 0.919480 0.950478
Zn3   Zn    Zn3+2 0.005960 0.000000 0.080520 0.952075
Zn4   Zn    Zn3+2 0.994040 0.000000 0.919480 0.950838
Zn5   Zn    Zn3+2 0.207660 0.791250 0.492330 1.058508
Zn6   Zn    Zn3+2 0.207660 0.208750 0.492330 1.045148
Zn7   Zn    Zn3+2 0.792340 0.791250 0.507670 1.039772
Zn8   Zn    Zn3+2 0.292340 0.708750 0.507670 1.059279
Zn9   Zn    Zn3+2 0.707660 0.291250 0.492330 1.037949
Zn10  Zn    Zn3+2 0.707660 0.708750 0.492330 1.057936
Zn11  Zn    Zn3+2 0.292340 0.291250 0.507670 1.041572
Zn12  Zn    Zn3+2 0.505960 0.500000 0.080520 0.951779

loop_
_geom_bond_atom_site_label_1
_geom_bond_atom_site_label_2
_ccdc_geom_bond_type
H10   O46   S    
C106  H39   S    
O37   Zn4   S    
C90   H56   S    
C36   C133  A    
C20   C118  S    
C40   O39   A    
C124  C133  A    
C161  O24   A    
C50   C59   A    
C22   C181  A    
C52   C61   A    
O8    Zn6   S    
C26   C185  A    
C54   C63   A    
C58   C60   A    
O75   Zn11  S    
H81   O63   S    
C96   O53   S    
C61   C63   A    
C114  H60   S    
C111  H57   S    
C62   C64   A    
C131  C140  A    
C134  C143  A    
C50   C90   A    
H92   O74   S    
C110  H52   S    
C70   C74   A    
C190  O10   A    
O21   Zn10  S    
C4    C12   A    
C24   C85   A    
C88   C97   A    
C47   O35   A    
C49   C69   A    
C102  H28   S    
C25   O61   S    
C147  C200  A    
C99   O57   S    
C105  H37   S    
C158  C167  A    
C190  O2    A    
C11   C20   A    
C127  C136  A    
C23   C182  A    
C117  H69   S    
C86   C90   A    
C28   C187  A    
C118  H74   S    
C179  C188  A    
C187  C204  A    
C1    C171  S    
C177  C186  A    
C108  H46   S    
C51   C66   A    
C185  C202  A    
C52   C72   A    
C118  H73   S    
O12   Zn5   S    
C54   C70   A    
C112  O12   A    
C128  O23   A    
C164  C173  A    
C60   O49   S    
C4    H89   S    
C172  O25   A    
H87   O70   S    
C42   O37   A    
C103  H30   S    
C40   O28   A    
C37   O73   S    
C161  C177  S    
C116  H65   S    
C130  C138  A    
C79   C85   A    
C115  H64   S    
C45   O33   A    
C107  C169  S    
C66   C77   A    
C30   C127  A    
C9    C151  A    
C57   C78   A    
O20   Zn11  S    
O67   Zn10  S    
C56   C59   A    
O29   Zn4   S    
C8    C17   A    
C29   C188  A    
C87   C195  S    
C80   C88   A    
C34   O71   S    
O56   Zn9   S    
C100  C163  S    
C193  O14   A    
C48   C67   A    
C180  C198  A    
C86   C95   A    
C49   C58   A    
C24   C77   A    
C129  C137  A    
C172  O67   A    
H82   O64   S    
C102  H26   S    
O11   Zn6   S    
C2    C81   A    
C17   C137  A    
O22   Zn5   S    
C55   C71   A    
C2    C75   A    
C139  O21   A    
C59   O50   S    
C78   C87   A    
C125  C204  A    
C61   O48   S    
C108  C170  S    
C123  C132  A    
C119  C198  A    
C67   C77   A    
O43   Zn12  S    
C117  H71   S    
C174  C182  A    
C118  H72   S    
O2    Zn8   S    
O4    Zn10  S    
C133  C142  A    
C108  H48   S    
H17   O52   S    
C122  C201  A    
C100  H25   S    
C110  H54   S    
C63   O46   S    
C109  H50   S    
C120  C199  A    
C69   C76   A    
C85   C94   A    
C22   O59   S    
C46   C82   A    
C29   C38   A    
O26   Zn6   S    
C18   C136  A    
O16   Zn10  S    
C149  C158  A    
C9    H6    S    
C115  H62   S    
C113  H78   S    
C84   C93   A    
C98   O55   S    
C112  O19   A    
O34   Zn7   S    
C91   C96   A    
C1    O18   A    
C55   C64   A    
C21   O58   S    
C121  C144  A    
C122  C143  A    
C72   C75   A    
C125  C140  A    
O36   Zn3   S    
C124  C203  A    
C120  C129  A    
C44   C156  S    
C107  H44   S    
C97   O54   S    
O13   Zn7   S    
C150  O45   A    
C43   O42   A    
C65   C67   A    
C165  C174  A    
H79   O61   S    
O6    Zn1   S    
C151  C159  A    
C11   H8    S    
C31   O68   S    
O7    Zn7   S    
O30   Zn3   S    
H20   O55   S    
C39   C162  S    
C100  H22   S    
H13   O48   S    
C145  C154  A    
C103  C165  S    
O31   Zn12  S    
O42   Zn2   S    
C181  C199  A    
C122  C131  A    
C17   C115  S    
C172  C178  S    
C132  C141  A    
C14   C110  S    
C196  O16   A    
C103  H31   S    
C184  C201  A    
C83   C101  A    
C88   C193  S    
C120  C141  A    
C106  H40   S    
C43   C157  S    
C16   C114  S    
C197  O8    A    
C93   C189  S    
C89   C197  S    
C58   O51   S    
C123  C137  A    
C128  C174  S    
C170  C179  A    
C189  O76   A    
C145  C198  A    
C31   C129  A    
C30   O66   S    
C6    C147  A    
C28   C37   A    
C4    C145  A    
C186  C203  A    
C148  C157  A    
C106  H41   S    
C50   C65   A    
C51   C79   A    
C11   C153  A    
C57   H23   S    
C161  O56   A    
H80   O62   S    
C9    C18   A    
C104  H32   S    
C183  O26   A    
O18   Zn9   S    
C102  C164  S    
O32   Zn2   S    
H86   O69   S    
C37   C134  A    
C48   C113  A    
H84   O66   S    
C51   C60   A    
C149  C202  A    
C25   C33   A    
C119  C127  A    
C125  C134  A    
C192  O4    A    
H21   O57   S    
C73   C74   A    
C28   O64   S    
C107  H42   S    
C3    C126  A    
C176  C185  A    
C101  H67   S    
C166  C175  A    
C65   C76   A    
C183  O75   A    
C1    O1    A    
C49   C101  A    
C195  O6    A    
C168  C177  A    
H76   O59   S    
H9    O44   S    
O35   Zn12  S    
C78   C194  A    
C20   C138  A    
C100  H24   S    
C43   O31   A    
C10   C152  A    
C5    H2    S    
C39   O27   A    
O9    Zn1   S    
C146  C155  A    
C92   C190  S    
H91   O73   S    
C160  C169  A    
C163  C171  A    
C93   C99   A    
C25   C184  A    
C81   C89   A    
H15   O50   S    
C173  C181  A    
C103  H29   S    
C26   O62   S    
H83   O65   S    
C42   C158  S    
O10   Zn5   S    
C116  H66   S    
C111  H55   S    
C115  H63   S    
C44   O32   A    
C45   O40   A    
C104  H33   S    
C124  C136  A    
C56   O52   S    
C16   C143  A    
C182  C200  A    
O3    Zn11  S    
C53   C57   A    
O40   Zn12  S    
O5    Zn5   S    
H16   O51   S    
O38   Zn4   S    
C114  H59   S    
C111  H58   S    
C189  O9    A    
H77   O60   S    
C191  O3    A    
C162  C170  A    
C10   C19   A    
C44   O43   A    
C46   C54   A    
H88   O71   S    
C38   C135  A    
C147  C156  A    
C5    C14   A    
C195  O15   A    
C178  C187  A    
C7    C16   A    
C126  C135  A    
C46   H12   S    
O76   Zn9   S    
C102  H27   S    
C38   O74   S    
C18   C116  S    
C105  H38   S    
C42   O30   A    
O23   Zn6   S    
C71   C73   A    
O19   Zn8   S    
C64   O44   S    
O33   Zn2   S    
C40   C160  S    
C117  H70   S    
O17   Zn11  S    
H18   O53   S    
C47   C154  S    
C27   C36   A    
C21   C30   A    
C13   C83   A    
C153  C162  A    
C23   C32   A    
C8    C149  A    
H90   O72   S    
C91   C196  S    
C156  C165  A    
C109  H49   S    
C12   C142  A    
C82   C194  A    
H19   O54   S    
C32   O69   S    
C82   C91   A    
C104  C166  S    
C10   H7    S    
H75   O58   S    
C19   C117  S    
C119  C142  A    
H11   O47   S    
C152  C204  A    
O1    Zn1   S    
C116  H68   S    
C175  C184  A    
C68   C80   A    
C104  H35   S    
C150  C176  S    
C152  C160  A    
C84   C113  A    
C139  C175  S    
C3    C188  A    
C32   C130  A    
C35   C81   A    
C95   C98   A    
C92   C98   A    
C121  C200  A    
C83   C92   A    
O45   Zn8   S    
C192  O13   A    
C107  H43   S    
C66   C69   A    
C197  O17   A    
C3    C153  A    
C191  O11   A    
C159  C168  A    
C41   O29   A    
C146  C199  A    
C193  O5    A    
C6    C15   A    
C41   C159  S    
C26   C34   A    
C21   C180  A    
O15   Zn9   S    
C19   C140  A    
O39   Zn3   S    
C13   C86   A    
C45   C155  S    
C52   C68   A    
C95   C191  S    
C33   C131  A    
C112  C173  S    
C14   C141  A    
C34   C132  A    
C41   O36   A    
C79   H45   S    
H85   O68   S    
C27   O63   S    
C12   C109  S    
C196  O7    A    
C35   H1    S    
C148  C201  A    
C179  C183  S    
C47   O41   A    
C22   C31   A    
C108  H47   S    
C35   C55   A    
C15   C111  S    
C154  C163  A    
C110  H53   S    
C114  H61   S    
C33   O70   S    
C128  O20   A    
O41   Zn2   S    
C109  H51   S    
O24   Zn1   S    
C105  C167  S    
C89   C97   A    
C27   C186  A    
C106  C168  S    
C53   C62   A    
C13   C76   A    
C87   C96   A    
C121  C130  A    
C6    H3    S    
C135  C144  A    
C171  C180  A    
C8    H5    S    
C169  C178  A    
C7    C148  A    
C62   O47   S    
C48   C56   A    
O14   Zn8   S    
C126  C138  A    
H14   O49   S    
C5    C146  A    
C123  C202  A    
C53   C73   A    
C151  C203  A    
C7    H4    S    
C157  C166  A    
C36   O72   S    
C155  C164  A    
C150  O22   A    
C74   C194  A    
C23   O60   S    
C24   C84   A    
C68   H34   S    
O28   Zn4   S    
C71   C75   A    
C29   O65   S    
C94   C99   A    
C105  H36   S    
O25   Zn7   S    
C94   C192  S    
C2    C80   A    
C15   C144  A    
C39   O38   A    
C70   C72   A    
O27   Zn3   S    
C167  C176  A    
C139  O34   A    
