data_mof_unit_12644.cif
_audit_creation_date              2012-12-10T19:07:03-0500
_audit_creation_method            fapswitch 2.2
_symmetry_space_group_name_H-M    P1
_symmetry_Int_Tables_number       1
_space_group_crystal_system       triclinic
_cell_length_a                    27.607793
_cell_length_b                    10.868557
_cell_length_c                    9.605398
_cell_angle_alpha                 91.272846
_cell_angle_beta                  89.415115
_cell_angle_gamma                 92.192523
_cell_volume                      2879.21870813

loop_
_atom_site_label
_atom_site_type_symbol
_atom_type_description
_atom_site_fract_x
_atom_site_fract_y
_atom_site_fract_z
_atom_type_partial_charge
C1    C     C_R   0.498980 0.262807 0.498759 0.819519
C2    C     C_R   0.277506 0.399177 0.435067 0.173423
C3    C     C_R   0.252776 0.497262 0.502584 0.096341
C4    C     C_R   0.100822 0.478151 0.539208 -0.074544
C5    C     C_R   0.125778 0.368103 0.528732 -0.025193
C6    C     C_R   0.100171 0.256822 0.501717 -0.111639
C7    C     C_R   0.126141 0.587279 0.583547 -0.096909
C8    C     C_R   0.354675 0.498087 0.500093 -0.196286
C9    C     C_R   0.645477 0.502745 0.500506 -0.102656
C10   C     C_R   0.973087 0.365418 0.469657 0.064637
C11   C     C_R   0.977670 0.592578 0.474072 -0.020387
C12   C     C_R   0.407663 0.498374 0.500408 0.856675
C13   C     C_R   0.950129 0.480303 0.464307 0.055599
C14   C     C_R   0.943915 0.255921 0.456188 -0.185658
C15   C     C_R   0.894038 0.259551 0.438681 -0.112953
C16   C     C_R   0.871370 0.372197 0.435968 -0.012655
C17   C     C_R   0.899436 0.482815 0.445905 -0.086975
C18   C     C_R   0.876703 0.595148 0.428674 -0.094964
C19   C     C_R   0.826011 0.590626 0.409823 0.631856
C20   C     C_R   0.820790 0.377619 0.424989 0.590414
C21   C     C_R   0.718503 0.388713 0.525877 0.218423
C22   C     C_R   0.668102 0.392064 0.520245 -0.281059
C23   C     C_R   0.499605 0.737816 0.501111 0.791709
C24   C     C_R   0.673643 0.614004 0.506471 0.105152
C25   C     C_R   0.724638 0.609251 0.510268 0.195588
C26   C     C_R   0.747460 0.494628 0.489811 0.198740
C27   C     C_R   0.024250 0.364415 0.486559 0.046706
C28   C     C_R   0.050348 0.477270 0.514061 0.080401
C29   C     C_R   0.026326 0.589512 0.518522 0.029591
C30   C     C_R   0.050325 0.254744 0.480755 -0.181161
C31   C     C_R   0.099765 0.694625 0.609429 0.220233
C32   C     C_R   0.955863 0.703115 0.435304 0.088993
C33   C     C_R   0.904955 0.706479 0.424129 0.169546
C34   C     C_R   0.592389 0.500721 0.499744 0.797902
C35   C     C_R   0.050533 0.693729 0.578100 -0.192519
C36   C     C_R   0.497336 0.068569 0.623076 0.082583
C37   C     C_R   0.494801 0.129921 0.497927 -0.106399
C38   C     C_R   0.486722 0.060690 0.374629 -0.165842
C39   C     C_R   0.487051 0.932103 0.376669 -0.192765
C40   C     C_R   0.495620 0.871274 0.501878 -0.079243
C41   C     C_R   0.497648 0.941669 0.625656 0.028940
C42   C     C_3   0.532201 0.945304 0.745856 -0.094237
C43   C     C_3   0.531677 0.086047 0.743003 0.268790
C44   C     C_R   0.540121 0.541032 0.073206 0.190557
C45   C     C_R   0.176319 0.373141 0.542742 0.559800
C46   C     C_R   0.463875 0.442211 0.075444 -0.090314
C47   C     C_R   0.464000 0.439632 0.927627 0.260394
C48   C     C_R   0.540081 0.539597 0.926160 0.123248
C49   C     C_3   0.564436 0.663044 0.920554 -0.114978
C50   C     C_3   0.564391 0.666667 0.079202 -0.012061
C51   C     C_R   0.176753 0.582023 0.601382 0.618470
C52   C     C_R   0.280346 0.609914 0.517965 0.263841
C53   C     C_R   0.330891 0.607961 0.529776 0.041333
C54   C     C_R   0.328158 0.396086 0.444132 0.128885
Cu1   Cu    Cu3+1 0.500000 0.499980 0.640670 0.973884
Cu2   Cu    Cu3+1 0.500000 0.500020 0.359330 0.975202
H1    H     H_    0.030902 0.775547 0.603417 0.182076
H2    H     H_    0.482113 0.105438 0.276246 0.174029
H3    H     H_    0.482494 0.881117 0.279248 0.161838
H4    H     H_    0.515387 0.907430 0.841827 0.133587
H5    H     H_    0.434623 0.396147 0.131892 0.184650
H6    H     H_    0.540784 0.729475 0.874323 0.175953
H7    H     H_    0.540273 0.737239 0.124027 0.117504
H8    H     H_    0.118771 0.170917 0.493479 0.204944
H9    H     H_    0.646320 0.309420 0.541129 0.163398
H10   H     H_    0.873079 0.173348 0.431102 0.192662
H11   H     H_    0.958298 0.165466 0.461643 0.153050
H12   H     H_    0.033533 0.165775 0.457176 0.165918
N1    N     N_R   0.201295 0.485040 0.544625 -0.439443
N2    N     N_R   0.798756 0.487702 0.446533 -0.443896
N3    N     N_R   0.500300 0.500930 0.147930 -0.219080
N4    N     N_R   0.500310 0.500890 0.852020 -0.217559
O1    O     O_R   0.500000 0.319640 0.618810 -0.551328
O2    O     O_2   0.794885 0.276267 0.382942 -0.495218
O3    O     O_2   0.200174 0.665185 0.684546 -0.465696
O4    O     O_2   0.805355 0.681372 0.340975 -0.470063
O5    O     O_R   0.500010 0.319680 0.381230 -0.578548
O6    O     O_R   0.430260 0.500000 0.618780 -0.553094
O7    O     O_R   0.430270 0.500040 0.381190 -0.574057
O8    O     O_R   0.499990 0.680320 0.618770 -0.577939
O9    O     O_R   0.500000 0.680360 0.381190 -0.591328
O10   O     O_R   0.569730 0.499960 0.618810 -0.601492
O11   O     O_R   0.569740 0.500000 0.381220 -0.539721
O12   O     O_2   0.199545 0.268086 0.561149 -0.514206
I1    I     I_    0.363922 0.237531 0.365722 -0.283294
I2    I     I_    0.253656 0.780205 0.446689 -0.157057
I3    I     I_    0.129435 0.868060 0.681826 -0.168870
I4    I     I_    0.998740 0.850037 0.341980 -0.362914
N5    N     N_3   0.652033 0.732676 0.508029 -0.560953
H13   H     H_    0.659785 0.776909 0.603248 0.220034
H14   H     H_    0.614389 0.725355 0.499597 0.222019
N6    N     N_3   0.881478 0.822164 0.413002 -0.480939
H15   H     H_    0.857433 0.829292 0.497452 0.237731
H16   H     H_    0.905791 0.896984 0.427741 0.228528
N7    N     N_3   0.752368 0.716853 0.556090 -0.552108
H17   H     H_    0.744148 0.790830 0.493797 0.290704
H18   H     H_    0.742027 0.738440 0.658482 0.221277
N8    N     N_3   0.254180 0.319322 0.332425 -0.522006
H19   H     H_    0.219931 0.349038 0.306746 0.234927
H20   H     H_    0.251794 0.229084 0.367788 0.298789
N9    N     N_3   0.578990 0.893414 0.709674 -0.597458
H21   H     H_    0.591587 0.925097 0.613389 0.242685
H22   H     H_    0.604071 0.922673 0.785422 0.275108
N10   N     N_3   0.509068 0.141301 0.867038 -0.552391
H23   H     H_    0.531684 0.128657 0.951811 0.225695
H24   H     H_    0.476010 0.095085 0.889023 0.220192
N11   N     N_3   0.578670 0.147348 0.708921 -0.560409
H25   H     H_    0.587069 0.135116 0.603224 0.195563
H26   H     H_    0.576453 0.242114 0.727261 0.258630
I5    I     I_    0.407464 0.325125 0.840706 -0.263471
N12   N     N_3   0.612813 0.660609 0.856683 -0.517080
H27   H     H_    0.608685 0.670498 0.750184 0.249850
H28   H     H_    0.628110 0.574989 0.869839 0.255919
I6    I     I_    0.635369 0.671162 0.169155 -0.258321
I7    I     I_    0.743323 0.245334 0.652892 -0.272772
N13   N     N_3   0.357857 0.720654 0.560610 -0.518675
H29   H     H_    0.381781 0.739079 0.477910 0.219419
H30   H     H_    0.378170 0.708699 0.650225 0.238723

loop_
_geom_bond_atom_site_label_1
_geom_bond_atom_site_label_2
_ccdc_geom_bond_type
C10   C27   A    
Cu1   Cu2   S    
C40   C41   A    
N9    H21   S    
C1    O5    A    
C41   C42   S    
N7    H17   S    
C21   C26   A    
C24   N5    S    
N10   H24   S    
Cu2   O9    S    
Cu2   O7    S    
C19   O4    S    
C3    N1    S    
C51   O3    S    
C5    C6    A    
C9    C22   A    
C15   C16   A    
C32   I4    S    
C12   O7    A    
N13   H29   S    
C44   N3    A    
C18   C19   A    
C6    H8    S    
C49   C50   S    
C43   N10   S    
C38   H2    S    
N12   H27   S    
C16   C17   A    
C12   O6    A    
C14   H11   S    
C23   O8    A    
N5    H14   S    
Cu1   N4    S    
C53   N13   S    
C8    C12   S    
C49   N12   S    
N9    H22   S    
C21   C22   A    
C27   C30   A    
C50   H7    S    
N11   H26   S    
C20   N2    A    
C36   C41   A    
C48   N4    A    
C4    C7    A    
N10   H23   S    
C4    C28   A    
C31   I3    S    
C46   H5    S    
C45   N1    A    
C7    C31   A    
C24   C25   A    
C2    C54   A    
C33   N6    S    
C8    C54   A    
C39   C40   A    
Cu1   O6    S    
C25   C26   A    
C15   H10   S    
C5    C45   A    
Cu2   O5    S    
C50   I6    S    
C22   H9    S    
C37   C38   A    
C16   C20   A    
Cu2   N3    S    
C39   H3    S    
N6    H16   S    
C17   C18   A    
C20   O2    S    
N12   H28   S    
C43   N11   S    
Cu1   O10   S    
C11   C29   A    
C46   N3    A    
C48   C49   S    
C6    C30   A    
C11   C32   A    
C25   N7    S    
N8    H20   S    
C10   C14   A    
C9    C34   S    
C26   N2    S    
C31   C35   A    
C45   O12   S    
C34   O11   A    
N11   H25   S    
C42   H4    S    
C42   N9    S    
C52   C53   A    
Cu2   O11   S    
C44   C50   S    
C46   C47   A    
C28   C29   A    
C49   H6    S    
C23   O9    A    
C4    C5    A    
C36   C43   S    
C10   C13   A    
C8    C53   A    
C54   I1    S    
C3    C52   A    
N7    H18   S    
C9    C24   A    
C1    C37   S    
C47   I5    S    
C51   N1    A    
C29   C35   A    
C21   I7    S    
C13   C17   A    
C35   H1    S    
C1    O1    A    
C32   C33   A    
C52   I2    S    
C2    C3    A    
C7    C51   A    
Cu1   O8    S    
C11   C13   A    
C38   C39   A    
N6    H15   S    
N13   H30   S    
C18   C33   A    
C47   N4    A    
Cu1   O1    S    
C44   C48   A    
C2    N8    S    
C36   C37   A    
N8    H19   S    
C42   C43   S    
C27   C28   A    
C14   C15   A    
C19   N2    A    
C34   O10   A    
N5    H13   S    
C30   H12   S    
C23   C40   S    
