data_mof_unit_13121.cif
_audit_creation_date              2012-12-10T18:57:13-0500
_audit_creation_method            fapswitch 2.2
_symmetry_space_group_name_H-M    P1
_symmetry_Int_Tables_number       1
_space_group_crystal_system       triclinic
_cell_length_a                    8.720173
_cell_length_b                    10.879458
_cell_length_c                    9.579749
_cell_angle_alpha                 90.482012
_cell_angle_beta                  97.509052
_cell_angle_gamma                 90.849897
_cell_volume                      900.895797201

loop_
_atom_site_label
_atom_site_type_symbol
_atom_type_description
_atom_site_fract_x
_atom_site_fract_y
_atom_site_fract_z
_atom_type_partial_charge
C1    C     C_R   0.490911 0.262707 0.497744 0.854487
C2    C     C_R   0.635168 0.513141 0.942025 0.181487
C3    C     C_3   0.748230 0.616197 0.942001 0.095031
C4    C     C_R   0.204671 0.491010 0.464518 0.721522
C5    C     C_3   0.741269 0.629701 0.099906 0.667321
C6    C     C_R   0.486472 0.736656 0.498465 0.824917
C7    C     C_R   0.795887 0.498062 0.535545 0.917340
C8    C     C_2   0.039864 0.467390 0.447999 0.254066
C9    C     C_2   0.961838 0.502611 0.552785 -0.393744
C10   C     C_R   0.455643 0.063362 0.611060 -0.107288
C11   C     C_R   0.469512 0.129844 0.490663 -0.218398
C12   C     C_R   0.450685 0.932633 0.362675 0.461491
C13   C     C_R   0.457115 0.062057 0.361770 0.297261
C14   C     C_3   0.767046 0.841841 0.137295 -0.182144
C15   C     C_3   0.274438 0.847822 0.192659 -0.162639
C16   C     C_3   0.244237 0.777777 0.768346 -0.210840
C17   C     C_3   0.298193 0.166492 0.921878 -0.217704
C18   C     C_R   0.460480 0.868688 0.492516 -0.285788
C19   C     C_R   0.444558 0.939078 0.611636 -0.173975
C20   C     C_3   0.424026 0.938765 0.765658 0.807842
C21   C     C_3   0.442014 0.080718 0.762741 0.317033
C22   C     C_R   0.634845 0.517932 0.089240 0.219716
C23   C     C_R   0.368816 0.474797 0.058247 -0.090510
C24   C     C_R   0.368652 0.475441 0.910056 -0.107912
Cu1   Cu    Cu3+1 0.499990 0.499980 0.640670 0.965264
Cu2   Cu    Cu3+1 0.500010 0.500020 0.359330 1.009520
H1    H     H_    0.261384 0.456602 0.842863 0.177515
H2    H     H_    0.838022 0.841344 0.048811 0.110183
H3    H     H_    0.843658 0.848753 0.239262 0.130659
H4    H     H_    0.360148 0.175568 0.228962 0.309612
H5    H     H_    0.222599 0.789863 0.270130 0.125456
H6    H     H_    0.260924 0.796557 0.091119 0.199858
H7    H     H_    0.210044 0.935126 0.175637 0.120908
H8    H     H_    0.335055 0.720273 0.826118 0.216902
H9    H     H_    0.228338 0.757367 0.653651 0.148918
H10   H     H_    0.133775 0.753502 0.807041 0.131324
H11   H     H_    0.643560 0.909961 0.825693 0.267673
H12   H     H_    0.703702 0.693718 0.874935 0.153229
H13   H     H_    0.400662 0.220645 0.970959 0.171810
H14   H     H_    0.287830 0.078940 0.978994 0.215921
H15   H     H_    0.193708 0.220887 0.932585 0.161541
H16   H     H_    0.020102 0.543164 0.649967 0.140492
H17   H     H_    0.550424 0.120977 0.821245 0.057012
H18   H     H_    0.261844 0.454732 0.099507 0.162340
H19   H     H_    0.044502 0.377708 0.271446 0.330556
H20   H     H_    0.962883 0.644712 0.924728 0.315905
H21   H     H_    0.876380 0.640706 0.277999 0.334643
H22   H     H_    0.696592 0.926095 0.127206 0.241809
N1    N     N_R   0.500980 0.500930 0.148050 -0.190938
N2    N     N_R   0.500990 0.500890 0.852140 -0.215487
O1    O     O_R   0.500000 0.319640 0.618810 -0.555540
O2    O     O_3   0.890832 0.573077 0.911347 -0.707791
O3    O     O_3   0.884286 0.609258 0.181979 -0.717601
O4    O     O_3   0.666529 0.738289 0.135922 -0.549632
O5    O     O_3   0.447947 0.118252 0.233157 -0.718146
O6    O     O_3   0.433531 0.870599 0.234915 -0.494893
O7    O     O_3   0.273888 0.903877 0.794211 -0.565195
O8    O     O_3   0.543293 0.882910 0.854842 -0.755708
O9    O     O_3   0.305013 0.144400 0.777899 -0.538472
O10   O     O_R   0.500020 0.319680 0.381230 -0.567958
O11   O     O_R   0.274830 0.499980 0.591380 -0.613917
O12   O     O_R   0.274850 0.500020 0.353800 -0.602961
O13   O     O_R   0.499980 0.680320 0.618770 -0.598340
O14   O     O_R   0.500000 0.680360 0.381190 -0.507388
O15   O     O_R   0.725150 0.499980 0.646200 -0.556795
O16   O     O_R   0.725170 0.500020 0.408620 -0.534449
O17   O     O_3   0.966433 0.403063 0.331998 -0.676413

loop_
_geom_bond_atom_site_label_1
_geom_bond_atom_site_label_2
_ccdc_geom_bond_type
C6    O13   A    
C2    C22   A    
C23   C24   A    
Cu1   O1    S    
H19   O17   S    
H20   O2    S    
C7    O15   A    
C11   C13   A    
H4    O5    S    
H11   O8    S    
C1    C11   S    
C24   H1    S    
H21   O3    S    
C10   C19   A    
C4    C8    S    
C16   H8    S    
C15   O6    S    
C3    C5    S    
C2    C3    S    
Cu2   O12   S    
C15   H6    S    
C16   H9    S    
Cu1   Cu2   S    
Cu1   O11   S    
C12   C13   A    
C7    O16   A    
C15   H5    S    
C1    O1    A    
C9    H16   S    
C12   O6    S    
C17   O9    S    
C22   N1    A    
C5    O3    S    
C14   O4    S    
C21   O9    S    
C16   O7    S    
C10   C21   S    
C24   N2    A    
C6    C18   S    
C3    O2    S    
C17   H15   S    
C23   N1    A    
C10   C11   A    
C5    C22   S    
C14   H3    S    
C12   C18   A    
Cu2   O16   S    
C4    O12   A    
C5    O4    S    
C20   O8    S    
Cu1   O15   S    
C20   C21   S    
C8    O17   S    
C18   C19   A    
C17   H13   S    
C1    O10   A    
C6    O14   A    
C7    C9    S    
Cu2   O14   S    
Cu1   N2    S    
Cu1   O13   S    
C14   H22   S    
C2    N2    A    
C14   H2    S    
C20   O7    S    
C21   H17   S    
Cu2   O10   S    
C4    O11   A    
C15   H7    S    
C16   H10   S    
C23   H18   S    
C19   C20   S    
C3    H12   S    
C8    C9    D    
C13   O5    S    
C17   H14   S    
Cu2   N1    S    
