data_mof_unit_8756.cif
_audit_creation_date              2012-12-10T16:55:00-0500
_audit_creation_method            fapswitch 2.2
_symmetry_space_group_name_H-M    P1
_symmetry_Int_Tables_number       1
_space_group_crystal_system       triclinic
_cell_length_a                    7.838406
_cell_length_b                    8.564805
_cell_length_c                    15.71564
_cell_angle_alpha                 92.033869
_cell_angle_beta                  85.139644
_cell_angle_gamma                 93.388393
_cell_volume                      1048.93581025

loop_
_atom_site_label
_atom_site_type_symbol
_atom_type_description
_atom_site_fract_x
_atom_site_fract_y
_atom_site_fract_z
_atom_type_partial_charge
C1    C     C_R   0.545307 0.794392 0.497773 0.953942
C2    C     C_2   0.430809 0.042166 0.502901 -0.371212
C3    C     C_R   0.500871 0.500211 0.661475 0.892559
C4    C     C_R   0.454697 0.205603 0.501925 0.954468
C5    C     C_R   0.499076 0.499723 0.338560 0.903928
C6    C     C_3   0.318169 0.539121 0.957352 -0.466548
C7    C     C_3   0.631706 0.628445 0.947928 -0.425166
C8    C     C_3   0.632283 0.627894 0.046277 0.004022
C9    C     C_1   0.497006 0.500928 0.249808 -0.075594
C10   C     C_3   0.499251 0.502014 0.917365 0.307652
C11   C     C_2   0.171103 0.432297 0.093680 0.386128
C12   C     C_3   0.314320 0.541963 0.056215 -0.133885
C13   C     C_2   0.014562 0.345377 0.416379 0.621488
C14   C     C_3   0.494629 0.503652 0.083010 0.181269
C15   C     C_3   0.543963 0.341212 0.044733 -0.435349
C16   C     C_3   0.543998 0.339803 0.946616 -0.405819
C17   C     C_1   0.495587 0.502323 0.174560 -0.013818
C18   C     C_1   0.501954 0.500849 0.825766 -0.092197
C19   C     C_1   0.502531 0.500324 0.750354 -0.176861
C20   C     C_2   0.569194 0.957815 0.496240 -0.341167
H1    H     H_    0.286293 0.662401 0.080165 0.203587
H2    H     H_    0.761154 0.595803 0.062342 0.184900
H3    H     H_    0.448867 0.247832 0.925577 0.181798
H4    H     H_    0.672506 0.309582 0.917108 0.182046
H5    H     H_    0.453880 0.246386 0.071081 0.196855
H6    H     H_    0.165264 0.309202 0.074687 0.085511
H7    H     H_    0.146434 0.322237 0.405166 0.089125
H8    H     H_    0.221599 0.450961 0.933629 0.164155
H9    H     H_    0.673825 0.315147 0.062269 0.213916
H10   H     H_    0.700174 0.008196 0.489784 0.196311
H11   H     H_    0.299825 0.991801 0.509276 0.182275
H12   H     H_    0.987321 0.619333 0.564324 0.187558
H13   H     H_    0.283722 0.655140 0.936256 0.181365
H14   H     H_    0.762205 0.605329 0.918199 0.162937
H15   H     H_    0.600067 0.745181 0.926894 0.197968
I1    I     I_    0.604753 0.861483 0.101015 -0.418499
N1    N     N_2   0.950340 0.457950 0.477370 -0.135762
N2    N     N_2   0.049660 0.542050 0.522630 -0.210452
O1    O     O_R   0.389240 0.738570 0.505550 -0.612253
O2    O     O_2   0.914658 0.269100 0.373744 -0.560703
O3    O     O_R   0.678400 0.711630 0.491050 -0.629638
O4    O     O_R   0.355360 0.513470 0.630110 -0.614414
O5    O     O_R   0.644510 0.486530 0.615610 -0.631687
O6    O     O_R   0.321600 0.288370 0.508950 -0.671870
O7    O     O_R   0.610760 0.261430 0.494450 -0.579729
O8    O     O_R   0.355490 0.513470 0.384390 -0.653048
O9    O     O_R   0.644640 0.486530 0.369890 -0.552995
O10   O     O_2   0.059688 0.481548 0.144981 -0.550465
Zn1   Zn    Zn3+2 0.306930 0.517990 0.509680 0.937820
Zn2   Zn    Zn3+2 0.693070 0.482010 0.490320 1.005547

loop_
_geom_bond_atom_site_label_1
_geom_bond_atom_site_label_2
_ccdc_geom_bond_type
O6    Zn1   S    
C6    C10   S    
C7    C10   S    
C2    C4    S    
C11   C12   S    
C3    O4    A    
C5    C9    S    
N1    N2    D    
H12   N2    S    
C16   H3    S    
C5    O8    A    
C8    H2    S    
C14   C17   S    
C6    H13   S    
C7    C8    S    
O5    Zn2   S    
N2    Zn1   S    
C20   H10   S    
C3    C19   S    
N1    Zn2   S    
C5    O9    A    
O8    Zn1   S    
C3    O5    A    
C11   O10   D    
C7    H15   S    
O7    Zn2   S    
C10   C18   S    
C1    O3    A    
O1    Zn1   S    
C12   C14   S    
C15   H9    S    
O9    Zn2   S    
C4    O7    A    
C6    C12   S    
C7    H14   S    
C8    C14   S    
C15   H5    S    
C1    O1    A    
O4    Zn1   S    
C2    C20   D    
C15   C16   S    
O3    Zn2   S    
C16   H4    S    
C18   C19   T    
C8    I1    S    
C9    C17   T    
C14   C15   S    
C13   H7    S    
C1    C20   S    
C10   C16   S    
C4    O6    A    
C11   H6    S    
C13   N1    S    
C12   H1    S    
C6    H8    S    
C2    H11   S    
C13   O2    D    
