data_mof_unit_38000.cif
_audit_creation_date              2012-12-11T16:29:31-0500
_audit_creation_method            fapswitch 2.2
_symmetry_space_group_name_H-M    P1
_symmetry_Int_Tables_number       1
_space_group_crystal_system       triclinic
_cell_length_a                    6.954181
_cell_length_b                    17.27863
_cell_length_c                    18.81596
_cell_angle_alpha                 106.286898
_cell_angle_beta                  89.62601
_cell_angle_gamma                 90.358534
_cell_volume                      2170.10113172

loop_
_atom_site_label
_atom_site_type_symbol
_atom_type_description
_atom_site_fract_x
_atom_site_fract_y
_atom_site_fract_z
_atom_type_partial_charge
O1    O     O_R   0.494360 0.415680 0.413760 -0.532409
O2    O     O_R   0.818810 0.432910 0.557230 -0.523188
O3    O     O_R   0.994290 0.584320 0.586240 -0.533485
C1    C     C_R   0.649848 0.415788 0.580483 0.710673
O4    O     O_R   0.823740 0.406440 0.412520 -0.536659
O5    O     O_R   0.999250 0.557660 0.440500 -0.527955
C2    C     C_R   0.655345 0.383140 0.385387 0.698512
O6    O     O_R   0.489400 0.442340 0.559500 -0.525469
O7    O     O_3   0.662500 0.549650 0.509350 -0.360051
V1    V     V_3+5 0.935340 0.490790 0.498270 1.419820
O8    O     O_R   0.329270 0.567090 0.442770 -0.522667
C3    C     C_R   0.161140 0.584041 0.419389 0.710242
O9    O     O_R   0.324340 0.593560 0.587480 -0.535365
C4    C     C_R   0.155210 0.616357 0.615097 0.695310
V2    V     V_3+5 0.435970 0.509210 0.501730 1.420279
O10   O     O_3   0.158940 0.450350 0.490650 -0.357686
H1    H     H_    0.837234 0.847916 0.564029 0.122099
C5    C     C_R   0.309605 0.604001 0.754210 -0.141121
C6    C     C_R   0.384088 0.595769 0.820224 -0.124080
C7    C     C_R   0.371603 0.659067 0.884624 -0.121630
C8    C     C_R   0.284756 0.731133 0.883501 -0.131294
C9    C     C_R   0.210241 0.741877 0.817058 0.069921
C10   C     C_R   0.222694 0.676853 0.750975 0.068959
C11   C     C_R   0.120440 0.815133 0.816121 -0.187693
C12   C     C_R   0.042716 0.823151 0.748975 0.069400
C13   C     C_R   0.055155 0.758125 0.682892 0.069965
C14   C     C_R   0.144949 0.684863 0.683827 -0.187820
C15   C     C_R   0.955813 0.896009 0.745748 -0.144425
C16   C     C_R   0.881292 0.904241 0.679741 -0.114122
C17   C     C_R   0.893751 0.840939 0.615340 -0.112392
C18   C     C_R   0.980610 0.768871 0.616456 -0.133412
H2    H     H_    0.319762 0.552248 0.706152 0.109670
H3    H     H_    0.450364 0.539649 0.821514 0.115101
H4    H     H_    0.428088 0.652090 0.935940 0.113958
H5    H     H_    0.275274 0.777746 0.935524 0.105911
H6    H     H_    0.945682 0.947766 0.793807 0.108570
H7    H     H_    0.815005 0.960361 0.678459 0.126097
H8    H     H_    0.990070 0.722256 0.564433 0.106587
C19   C     C_1   0.111842 0.863904 0.132610 -0.218995
C20   C     C_1   0.119308 0.821329 0.176174 -0.003155
C21   C     C_1   0.128597 0.771090 0.228052 -0.003857
C22   C     C_1   0.136511 0.728781 0.271840 -0.003410
C23   C     C_1   0.145800 0.678555 0.323728 -0.002216
C24   C     C_1   0.153266 0.636000 0.367309 -0.218807
C25   C     C_1   0.641301 0.363350 0.632089 -0.212039
C26   C     C_1   0.637216 0.320266 0.675239 0.014248
C27   C     C_1   0.634078 0.269440 0.726634 0.013349
C28   C     C_1   0.631795 0.226700 0.770094 0.003016
C29   C     C_1   0.628577 0.176186 0.821740 -0.021211
C30   C     C_1   0.624160 0.133888 0.865565 -0.210931
C31   C     C_R   0.782843 0.402522 0.245510 -0.152516
C32   C     C_R   0.827808 0.417210 0.178523 -0.189067
C33   C     C_R   0.777409 0.361402 0.112746 -0.206832
C34   C     C_R   0.684608 0.288852 0.112960 0.412433
C35   C     C_R   0.668682 0.266853 0.180273 -0.004416
C36   C     C_R   0.701237 0.328070 0.247941 0.016454
C37   C     C_R   0.614625 0.187676 0.182424 -0.184844
C38   C     C_R   0.568742 0.173963 0.251652 0.055620
C39   C     C_R   0.580362 0.238191 0.318285 0.065836
C40   C     C_R   0.647265 0.315148 0.316408 -0.154708
C41   C     C_R   0.509455 0.096860 0.255969 -0.160146
C42   C     C_R   0.460347 0.083723 0.323581 -0.153171
C43   C     C_R   0.470017 0.146683 0.388625 0.013489
C44   C     C_R   0.530013 0.223157 0.386200 -0.173811
H9    H     H_    0.814539 0.450153 0.295183 0.123523
H10   H     H_    0.893731 0.473886 0.177693 0.138532
H11   H     H_    0.801085 0.376359 0.061230 0.124054
H12   H     H_    0.499605 0.045786 0.207252 0.107733
H13   H     H_    0.414748 0.024093 0.325043 0.123852
H14   H     H_    0.538589 0.270355 0.438005 0.098518
O11   O     O_R   0.775690 0.057750 0.940570 -0.523053
O12   O     O_R   0.441200 0.093570 0.087490 -0.541267
O13   O     O_R   0.265840 0.942320 0.059480 -0.527303
C45   C     C_R   0.609474 0.118487 0.113744 0.792725
O14   O     O_R   0.446270 0.067110 0.942790 -0.532309
O15   O     O_R   0.270950 0.915660 0.913750 -0.534191
C46   C     C_R   0.615186 0.083044 0.918531 0.780536
O16   O     O_R   0.770580 0.084400 0.086300 -0.531982
O17   O     O_3   0.602640 0.950400 0.990690 -0.364457
V3    V     V_3+5 0.329740 0.009200 0.001730 1.400257
O18   O     O_R   0.940900 0.906360 0.912450 -0.536805
C47   C     C_R   0.110075 0.883617 0.884855 0.695882
O19   O     O_R   0.935830 0.932820 0.057160 -0.524199
C48   C     C_R   0.103961 0.915893 0.080555 0.713053
V4    V     V_3+5 0.829130 0.990680 0.998180 1.420937
O20   O     O_3   0.106100 0.049590 0.009310 -0.369593
O21   O     O_3   0.604577 0.240805 0.048184 -0.594852
C49   C     C_3   0.464248 0.283876 0.019889 0.013363
H15   H     H_    0.496536 0.275137 0.960426 0.155315
H16   H     H_    0.462352 0.350402 0.045581 0.111794
C50   C     C_3   0.262637 0.251656 0.028614 -0.280238
H17   H     H_    0.265310 0.185328 0.015420 0.245497
H18   H     H_    0.213817 0.275807 0.086997 0.183627
C51   C     C_3   0.119378 0.274898 0.977110 -0.829787
H19   H     H_    0.109419 0.341529 0.990029 0.224530
H20   H     H_    0.975488 0.249783 0.984089 0.251551
H21   H     H_    0.164568 0.249707 0.918444 0.232251
C52   C     C_1   0.419849 0.132741 0.458415 0.289485
N1    N     N_1   0.379617 0.121622 0.514531 -0.345441

loop_
_geom_bond_atom_site_label_1
_geom_bond_atom_site_label_2
_ccdc_geom_bond_type
C35   C36   A    
C21   C22   T    
C6    C7    A    
O17   V4    S    
C1    O6    A    
O18   C47   A    
C25   C26   T    
C12   C15   A    
C13   C14   A    
C16   C17   A    
C15   C16   A    
C19   C48   S    
C5    C6    A    
C43   C52   S    
V4    O20   S    
C17   C18   A    
V2    O10   S    
C31   C36   A    
C31   H9    S    
C11   C47   S    
V3    O20   S    
C26   C27   S    
O8    V2    S    
C27   C28   T    
O1    V2    S    
C44   H14   S    
C4    C14   S    
O7    V1    S    
O13   C48   A    
C50   H17   S    
C7    H4    S    
C38   C41   A    
C39   C40   A    
O11   V4    S    
O9    C4    A    
H1    C17   S    
C41   C42   A    
C1    C25   S    
C5    C10   A    
C11   C12   A    
O12   C45   A    
C6    H3    S    
O15   C47   A    
C19   C20   T    
O4    C2    A    
C51   H21   S    
C38   C39   A    
C33   C34   A    
C31   C32   A    
C42   H13   S    
C37   C45   S    
O2    C1    A    
C23   C24   T    
C42   C43   A    
C50   H18   S    
O19   C48   A    
C49   C50   S    
C39   C44   A    
C7    C8    A    
C51   H20   S    
O14   C46   A    
O3    C4    A    
O16   V4    S    
C20   C21   S    
O19   V4    S    
C49   H16   S    
C52   N1    T    
O6    V2    S    
C10   C14   A    
C35   C37   A    
C9    C11   A    
O17   V3    S    
C5    H2    S    
C22   C23   S    
O2    V1    S    
C30   C46   S    
C2    C40   S    
O11   C46   A    
C32   H10   S    
C32   C33   A    
O14   V3    S    
C34   C35   A    
C28   C29   S    
O1    C2    A    
O15   V3    S    
O5    V1    S    
O8    C3    A    
C8    H5    S    
C18   H8    S    
O9    V2    S    
C12   C13   A    
O4    V1    S    
O12   V3    S    
O3    V1    S    
V1    O10   S    
C50   C51   S    
O5    C3    A    
C41   H12   S    
C37   C38   A    
C34   O21   S    
O13   V3    S    
O7    V2    S    
C51   H19   S    
C33   H11   S    
C43   C44   A    
C36   C40   A    
C13   C18   A    
C49   H15   S    
C15   H6    S    
O21   C49   S    
C3    C24   S    
C29   C30   T    
C45   O16   A    
C16   H7    S    
C9    C10   A    
C8    C9    A    
O18   V4    S    
