data_mof_unit_29225.cif
_audit_creation_date              2012-12-11T16:21:32-0500
_audit_creation_method            fapswitch 2.2
_symmetry_space_group_name_H-M    P1
_symmetry_Int_Tables_number       1
_space_group_crystal_system       triclinic
_cell_length_a                    7.191117
_cell_length_b                    37.096022
_cell_length_c                    41.076814
_cell_angle_alpha                 89.999966
_cell_angle_beta                  89.999879
_cell_angle_gamma                 90.000125
_cell_volume                      10957.7262554

loop_
_atom_site_label
_atom_site_type_symbol
_atom_type_description
_atom_site_fract_x
_atom_site_fract_y
_atom_site_fract_z
_atom_type_partial_charge
O1    O     O_R   0.564240 0.782760 0.216890 -0.536915
O2    O     O_R   0.435760 0.217240 0.783110 -0.536851
O3    O     O_R   0.435760 0.217240 0.716890 -0.536913
O4    O     O_R   0.564240 0.782760 0.283110 -0.536851
O5    O     O_R   0.064240 0.717240 0.283110 -0.536912
O6    O     O_R   0.935760 0.282760 0.716890 -0.536851
O7    O     O_R   0.935760 0.282760 0.783110 -0.536914
O8    O     O_R   0.064240 0.717240 0.216890 -0.536852
O9    O     O_R   0.234510 0.787070 0.282870 -0.540738
O10   O     O_R   0.765490 0.212930 0.717130 -0.539976
O11   O     O_R   0.765490 0.212930 0.782870 -0.540738
O12   O     O_R   0.234510 0.787070 0.217130 -0.539979
O13   O     O_R   0.734510 0.712930 0.217130 -0.540739
O14   O     O_R   0.265490 0.287070 0.782870 -0.539976
O15   O     O_R   0.265490 0.287070 0.717130 -0.540739
O16   O     O_R   0.734510 0.712930 0.282870 -0.539976
C1    C     C_R   0.403158 0.795858 0.293658 0.699313
C2    C     C_R   0.596906 0.204141 0.706360 0.699910
C3    C     C_R   0.596842 0.204142 0.793658 0.699308
C4    C     C_R   0.403094 0.795858 0.206359 0.699916
C5    C     C_R   0.903158 0.704142 0.206342 0.699310
C6    C     C_R   0.096906 0.295859 0.793640 0.699913
C7    C     C_R   0.096842 0.295858 0.706342 0.699310
C8    C     C_R   0.903094 0.704141 0.293640 0.699909
O17   O     O_3   0.397750 0.727090 0.250000 -0.374342
O18   O     O_3   0.602250 0.272910 0.750000 -0.374343
O19   O     O_3   0.897750 0.772910 0.250000 -0.374344
O20   O     O_3   0.102250 0.227090 0.750000 -0.374343
V1    V     V_3+5 0.122890 0.754250 0.250000 1.409246
V2    V     V_3+5 0.877110 0.245750 0.750000 1.409246
V3    V     V_3+5 0.622890 0.745750 0.250000 1.409247
V4    V     V_3+5 0.377110 0.254250 0.750000 1.409246
C9    C     C_R   0.822398 0.602246 0.423407 0.586995
C10   C     C_R   0.103575 0.388724 0.571003 0.584137
C11   C     C_R   0.177561 0.397745 0.923414 0.586990
C12   C     C_R   0.896443 0.611278 0.071002 0.584144
C13   C     C_R   0.322536 0.897724 0.076570 0.586977
C14   C     C_R   0.603418 0.111287 0.929004 0.584146
C15   C     C_R   0.677604 0.102245 0.576593 0.586995
C16   C     C_R   0.396409 0.888725 0.428996 0.584135
O21   O     O_2   0.706140 0.630703 0.425500 -0.527351
O22   O     O_2   0.168074 0.355027 0.565970 -0.522686
O23   O     O_2   0.293780 0.369282 0.925512 -0.527348
O24   O     O_2   0.831967 0.644976 0.065967 -0.522680
O25   O     O_2   0.206410 0.869248 0.074463 -0.527339
O26   O     O_2   0.667774 0.144994 0.934044 -0.522675
O27   O     O_2   0.793864 0.130702 0.574500 -0.527353
O28   O     O_2   0.331893 0.855029 0.434029 -0.522690
N1    N     N_R   0.936836 0.598672 0.396839 -0.553677
N2    N     N_R   0.054314 0.399344 0.601803 -0.557766
N3    N     N_R   0.063163 0.401325 0.896841 -0.553677
N4    N     N_R   0.945679 0.600657 0.101802 -0.557768
N5    N     N_R   0.436843 0.901319 0.103153 -0.553679
N6    N     N_R   0.554306 0.100660 0.898200 -0.557774
N7    N     N_R   0.563161 0.098672 0.603161 -0.553675
N8    N     N_R   0.445687 0.899344 0.398197 -0.557764
C17   C     C_R   0.058262 0.570221 0.394623 0.573929
C18   C     C_R   0.988059 0.433427 0.607477 0.573179
C19   C     C_R   0.941775 0.429782 0.894621 0.573924
C20   C     C_R   0.011903 0.566572 0.107479 0.573179
C21   C     C_R   0.558140 0.929789 0.105383 0.573916
C22   C     C_R   0.488200 0.066567 0.892518 0.573178
C23   C     C_R   0.441730 0.070222 0.605376 0.573927
C24   C     C_R   0.511960 0.933426 0.392523 0.573179
C25   C     C_R   0.087368 0.644865 0.362124 -0.086021
C26   C     C_R   0.903734 0.361227 0.643389 -0.090136
C27   C     C_R   0.912616 0.355141 0.862118 -0.086014
C28   C     C_R   0.096260 0.638770 0.143392 -0.090132
C29   C     C_R   0.587411 0.855151 0.137889 -0.086009
C30   C     C_R   0.403736 0.138758 0.856598 -0.090137
C31   C     C_R   0.412626 0.144863 0.637877 -0.086019
C32   C     C_R   0.596267 0.861227 0.356610 -0.090132
C33   C     C_R   0.079571 0.670290 0.336963 -0.194538
C34   C     C_R   0.913753 0.336100 0.668729 -0.190655
C35   C     C_R   0.920413 0.329718 0.836956 -0.194537
C36   C     C_R   0.086242 0.663897 0.168732 -0.190658
C37   C     C_R   0.579611 0.829728 0.163052 -0.194527
C38   C     C_R   0.413758 0.163883 0.831257 -0.190660
C39   C     C_R   0.420424 0.170288 0.663039 -0.194540
C40   C     C_R   0.586247 0.836100 0.331271 -0.190656
C41   C     C_R   0.753196 0.656844 0.329037 -0.195543
C42   C     C_R   0.249828 0.336228 0.664708 -0.192953
C43   C     C_R   0.246822 0.343145 0.829046 -0.195538
C44   C     C_R   0.750171 0.663778 0.164704 -0.192951
C45   C     C_R   0.253157 0.843130 0.170940 -0.195527
C46   C     C_R   0.749823 0.163794 0.835309 -0.192953
C47   C     C_R   0.746808 0.156847 0.670961 -0.195543
C48   C     C_R   0.250172 0.836227 0.335292 -0.192953
C49   C     C_R   0.761725 0.631196 0.354000 -0.086436
C50   C     C_R   0.239327 0.361301 0.639251 -0.083399
C51   C     C_R   0.238294 0.368792 0.854010 -0.086433
C52   C     C_R   0.760671 0.638705 0.139247 -0.083399
C53   C     C_R   0.261685 0.868774 0.145974 -0.086432
C54   C     C_R   0.739319 0.138722 0.860767 -0.083408
C55   C     C_R   0.738278 0.131199 0.645998 -0.086435
C56   C     C_R   0.260674 0.861301 0.360749 -0.083396
C57   C     C_R   0.928651 0.625033 0.370867 0.364879
C58   C     C_R   0.066183 0.373938 0.628384 0.377536
C59   C     C_R   0.071351 0.374964 0.870869 0.364884
C60   C     C_R   0.933811 0.626063 0.128384 0.377533
C61   C     C_R   0.428653 0.874959 0.129126 0.364916
C62   C     C_R   0.566179 0.126066 0.871618 0.377545
C63   C     C_R   0.571348 0.125033 0.629133 0.364872
C64   C     C_R   0.433817 0.873938 0.371615 0.377529
C65   C     C_R   0.949640 0.547375 0.446781 -0.053258
C66   C     C_R   0.013191 0.447291 0.549764 -0.051067
C67   C     C_R   0.050356 0.452622 0.946784 -0.053248
C68   C     C_R   0.986796 0.552708 0.049765 -0.051072
C69   C     C_R   0.449640 0.952615 0.053211 -0.053227
C70   C     C_R   0.513184 0.052708 0.950234 -0.051081
C71   C     C_R   0.550358 0.047375 0.553219 -0.053260
C72   C     C_R   0.486811 0.947290 0.450236 -0.051064
C73   C     C_R   0.826567 0.576640 0.448791 -0.057155
C74   C     C_R   0.084473 0.412558 0.544440 -0.056182
C75   C     C_R   0.173390 0.423351 0.948798 -0.057158
C76   C     C_R   0.915547 0.587443 0.044439 -0.056186
C77   C     C_R   0.326704 0.923330 0.051185 -0.057163
C78   C     C_R   0.584309 0.087451 0.955565 -0.056194
C79   C     C_R   0.673438 0.076639 0.551209 -0.057153
C80   C     C_R   0.415511 0.912559 0.455559 -0.056180
C81   C     C_R   0.705332 0.579025 0.475409 -0.172910
C82   C     C_R   0.125055 0.401628 0.512576 -0.173197
C83   C     C_R   0.294585 0.420959 0.975421 -0.172890
C84   C     C_R   0.874997 0.598374 0.012575 -0.173204
C85   C     C_R   0.205592 0.920923 0.024552 -0.172851
C86   C     C_R   0.624728 0.098388 0.987433 -0.173215
C87   C     C_R   0.794681 0.079023 0.524593 -0.172912
C88   C     C_R   0.374912 0.901630 0.487422 -0.173198
C89   C     C_R   0.067180 0.544159 0.419526 -0.021078
C90   C     C_R   0.965835 0.457971 0.581601 -0.025758
C91   C     C_R   0.932854 0.455843 0.919524 -0.021073
C92   C     C_R   0.034117 0.542027 0.081603 -0.025760
C93   C     C_R   0.567052 0.955851 0.080480 -0.021068
C94   C     C_R   0.465983 0.042021 0.918392 -0.025770
C95   C     C_R   0.432810 0.044160 0.580472 -0.021077
C96   C     C_R   0.534183 0.957969 0.418399 -0.025757
C97   C     C_R   0.912141 0.676730 0.320118 -0.053486
C98   C     C_R   0.086975 0.323145 0.679737 -0.052940
C99   C     C_R   0.087860 0.323269 0.820119 -0.053485
C100  C     C_R   0.913023 0.676855 0.179737 -0.052938
C101  C     C_R   0.412141 0.823267 0.179880 -0.053484
C102  C     C_R   0.586975 0.176856 0.820263 -0.052933
C103  C     C_R   0.587859 0.176731 0.679882 -0.053484
C104  C     C_R   0.413025 0.823145 0.320262 -0.052940
H1    H     H_    0.622024 0.660888 0.316615 0.139816
H2    H     H_    0.385628 0.326925 0.672395 0.132459
H3    H     H_    0.378009 0.339094 0.816631 0.139807
H4    H     H_    0.614374 0.673084 0.172389 0.132461
H5    H     H_    0.121950 0.839069 0.183346 0.139792
H6    H     H_    0.885618 0.173112 0.827633 0.132454
H7    H     H_    0.877984 0.160893 0.683381 0.139814
H8    H     H_    0.114373 0.826924 0.327605 0.132460
H9    H     H_    0.600768 0.600056 0.475734 0.164958
H10   H     H_    0.166531 0.373971 0.508189 0.165889
H11   H     H_    0.399124 0.399924 0.975750 0.164960
H12   H     H_    0.833540 0.626033 0.008187 0.165892
H13   H     H_    0.101112 0.899877 0.024215 0.164959
H14   H     H_    0.666079 0.126051 0.991825 0.165895
H15   H     H_    0.899250 0.100053 0.524268 0.164959
H16   H     H_    0.333421 0.873973 0.491809 0.165889
C105  C     C_R   0.900108 0.505057 0.528468 0.037896
C106  C     C_R   0.067029 0.490033 0.468290 0.034957
C107  C     C_R   0.099833 0.494937 0.028473 0.037860
C108  C     C_R   0.933002 0.509968 0.968289 0.034915
C109  C     C_R   0.400262 0.994924 0.971518 0.037790
C110  C     C_R   0.566875 0.009976 0.031716 0.034846
C111  C     C_R   0.599906 0.005056 0.471533 0.037900
C112  C     C_R   0.432959 0.990034 0.531709 0.034967
C113  C     C_R   0.055586 0.462032 0.491929 0.018128
C114  C     C_R   0.854498 0.527065 0.501210 0.022291
C115  C     C_R   0.944441 0.537968 0.991929 0.018156
C116  C     C_R   0.145451 0.472926 0.001217 0.022282
C117  C     C_R   0.555418 0.037974 0.008074 0.018221
C118  C     C_R   0.354635 0.972908 0.998770 0.022267
C119  C     C_R   0.444400 0.962033 0.508071 0.018126
C120  C     C_R   0.645512 0.027064 0.498791 0.022293
C121  C     C_R   0.989304 0.471426 0.523305 0.025349
C122  C     C_R   0.956423 0.521414 0.472108 0.032314
C123  C     C_R   0.010681 0.528571 0.023307 0.025363
C124  C     C_R   0.043571 0.478583 0.972110 0.032321
C125  C     C_R   0.489300 0.028568 0.976691 0.025398
C126  C     C_R   0.456416 0.978577 0.027885 0.032329
C127  C     C_R   0.510698 0.971426 0.476695 0.025342
C128  C     C_R   0.543576 0.021414 0.527892 0.032313
C129  C     C_R   0.871661 0.516416 0.560790 -0.183746
C130  C     C_R   0.194975 0.489119 0.442350 -0.188138
C131  C     C_R   0.128229 0.483576 0.060795 -0.183713
C132  C     C_R   0.805086 0.510887 0.942344 -0.188164
C133  C     C_R   0.371993 0.983560 0.939193 -0.183657
C134  C     C_R   0.694714 0.010910 0.057671 -0.188212
C135  C     C_R   0.628371 0.016414 0.439211 -0.183748
C136  C     C_R   0.305004 0.989122 0.557648 -0.188138
C137  C     C_R   0.900977 0.493098 0.586909 -0.137654
C138  C     C_R   0.193558 0.515444 0.418125 -0.130127
C139  C     C_R   0.098925 0.506897 0.086914 -0.137629
C140  C     C_R   0.806506 0.484563 0.918119 -0.130144
C141  C     C_R   0.401298 0.006883 0.913076 -0.137575
C142  C     C_R   0.693305 0.984586 0.081896 -0.130184
C143  C     C_R   0.599057 0.993095 0.413092 -0.137656
C144  C     C_R   0.306422 0.015446 0.581873 -0.130124
O29   O     O_2   0.943751 0.443566 0.638053 -0.520977
O30   O     O_2   0.168373 0.566798 0.368207 -0.528545
O31   O     O_2   0.056189 0.556432 0.138055 -0.520978
O32   O     O_2   0.831702 0.433210 0.868201 -0.528542
O33   O     O_2   0.444036 0.056422 0.861938 -0.520970
O34   O     O_2   0.668125 0.933230 0.131813 -0.528530
O35   O     O_2   0.556284 0.943564 0.361948 -0.520976
O36   O     O_2   0.331615 0.066800 0.631792 -0.528548
C145  C     C_R   0.711435 0.553951 0.501118 0.117858
C146  C     C_R   0.103759 0.425162 0.485951 0.119095
C147  C     C_R   0.288480 0.446034 0.001130 0.117886
C148  C     C_R   0.896300 0.574840 0.985950 0.119103
C149  C     C_R   0.211685 0.946001 0.998845 0.117932
C150  C     C_R   0.603418 0.074851 0.014057 0.119097
C151  C     C_R   0.788581 0.053948 0.498884 0.117851
C152  C     C_R   0.396209 0.925163 0.514048 0.119094
H17   H     H_    0.785245 0.326799 0.679601 0.135441
H18   H     H_    0.204623 0.685134 0.330961 0.136997
H19   H     H_    0.214748 0.673194 0.179606 0.135442
H20   H     H_    0.795346 0.314882 0.830948 0.136993
H21   H     H_    0.285255 0.173168 0.820372 0.135445
H22   H     H_    0.704697 0.814904 0.169071 0.136987
H23   H     H_    0.714754 0.826800 0.320398 0.135441
H24   H     H_    0.295368 0.185129 0.669042 0.136997
H25   H     H_    0.873767 0.502830 0.611309 0.170676
H26   H     H_    0.293438 0.513386 0.398475 0.166463
H27   H     H_    0.126097 0.497163 0.111314 0.170668
H28   H     H_    0.706649 0.486625 0.898466 0.166470
H29   H     H_    0.374236 0.997145 0.888674 0.170653
H30   H     H_    0.793097 0.986660 0.101559 0.166486
H31   H     H_    0.626282 0.002827 0.388693 0.170679
H32   H     H_    0.206536 0.013390 0.601522 0.166462
H33   H     H_    0.837895 0.543998 0.566371 0.128830
H34   H     H_    0.306171 0.469686 0.441791 0.123690
H35   H     H_    0.161923 0.455991 0.066378 0.128800
H36   H     H_    0.693904 0.530323 0.941783 0.123719
H37   H     H_    0.338446 0.955968 0.933608 0.128741
H38   H     H_    0.805831 0.030360 0.058242 0.123767
H39   H     H_    0.662150 0.043995 0.433630 0.128834
H40   H     H_    0.193801 0.969690 0.558206 0.123687
H41   H     H_    0.638060 0.616008 0.360189 0.143755
H42   H     H_    0.366022 0.370903 0.627943 0.122213
H43   H     H_    0.361972 0.383972 0.860206 0.143735
H44   H     H_    0.633978 0.629106 0.127936 0.122213
H45   H     H_    0.137988 0.883944 0.139768 0.143679
H46   H     H_    0.866009 0.129135 0.872088 0.122198
H47   H     H_    0.861946 0.116013 0.639807 0.143759
H48   H     H_    0.133979 0.870903 0.372057 0.122218
H49   H     H_    0.769038 0.370617 0.635190 0.119612
H50   H     H_    0.217168 0.640707 0.374957 0.140918
H51   H     H_    0.230953 0.629377 0.135194 0.119613
H52   H     H_    0.782803 0.359306 0.874945 0.140899
H53   H     H_    0.269043 0.129353 0.864785 0.119602
H54   H     H_    0.717244 0.859325 0.125072 0.140848
H55   H     H_    0.730962 0.870617 0.364810 0.119617
H56   H     H_    0.282823 0.140704 0.625046 0.140922
C153  C     C_3   0.544482 0.553601 0.524099 -0.350047
C154  C     C_3   0.442840 0.517417 0.523715 -0.708082
H57   H     H_    0.412216 0.509312 0.498292 0.229967
H58   H     H_    0.526388 0.495996 0.535526 0.234625
H59   H     H_    0.309839 0.519918 0.537240 0.220729
H60   H     H_    0.580275 0.561398 0.549230 0.173637
H61   H     H_    0.440996 0.574222 0.516478 0.178903
C155  C     C_3   0.099022 0.407790 0.452274 -0.346485
C156  C     C_3   0.910178 0.412760 0.435765 -0.711746
H62   H     H_    0.797123 0.402822 0.451870 0.225754
H63   H     H_    0.884490 0.441488 0.429817 0.233451
H64   H     H_    0.906860 0.397131 0.412717 0.216393
H65   H     H_    0.211762 0.417042 0.436145 0.172449
H66   H     H_    0.122413 0.378235 0.454198 0.177937
C157  C     C_3   0.455408 0.446377 0.024116 -0.350069
C158  C     C_3   0.557165 0.482549 0.023713 -0.708117
H67   H     H_    0.588051 0.490606 0.998288 0.229983
H68   H     H_    0.473568 0.503998 0.035471 0.234630
H69   H     H_    0.690033 0.480055 0.037278 0.220742
H70   H     H_    0.419570 0.438605 0.049251 0.173654
H71   H     H_    0.558833 0.425737 0.016511 0.178895
C159  C     C_3   0.901070 0.592213 0.952273 -0.346486
C160  C     C_3   0.089917 0.587238 0.935767 -0.711747
H72   H     H_    0.202970 0.597174 0.951874 0.225754
H73   H     H_    0.115592 0.558509 0.929819 0.233457
H74   H     H_    0.093255 0.602866 0.912718 0.216393
H75   H     H_    0.788331 0.582965 0.936142 0.172448
H76   H     H_    0.877699 0.621769 0.954197 0.177937
C161  C     C_3   0.044798 0.946333 0.975850 -0.350123
C162  C     C_3   0.942813 0.982479 0.976295 -0.708164
H77   H     H_    0.911470 0.990447 0.001726 0.230014
H78   H     H_    0.026477 0.003983 0.964632 0.234633
H79   H     H_    0.810173 0.979997 0.962660 0.220763
H80   H     H_    0.080719 0.938611 0.950707 0.173697
H81   H     H_    0.941499 0.925654 0.983422 0.178884
C163  C     C_3   0.598474 0.092224 0.047733 -0.346480
C164  C     C_3   0.409581 0.087227 0.064217 -0.711754
H82   H     H_    0.296557 0.097150 0.048098 0.225755
H83   H     H_    0.383974 0.058495 0.070163 0.233463
H84   H     H_    0.406108 0.102855 0.087266 0.216392
H85   H     H_    0.711181 0.082989 0.063877 0.172456
H86   H     H_    0.621762 0.121782 0.045811 0.177938
C165  C     C_3   0.955544 0.053596 0.475905 -0.350042
C166  C     C_3   0.057164 0.017410 0.476288 -0.708082
H87   H     H_    0.087728 0.009298 0.501711 0.229966
H88   H     H_    0.973630 0.995994 0.464467 0.234624
H89   H     H_    0.190195 0.019912 0.462772 0.220728
H90   H     H_    0.919764 0.061396 0.450774 0.173636
H91   H     H_    0.059038 0.074215 0.483529 0.178904
C167  C     C_3   0.400924 0.907791 0.547725 -0.346483
C168  C     C_3   0.589760 0.912759 0.564237 -0.711743
H92   H     H_    0.702822 0.902821 0.548134 0.225752
H93   H     H_    0.615450 0.941487 0.570187 0.233450
H94   H     H_    0.593063 0.897129 0.587285 0.216392
H95   H     H_    0.288176 0.917044 0.563852 0.172446
H96   H     H_    0.377524 0.878237 0.545800 0.177936

loop_
_geom_bond_atom_site_label_1
_geom_bond_atom_site_label_2
_ccdc_geom_bond_type
C69   C126  A    
C112  C119  A    
C129  H33   S    
C140  H28   S    
C155  H65   S    
C82   H10   S    
C10   O22   S    
C133  H37   S    
C20   C92   A    
C21   C93   A    
O15   V4    S    
O16   V3    S    
C19   C91   A    
C114  C122  A    
C15   O27   S    
C157  C158  S    
C120  C128  A    
C143  H31   S    
C85   C149  A    
C158  H67   S    
C17   O30   S    
C11   C75   A    
C66   C121  A    
C21   O34   S    
C36   C100  A    
C147  C157  S    
C70   C78   A    
C163  H85   S    
O13   V3    S    
C75   C83   A    
C69   C93   A    
C39   H24   S    
C53   C61   A    
C72   C80   A    
C88   H16   S    
C6    C99   S    
O10   V2    S    
C145  C153  S    
C151  C165  S    
O12   C4    A    
C80   C88   A    
C167  C168  S    
O13   C5    A    
C107  C116  A    
C53   H45   S    
C28   H51   S    
O6    V2    S    
C23   O36   S    
C56   C64   A    
C11   N3    A    
C12   O24   S    
C32   H55   S    
C13   O25   S    
C43   C51   A    
C166  H87   S    
C119  C127  A    
C133  C141  A    
C66   C90   A    
O1    C4    A    
C162  H79   S    
O2    C3    A    
C153  H61   S    
C108  C132  A    
C29   C61   A    
O7    C6    A    
C111  C135  A    
C112  C136  A    
C139  H27   S    
C118  C149  A    
C119  C152  A    
C137  H25   S    
C42   C98   A    
C40   H23   S    
C162  H78   S    
C138  H26   S    
C106  C113  A    
C149  C161  S    
O10   C2    A    
C158  H69   S    
C136  C144  A    
C37   C101  A    
N1    C57   S    
C157  H71   S    
C13   C77   A    
C54   C62   A    
C49   C57   A    
C144  H32   S    
C168  H93   S    
O17   V3    S    
C24   C96   A    
O18   V4    S    
O12   V1    S    
O19   V1    S    
C29   C37   A    
C110  C126  A    
C90   C137  A    
C87   C151  A    
C118  C126  A    
C31   C39   A    
C33   C97   A    
C1    C104  S    
O8    V1    S    
C65   C73   A    
C2    C103  S    
C46   H6    S    
C136  H40   S    
C150  C163  S    
C36   H19   S    
C26   C34   A    
O1    V3    S    
N1    C17   A    
O2    V4    S    
C153  C154  S    
N4    C20   A    
C55   H47   S    
N5    C21   A    
C19   O32   S    
C39   C103  A    
C70   C125  A    
C155  C156  S    
C40   C104  A    
N7    C23   A    
C82   C146  A    
C11   O23   S    
C165  H90   S    
C12   N4    A    
C166  H89   S    
C13   N5    A    
C160  H73   S    
C25   H50   S    
C115  C123  A    
C72   C96   A    
C113  C121  A    
C55   C63   A    
C29   H54   S    
C157  H70   S    
C24   O35   S    
N2    C58   S    
C135  H39   S    
C45   C101  A    
C165  H91   S    
C109  C118  A    
N4    C60   S    
C68   C123  A    
C28   C60   A    
C164  H82   S    
C120  C151  A    
C156  H63   S    
C88   C152  A    
C159  H75   S    
C50   H42   S    
C107  C123  A    
O14   C6    A    
C70   C94   A    
C27   C35   A    
C12   C76   A    
C31   C63   A    
C106  C122  A    
C155  H66   S    
C4    C101  S    
C130  C138  A    
C152  C167  S    
C141  H29   S    
C8    C97   S    
C28   C36   A    
C161  H81   S    
C9    C73   A    
C167  H95   S    
C168  H94   S    
C26   C58   A    
C154  H57   S    
C32   C40   A    
C35   C99   A    
C115  C148  A    
C15   C79   A    
C113  C146  A    
C33   H18   S    
C14   O26   S    
C37   H22   S    
C73   C81   A    
C158  H68   S    
C159  C160  S    
C44   C52   A    
C51   C59   A    
C77   C85   A    
C130  H34   S    
C79   C87   A    
C94   C141  A    
C48   C56   A    
C7    C98   S    
C163  H86   S    
C134  H38   S    
C116  C147  A    
C43   C99   A    
C89   C138  A    
C69   C77   A    
C83   H11   S    
C41   C97   A    
C34   C98   A    
O11   C3    A    
C81   H9    S    
C164  H84   S    
C38   C102  A    
C85   H13   S    
C9    N1    A    
C105  C129  A    
C86   C150  A    
C15   N7    A    
O11   V2    S    
N5    C61   S    
C16   N8    A    
C92   C139  A    
C109  C133  A    
C160  H72   S    
C108  C124  A    
C27   C59   A    
C41   C49   A    
C27   H52   S    
C116  C124  A    
C117  C125  A    
O7    V2    S    
C44   C100  A    
C84   C148  A    
C42   H2    S    
C166  H88   S    
C72   C127  A    
C44   H4    S    
C153  H60   S    
N2    C18   A    
N8    C64   S    
C95   C144  A    
C32   C64   A    
C168  H92   S    
C165  C166  S    
C161  C162  S    
C14   N6    A    
C54   H46   S    
O4    C1    A    
C16   C80   A    
C3    C102  S    
C134  C142  A    
C110  C117  A    
C76   C84   A    
N6    C62   S    
O14   V4    S    
C30   C62   A    
N6    C22   A    
C42   C50   A    
C9    O21   S    
C68   C76   A    
C117  C150  A    
C71   C95   A    
C35   H20   S    
C18   C90   A    
O3    V4    S    
O4    V3    S    
C14   C78   A    
C5    C100  S    
C56   H48   S    
C93   C142  A    
C67   C124  A    
C30   C38   A    
C91   C140  A    
C65   C122  A    
C114  C145  A    
C66   C74   A    
C17   C89   A    
C163  C164  S    
C135  C143  A    
C162  H77   S    
N7    C63   S    
C25   C33   A    
O3    C2    A    
C107  C131  A    
C160  H74   S    
C16   O28   S    
C96   C143  A    
C46   C54   A    
C111  C127  A    
C18   O29   S    
C112  C128  A    
C83   C147  A    
C81   C145  A    
C156  H62   S    
C22   O33   S    
C132  H36   S    
O9    V1    S    
O15   C7    A    
C26   H49   S    
O16   C8    A    
C47   H7    S    
C48   H8    S    
C45   C53   A    
C30   H53   S    
O5    V1    S    
C86   H14   S    
N3    C59   S    
C10   N2    A    
C146  C155  S    
C68   C92   A    
C46   C102  A    
C67   C91   A    
C106  C130  A    
C65   C89   A    
C161  H80   S    
C167  H96   S    
C47   C55   A    
C110  C134  A    
C23   C95   A    
C154  H58   S    
C20   O31   S    
N8    C24   A    
O8    C5    A    
C67   C75   A    
C43   H3    S    
C105  C114  A    
C71   C79   A    
O9    C1    A    
C51   H43   S    
C41   H1    S    
C84   H12   S    
C49   H41   S    
C154  H59   S    
N3    C19   A    
C87   H15   S    
C52   C60   A    
C131  C139  A    
C129  C137  A    
C142  H30   S    
C10   C74   A    
C109  C125  A    
C22   C94   A    
O20   V2    S    
C25   C57   A    
C164  H83   S    
C52   H44   S    
O5    C8    A    
O6    C7    A    
C34   H17   S    
C71   C128  A    
C48   C104  A    
C156  H64   S    
C45   H5    S    
C31   H56   S    
C38   H21   S    
C74   C82   A    
C132  C140  A    
C108  C115  A    
C159  H76   S    
C78   C86   A    
C47   C103  A    
C105  C121  A    
C50   C58   A    
C131  H35   S    
C111  C120  A    
C148  C159  S    
