data_mof_unit_62471.cif
_audit_creation_date              2012-12-10T18:12:03-0500
_audit_creation_method            fapswitch 2.2
_symmetry_space_group_name_H-M    P1
_symmetry_Int_Tables_number       1
_space_group_crystal_system       triclinic
_cell_length_a                    18.709688
_cell_length_b                    18.711963
_cell_length_c                    18.71061
_cell_angle_alpha                 109.519476
_cell_angle_beta                  109.413468
_cell_angle_gamma                 109.526546
_cell_volume                      5039.71156642

loop_
_atom_site_label
_atom_site_type_symbol
_atom_type_description
_atom_site_fract_x
_atom_site_fract_y
_atom_site_fract_z
_atom_type_partial_charge
C1    C     C_R   0.620217 0.620263 0.499981 0.860073
C2    C     C_R   0.192418 0.164223 0.201863 -0.113675
C3    C     C_R   0.176805 0.421215 0.177557 -0.261868
C4    C     C_R   0.186319 0.501876 0.188138 -0.042649
C5    C     C_R   0.258306 0.581252 0.261667 0.059341
C6    C     C_R   0.320476 0.578143 0.324239 -0.257736
C7    C     C_R   0.311108 0.497457 0.313655 -0.078853
C8    C     C_R   0.238930 0.417951 0.240117 0.001187
C9    C     C_R   0.334302 0.724026 0.270123 -0.217730
C10   C     C_R   0.344771 0.806010 0.284535 -0.136170
C11   C     C_R   0.289830 0.832568 0.306115 -0.187282
C12   C     C_R   0.378486 0.498593 0.379762 0.874228
C13   C     C_R   0.224682 0.777504 0.313992 -0.221618
C14   C     C_R   0.214159 0.695219 0.300597 0.556007
C15   C     C_R   0.268319 0.667738 0.276777 0.018593
C16   C     C_R   0.757553 0.758304 0.579703 -0.186524
C17   C     C_R   0.822213 0.821567 0.579673 -0.186598
C18   C     C_R   0.813561 0.813613 0.499895 -0.008862
C19   C     C_R   0.741582 0.742429 0.420144 -0.188451
C20   C     C_R   0.678273 0.677804 0.420169 -0.188216
C21   C     C_R   0.686285 0.686414 0.499951 -0.008304
C22   C     C_R   0.678500 0.500693 0.758283 -0.185254
C23   C     C_R   0.380028 0.379738 0.500325 0.860978
C24   C     C_R   0.741722 0.499258 0.821481 -0.186030
C25   C     C_R   0.813608 0.499978 0.813596 -0.007757
C26   C     C_R   0.822212 0.500762 0.742455 -0.186061
C27   C     C_R   0.757611 0.499432 0.677876 -0.186877
C28   C     C_R   0.686412 0.500082 0.686445 -0.009619
C29   C     C_R   0.245345 0.324484 0.506145 -0.204638
C30   C     C_R   0.180376 0.259641 0.504249 -0.192288
C31   C     C_R   0.186370 0.186057 0.499874 -0.006320
C32   C     C_R   0.255761 0.175810 0.495835 -0.198208
C33   C     C_R   0.319268 0.239333 0.494891 -0.193613
C34   C     C_R   0.620260 0.500027 0.620289 0.858973
C35   C     C_R   0.314114 0.313692 0.500728 -0.015532
C36   C     C_R   0.999653 0.620328 0.119933 0.900687
C37   C     C_R   0.120232 0.501064 0.121151 0.911067
C38   C     C_R   0.000057 0.379697 0.879794 0.854246
C39   C     C_R   0.879755 0.499978 0.879704 0.855051
C40   C     C_R   0.000156 0.879985 0.379748 0.860925
C41   C     C_R   0.879737 0.879684 0.499881 0.859669
C42   C     C_R   0.000032 0.120136 0.620179 0.860245
C43   C     C_R   0.120233 0.119993 0.499820 0.857617
C44   C     C_R   0.012980 0.764443 0.185281 -0.208366
C45   C     C_R   0.207383 0.189585 0.143577 -0.141929
C46   C     C_R   0.012127 0.828022 0.248809 -0.197599
C47   C     C_R   0.000099 0.814077 0.313709 -0.002730
C48   C     C_R   0.987461 0.736892 0.315193 -0.224742
C49   C     C_R   0.985288 0.672072 0.249994 -0.133898
C50   C     C_R   0.999082 0.686459 0.185824 -0.019815
C51   C     C_R   0.079829 0.321977 0.821792 -0.189737
C52   C     C_R   0.079817 0.257321 0.758471 -0.187531
C53   C     C_R   0.000048 0.186243 0.686390 -0.009289
C54   C     C_R   0.920288 0.178437 0.677676 -0.186729
C55   C     C_R   0.920289 0.241722 0.742349 -0.185419
C56   C     C_R   0.222983 0.272528 0.156275 -0.143335
C57   C     C_R   0.000060 0.313511 0.813708 -0.006148
C58   C     C_R   0.224760 0.331085 0.228174 0.134733
C59   C     C_R   0.209588 0.305174 0.286468 -0.129619
C60   C     C_R   0.193075 0.221773 0.272951 -0.118918
H1    H     H_    0.179860 0.099821 0.191697 0.123074
H2    H     H_    0.297706 0.895885 0.316729 0.147095
H3    H     H_    0.182344 0.798753 0.330409 0.160284
H4    H     H_    0.877996 0.877130 0.641374 0.143604
H5    H     H_    0.735361 0.736388 0.358423 0.143360
H6    H     H_    0.622640 0.622082 0.358471 0.142335
H7    H     H_    0.622966 0.500817 0.764480 0.144112
H8    H     H_    0.735496 0.499032 0.876971 0.143299
H9    H     H_    0.206469 0.144812 0.088306 0.128918
H10   H     H_    0.763673 0.499323 0.622220 0.143607
H11   H     H_    0.241187 0.381923 0.509985 0.145346
H12   H     H_    0.126468 0.267298 0.507612 0.144458
H13   H     H_    0.259784 0.118318 0.492037 0.140213
H14   H     H_    0.023247 0.775425 0.135326 0.151510
H15   H     H_    0.022141 0.888327 0.248351 0.138258
H16   H     H_    0.977920 0.726520 0.365714 0.140620
H17   H     H_    0.974812 0.611782 0.250634 0.176238
H18   H     H_    0.141544 0.377610 0.877490 0.141544
H19   H     H_    0.233954 0.291279 0.110373 0.125029
H20   H     H_    0.141533 0.263265 0.764765 0.143635
H21   H     H_    0.858566 0.122967 0.621830 0.143832
H22   H     H_    0.858576 0.235640 0.736210 0.143736
H23   H     H_    0.209554 0.349100 0.341567 0.107203
H24   H     H_    0.180311 0.201445 0.317236 0.148274
H25   H     H_    0.120646 0.360686 0.120434 0.153920
H26   H     H_    0.377097 0.704017 0.253076 0.148531
H27   H     H_    0.395383 0.848905 0.278725 0.140282
O1    O     O_R   0.591640 0.539900 0.448310 -0.624222
O2    O     O_R   0.051750 0.643320 0.091550 -0.624046
O3    O     O_R   0.039910 0.448280 0.091610 -0.610647
O4    O     O_R   0.143370 0.551700 0.091590 -0.628687
O5    O     O_R   0.948300 0.356650 0.908390 -0.625276
O6    O     O_R   0.051750 0.460070 0.908380 -0.625145
O7    O     O_R   0.856690 0.448280 0.908350 -0.625668
O8    O     O_R   0.960140 0.551690 0.908340 -0.625155
O9    O     O_R   0.051710 0.908290 0.460000 -0.626423
O10   O     O_R   0.948270 0.908330 0.356580 -0.620201
O11   O     O_R   0.960090 0.908280 0.551610 -0.623381
O12   O     O_R   0.591610 0.643330 0.551710 -0.622615
O13   O     O_R   0.856650 0.908310 0.448190 -0.623069
O14   O     O_R   0.051730 0.091500 0.643240 -0.623329
O15   O     O_R   0.948290 0.091530 0.539820 -0.622540
O16   O     O_R   0.143350 0.091510 0.551630 -0.621693
O17   O     O_R   0.039910 0.091550 0.448210 -0.624417
O18   O     O_R   0.408400 0.448280 0.356670 -0.612481
O19   O     O_R   0.408370 0.551710 0.460080 -0.626697
O20   O     O_R   0.408390 0.356670 0.448290 -0.616821
O21   O     O_R   0.408360 0.460100 0.551690 -0.625655
O22   O     O_R   0.591630 0.448290 0.539920 -0.624091
O23   O     O_R   0.591600 0.551720 0.643330 -0.622717
O24   O     O_R   0.948300 0.539910 0.091570 -0.622888
Zn1   Zn    Zn3+2 0.500020 0.430940 0.430950 0.958962
Zn2   Zn    Zn3+2 0.499980 0.569060 0.569050 0.947261
Zn3   Zn    Zn3+2 0.930950 0.430940 0.999980 0.962230
Zn4   Zn    Zn3+2 0.069100 0.569040 0.999960 0.957131
Zn5   Zn    Zn3+2 0.069070 0.999890 0.568970 0.945029
Zn6   Zn    Zn3+2 0.930930 0.999930 0.430860 0.949940
O25   O     O_3   0.148068 0.639205 0.305587 -0.634046
C61   C     C_3   0.170507 0.671250 0.394143 -0.357569
H28   H     H_    0.120768 0.622490 0.398213 0.199387
H29   H     H_    0.169846 0.733554 0.421568 0.168644
H30   H     H_    0.235283 0.679974 0.434379 0.169994
H31   H     H_    0.763630 0.764484 0.641423 0.143858
H32   H     H_    0.877902 0.500957 0.736411 0.143690
H33   H     H_    0.372793 0.231275 0.490895 0.146575
H34   H     H_    0.376443 0.638806 0.381362 0.153380

loop_
_geom_bond_atom_site_label_1
_geom_bond_atom_site_label_2
_ccdc_geom_bond_type
C36   O2    A    
C40   C47   S    
O2    Zn4   S    
C1    C21   S    
C16   C21   A    
C3    H25   S    
C11   C13   A    
O20   Zn1   S    
C48   H16   S    
C19   C20   A    
C12   O18   A    
C11   H2    S    
C1    O12   A    
O7    Zn3   S    
C7    C8    A    
C53   C54   A    
C26   C27   A    
C56   H19   S    
C31   C43   S    
C37   O3    A    
C20   H6    S    
C16   H31   S    
C59   H23   S    
C49   H17   S    
C42   C53   S    
C30   C31   A    
C2    C60   A    
C54   C55   A    
O4    Zn4   S    
C38   O5    A    
C18   C19   A    
O6    Zn4   S    
O25   C61   S    
C8    C58   S    
C43   O17   A    
C31   C32   A    
C45   C56   A    
O8    Zn4   S    
C16   C17   A    
C14   O25   S    
C51   C57   A    
C9    C10   A    
C2    H1    S    
C1    O1    A    
C28   C34   S    
C59   C60   A    
C22   C28   A    
C13   C14   A    
O10   Zn6   S    
C26   H32   S    
C40   O9    A    
C42   O15   A    
C46   H15   S    
C44   C46   A    
C61   H29   S    
C2    C45   A    
C7    C12   S    
C10   H27   S    
C37   O4    A    
O19   Zn2   S    
C45   H9    S    
C51   C52   A    
C24   C25   A    
C6    H34   S    
C3    C8    A    
C18   C41   S    
C32   H13   S    
C58   C59   A    
O21   Zn2   S    
C39   O7    A    
C29   C30   A    
C9    H26   S    
C38   C57   S    
O11   Zn5   S    
C47   C48   A    
C13   H3    S    
C23   O20   A    
C36   O24   A    
C33   H33   S    
C17   C18   A    
C41   O13   A    
C20   C21   A    
C55   H22   S    
C44   H14   S    
O15   Zn6   S    
O23   Zn2   S    
C39   O8    A    
C27   H10   S    
C48   C49   A    
O18   Zn1   S    
C23   C35   S    
C55   C57   A    
C34   O23   A    
C22   C24   A    
O22   Zn1   S    
C3    C4    A    
C42   O14   A    
C40   O10   A    
C36   C50   S    
C52   C53   A    
O17   Zn6   S    
C61   H30   S    
C44   C50   A    
C34   O22   A    
C46   C47   A    
C14   C15   A    
C4    C5    A    
O12   Zn2   S    
C30   H12   S    
C61   H28   S    
C6    C7    A    
C29   C35   A    
C32   C33   A    
O16   Zn5   S    
C25   C26   A    
C51   H18   S    
C17   H4    S    
C25   C39   S    
C12   O19   A    
C60   H24   S    
C5    C6    A    
C23   O21   A    
C38   O6    A    
C33   C35   A    
C56   C58   A    
C19   H5    S    
O24   Zn3   S    
O3    Zn3   S    
C9    C15   A    
C43   O16   A    
C22   H7    S    
C5    C15   S    
C10   C11   A    
C24   H8    S    
O1    Zn1   S    
C4    C37   S    
C49   C50   A    
C27   C28   A    
O14   Zn5   S    
C41   O11   A    
O9    Zn5   S    
O13   Zn6   S    
C52   H20   S    
O5    Zn3   S    
C54   H21   S    
C29   H11   S    
