data_mof_unit_52712.cif
_audit_creation_date              2012-12-11T17:02:19-0500
_audit_creation_method            fapswitch 2.2
_symmetry_space_group_name_H-M    P1
_symmetry_Int_Tables_number       1
_space_group_crystal_system       triclinic
_cell_length_a                    21.70082
_cell_length_b                    7.065371
_cell_length_c                    14.86997
_cell_angle_alpha                 90.000028
_cell_angle_beta                  106.541882
_cell_angle_gamma                 90.000017
_cell_volume                      2185.56642599

loop_
_atom_site_label
_atom_site_type_symbol
_atom_type_description
_atom_site_fract_x
_atom_site_fract_y
_atom_site_fract_z
_atom_type_partial_charge
O1    O     O_R   0.585850 0.505770 0.002130 -0.547982
O2    O     O_R   0.414150 0.005770 0.997870 -0.547982
O3    O     O_R   0.467530 0.173560 0.861970 -0.537708
O4    O     O_R   0.532470 0.673560 0.138030 -0.537707
C1    C     C_R   0.455272 0.344056 0.825185 0.681426
C2    C     C_R   0.544728 0.844056 0.174815 0.681424
O5    O     O_R   0.588690 0.175900 0.993250 -0.544198
O6    O     O_R   0.411310 0.675900 0.006750 -0.544198
O7    O     O_R   0.536170 0.007950 0.130090 -0.545792
O8    O     O_R   0.463830 0.507950 0.869910 -0.545792
C3    C     C_R   0.614618 0.344925 0.996098 0.689900
C4    C     C_R   0.385382 0.844925 0.003902 0.689900
O9    O     O_3   0.482630 0.339970 0.044740 -0.383899
O10   O     O_3   0.517370 0.839970 0.955260 -0.383900
V1    V     V_3+5 0.503220 0.064200 0.991700 1.359795
V2    V     V_3+5 0.496780 0.564200 0.008300 1.359795
C5    C     C_R   0.290387 0.011180 0.035536 0.058420
C6    C     C_R   0.709612 0.511178 0.964460 0.058436
C7    C     C_R   0.317105 0.853876 0.003527 -0.119333
C8    C     C_R   0.682894 0.353876 0.996472 -0.119338
C9    C     C_R   0.273797 0.703998 0.966657 -0.177490
C10   C     C_R   0.726203 0.203998 0.033342 -0.177493
H1    H     H_    0.290485 0.578751 0.938783 0.118549
H2    H     H_    0.709515 0.078753 0.061217 0.118550
C11   C     C_R   0.207821 0.715875 0.963612 -0.183689
C12   C     C_R   0.792179 0.215875 0.036387 -0.183691
H3    H     H_    0.176358 0.598694 0.934449 0.125237
H4    H     H_    0.823642 0.098695 0.065551 0.125239
C13   C     C_R   0.182761 0.878801 0.996327 -0.094297
C14   C     C_R   0.817238 0.378800 0.003671 -0.094311
C15   C     C_R   0.226567 0.024420 0.029503 0.023212
C16   C     C_R   0.773432 0.524417 0.970493 0.023224
C17   C     C_3   0.233184 0.211182 0.077126 -0.412174
C18   C     C_3   0.766816 0.711181 0.922871 -0.412169
C19   C     C_3   0.305440 0.197691 0.084746 0.266187
C20   C     C_3   0.694560 0.697691 0.915252 0.266171
H5    H     H_    0.222057 0.203670 0.145522 0.211148
H6    H     H_    0.777942 0.703672 0.854475 0.211148
H7    H     H_    0.207669 0.324461 0.029317 0.136150
H8    H     H_    0.792331 0.824459 0.970681 0.136149
H9    H     H_    0.321663 0.307390 0.042594 0.048337
H10   H     H_    0.678337 0.807388 0.957406 0.048339
C21   C     C_R   0.929373 0.885546 0.722616 -0.061459
C22   C     C_R   0.070627 0.385545 0.277384 -0.061464
C23   C     C_R   0.574308 0.846169 0.276307 -0.049785
C24   C     C_R   0.425692 0.346168 0.723693 -0.049787
C25   C     C_R   0.938819 0.962613 0.569059 -0.172130
C26   C     C_R   0.061181 0.462600 0.430942 -0.172132
C27   C     C_R   0.966174 0.949158 0.665531 -0.169920
C28   C     C_R   0.033826 0.449150 0.334469 -0.169919
C29   C     C_R   0.865527 0.830427 0.682809 -0.195492
C30   C     C_R   0.134474 0.330430 0.317190 -0.195493
C31   C     C_R   0.836669 0.838812 0.584616 0.095702
C32   C     C_R   0.163332 0.338809 0.415383 0.095715
C33   C     C_R   0.874085 0.914135 0.528715 0.133651
C34   C     C_R   0.125915 0.414124 0.471285 0.133650
C35   C     C_R   0.770668 0.790858 0.541219 -0.047934
C36   C     C_R   0.229333 0.290855 0.458779 -0.047942
C37   C     C_R   0.741210 0.847723 0.446093 -0.002125
C38   C     C_R   0.258790 0.347714 0.553907 -0.002131
C39   C     C_R   0.780572 0.923962 0.393993 -0.165218
C40   C     C_R   0.219427 0.423945 0.606008 -0.165213
C41   C     C_R   0.845993 0.949972 0.433858 -0.204105
C42   C     C_R   0.154006 0.449955 0.566142 -0.204105
C43   C     C_R   0.733081 0.685227 0.587794 0.405415
C44   C     C_R   0.266921 0.185229 0.412203 0.405430
C45   C     C_R   0.666268 0.681806 0.551287 -0.292865
C46   C     C_R   0.333733 0.181801 0.448714 -0.292874
C47   C     C_R   0.636058 0.756110 0.463234 0.066014
C48   C     C_R   0.363943 0.256104 0.536767 0.066010
C49   C     C_R   0.673287 0.827281 0.406431 0.083289
C50   C     C_R   0.326713 0.327274 0.593569 0.083288
C51   C     C_R   0.568815 0.747536 0.429098 -0.141177
C52   C     C_R   0.431185 0.247531 0.570903 -0.141169
C53   C     C_R   0.538134 0.793430 0.336195 -0.188250
C54   C     C_R   0.461866 0.293428 0.663806 -0.188253
C55   C     C_R   0.640883 0.869866 0.311555 -0.189347
C56   C     C_R   0.359117 0.369862 0.688445 -0.189343
H11   H     H_    0.874233 0.008736 0.391016 0.121570
H12   H     H_    0.125765 0.508713 0.608986 0.121570
H13   H     H_    0.666069 0.909716 0.261620 0.091019
H14   H     H_    0.333931 0.409713 0.738380 0.091018
H15   H     H_    0.486543 0.775392 0.309324 0.105750
H16   H     H_    0.513457 0.275391 0.690677 0.105754
H17   H     H_    0.638132 0.610894 0.590487 0.142885
H18   H     H_    0.361870 0.110893 0.409514 0.142882
H19   H     H_    0.967636 0.018046 0.526293 0.120286
H20   H     H_    0.032364 0.518028 0.473708 0.120286
H21   H     H_    0.015537 0.993351 0.696030 0.110540
H22   H     H_    0.984462 0.493341 0.303971 0.110540
H23   H     H_    0.838449 0.797992 0.731249 0.154009
H24   H     H_    0.161552 0.298001 0.268750 0.154009
H25   H     H_    0.762328 0.967266 0.321898 0.119630
H26   H     H_    0.237671 0.467242 0.678105 0.119629
H27   H     H_    0.540168 0.696249 0.473020 0.117498
H28   H     H_    0.459833 0.196244 0.526981 0.117496
O11   O     O_R   0.036080 0.231270 0.130120 -0.536631
O12   O     O_R   0.963920 0.731270 0.869880 -0.536631
O13   O     O_R   0.911300 0.558970 0.006750 -0.540345
O14   O     O_R   0.088700 0.058970 0.993250 -0.540346
C57   C     C_R   0.885075 0.389999 0.002277 0.696588
C58   C     C_R   0.114925 0.889999 0.997722 0.696589
O15   O     O_R   0.032450 0.561140 0.138040 -0.539917
O16   O     O_R   0.967550 0.061140 0.861960 -0.539917
O17   O     O_R   0.085870 0.728910 0.002130 -0.541419
O18   O     O_R   0.914130 0.228910 0.997870 -0.541418
C59   C     C_R   0.044386 0.392538 0.175270 0.691327
C60   C     C_R   0.955614 0.892537 0.824729 0.691331
O19   O     O_3   0.017320 0.394650 0.955270 -0.374093
O20   O     O_3   0.982680 0.894650 0.044730 -0.374093
V3    V     V_3+5 0.996780 0.670490 0.008300 1.416965
V4    V     V_3+5 0.003220 0.170490 0.991700 1.416966
O21   O     O_3   0.761159 0.584679 0.669159 -0.579187
C61   C     C_3   0.751743 0.387033 0.654713 0.074172
H29   H     H_    0.799794 0.319401 0.668661 0.142723
H30   H     H_    0.724073 0.345743 0.581835 0.112820
C62   C     C_3   0.718160 0.308902 0.724402 -0.296175
H31   H     H_    0.748020 0.339427 0.796873 0.217764
H32   H     H_    0.670796 0.378960 0.713320 0.218389
C63   C     C_3   0.707722 0.095976 0.713712 -0.818610
H33   H     H_    0.677044 0.061603 0.642076 0.230744
H34   H     H_    0.683471 0.045518 0.765609 0.252474
H35   H     H_    0.754500 0.022059 0.726893 0.236355
O22   O     O_3   0.238845 0.084695 0.330833 -0.579184
C64   C     C_3   0.248252 0.887046 0.345274 0.074173
H36   H     H_    0.200197 0.819424 0.331292 0.142728
H37   H     H_    0.275903 0.845741 0.418160 0.112808
C65   C     C_3   0.281860 0.808919 0.275613 -0.296161
H38   H     H_    0.252028 0.839507 0.203133 0.217808
H39   H     H_    0.329236 0.878927 0.286745 0.218320
C66   C     C_3   0.292268 0.595977 0.286273 -0.818564
H40   H     H_    0.322905 0.561534 0.357926 0.230752
H41   H     H_    0.316551 0.545531 0.234412 0.252456
H42   H     H_    0.245474 0.522107 0.273019 0.236336
O23   O     O_3   0.341706 0.176720 0.179786 -0.567572
C67   C     C_3   0.404986 0.242448 0.192996 0.097634
H43   H     H_    0.405248 0.389418 0.165736 0.121843
H44   H     H_    0.430739 0.145690 0.157532 0.158838
C68   C     C_3   0.440356 0.244310 0.297634 -0.357605
H45   H     H_    0.415666 0.343323 0.334000 0.205180
H46   H     H_    0.439801 0.100160 0.327130 0.189771
C69   C     C_3   0.509899 0.307887 0.315303 -0.783972
H47   H     H_    0.537573 0.202491 0.287947 0.244394
H48   H     H_    0.532694 0.325480 0.391781 0.225216
H49   H     H_    0.511826 0.443370 0.279095 0.243078
O24   O     O_3   0.658293 0.676725 0.820212 -0.567582
C70   C     C_3   0.595013 0.742452 0.807003 0.097627
H50   H     H_    0.594752 0.889423 0.834264 0.121850
H51   H     H_    0.569261 0.645695 0.842468 0.158840
C71   C     C_3   0.559643 0.744314 0.702366 -0.357604
H52   H     H_    0.584332 0.843327 0.665999 0.205179
H53   H     H_    0.560198 0.600164 0.672869 0.189775
C72   C     C_3   0.490100 0.807889 0.684698 -0.783966
H54   H     H_    0.462425 0.702487 0.712051 0.244394
H55   H     H_    0.467304 0.825490 0.608221 0.225215
H56   H     H_    0.488172 0.943368 0.720910 0.243079

loop_
_geom_bond_atom_site_label_1
_geom_bond_atom_site_label_2
_ccdc_geom_bond_type
C44   C46   A    
C2    C23   S    
C46   H18   S    
C20   H10   S    
C70   H50   S    
O1    C3    A    
O16   C60   A    
C66   H42   S    
O2    C4    A    
C65   H38   S    
C54   H16   S    
C2    O7    A    
C24   C54   A    
C61   H29   S    
O23   C67   S    
C25   C27   A    
C41   H11   S    
O5    C3    A    
C36   C44   A    
C17   H7    S    
C52   C54   A    
C18   H8    S    
C10   H2    S    
O15   V3    S    
C70   H51   S    
O21   C61   S    
C62   H32   S    
C17   C19   S    
C68   C69   S    
C39   H25   S    
C35   C37   A    
C38   C50   A    
C36   C38   A    
O12   C60   A    
C14   C57   S    
C58   O17   A    
C38   C40   A    
C39   C41   A    
O20   V3    S    
C40   C42   A    
O19   V3    S    
C29   H23   S    
C28   H22   S    
C69   H47   S    
C30   C32   A    
C43   C45   A    
C71   C72   S    
C33   C41   A    
C48   C52   A    
C64   C65   S    
C50   C56   A    
C26   H20   S    
C47   C51   A    
C72   H55   S    
C6    C8    A    
C63   H35   S    
C22   C30   A    
O5    V1    S    
O17   V3    S    
C25   C33   A    
C47   C49   A    
O6    V2    S    
C42   H12   S    
C69   H49   S    
C67   C68   S    
C63   H34   S    
C31   C33   A    
C11   C13   A    
C32   C34   A    
C3    C8    S    
C45   H17   S    
C37   C39   A    
C15   C17   S    
C53   H15   S    
C52   H28   S    
C70   C71   S    
C67   H44   S    
C62   C63   S    
C19   O23   S    
O16   V4    S    
O11   V4    S    
C31   C35   A    
C21   C27   A    
O18   V4    S    
O3    C1    A    
C16   C18   S    
C48   C50   A    
C17   H5    S    
C29   C31   A    
C25   H19   S    
O4    V2    S    
C56   H14   S    
O10   V1    S    
C55   H13   S    
O6    C4    A    
O13   V3    S    
O14   C58   A    
O1    V2    S    
C72   H56   S    
O2    V1    S    
C20   O24   S    
O13   C57   A    
C8    C10   A    
C12   C14   A    
C9    H1    S    
C64   H36   S    
C5    C15   A    
C44   O22   S    
C71   H53   S    
O19   V4    S    
O4    C2    A    
C6    C16   A    
C51   C53   A    
C66   H40   S    
C65   C66   S    
C49   C55   A    
C69   H48   S    
O3    V1    S    
C63   H33   S    
C24   C56   A    
O24   C70   S    
C32   C36   A    
C22   C59   S    
C22   C28   A    
C57   O18   A    
C26   C34   A    
C9    C11   A    
O12   V3    S    
C7    C9    A    
C18   H6    S    
C43   O21   S    
C27   H21   S    
C67   H43   S    
C66   H41   S    
C65   H39   S    
C61   H30   S    
C68   H45   S    
O14   V4    S    
C11   H3    S    
C1    C24   S    
C12   H4    S    
C23   C53   A    
O15   C59   A    
C40   H26   S    
O7    V1    S    
C1    O8    A    
C13   C15   A    
O8    V2    S    
C62   H31   S    
C14   C16   A    
C68   H46   S    
C21   C29   A    
C34   C42   A    
C4    C7    S    
C26   C28   A    
C5    C7    A    
C13   C58   S    
C18   C20   S    
C21   C60   S    
C19   H9    S    
O20   V4    S    
C61   C62   S    
C30   H24   S    
O11   C59   A    
C46   C48   A    
C10   C12   A    
O9    V2    S    
C64   H37   S    
C51   H27   S    
C71   H52   S    
C23   C55   A    
C5    C19   S    
C45   C47   A    
C72   H54   S    
C6    C20   S    
C37   C49   A    
O22   C64   S    
C35   C43   A    
