data_mof_unit_10769.cif
_audit_creation_date              2012-12-10T20:49:43-0500
_audit_creation_method            fapswitch 2.2
_symmetry_space_group_name_H-M    P1
_symmetry_Int_Tables_number       1
_space_group_crystal_system       triclinic
_cell_length_a                    8.146284
_cell_length_b                    8.935691
_cell_length_c                    15.707283
_cell_angle_alpha                 89.999625
_cell_angle_beta                  91.400684
_cell_angle_gamma                 89.999943
_cell_volume                      1143.03352926

loop_
_atom_site_label
_atom_site_type_symbol
_atom_type_description
_atom_site_fract_x
_atom_site_fract_y
_atom_site_fract_z
_atom_type_partial_charge
C1    C     C_R   0.500000 0.781903 0.500000 0.939635
C2    C     C_R   0.500000 0.218097 0.500000 0.934608
C3    C     C_1   0.500000 0.934799 0.500000 -0.189105
C4    C     C_1   0.500000 0.065220 0.500000 -0.185817
C5    C     C_R   0.486733 0.495557 0.656879 0.879292
C6    C     C_R   0.513266 0.495557 0.343121 0.879288
C7    C     C_R   0.497899 0.448799 0.747062 -0.137825
C8    C     C_R   0.502100 0.448799 0.252938 -0.137818
C9    C     C_R   0.644473 0.384088 0.778612 -0.162456
C10   C     C_R   0.355528 0.384082 0.221389 -0.162451
C11   C     C_R   0.645526 0.298922 0.852803 -0.069107
C12   C     C_R   0.354477 0.298917 0.147199 -0.069091
C13   C     C_R   0.503188 0.281766 0.899728 0.033737
C14   C     C_R   0.496814 0.281765 0.100274 0.033757
C15   C     C_R   0.358798 0.357530 0.872152 0.394327
C16   C     C_R   0.641202 0.357535 0.127848 0.394267
C17   C     C_R   0.357985 0.441324 0.796445 -0.292989
C18   C     C_R   0.642013 0.441330 0.203554 -0.292987
C19   C     C_2   0.499513 0.150904 0.957245 -0.085217
C20   C     C_2   0.500492 0.150904 0.042757 -0.085211
H1    H     H_    0.244969 0.236202 0.129920 0.237467
H2    H     H_    0.755035 0.236209 0.870082 0.237478
H3    H     H_    0.755223 0.386591 0.741879 0.191019
H4    H     H_    0.244780 0.386581 0.258124 0.191015
H5    H     H_    0.754570 0.493077 0.226908 0.198079
H6    H     H_    0.245426 0.493066 0.773090 0.198076
H7    H     H_    0.496742 0.042339 0.073808 0.133591
H8    H     H_    0.503261 0.042340 0.926194 0.133593
N1    N     N_1   0.926360 0.500000 0.499990 -0.025409
N2    N     N_1   0.073640 0.500000 0.500010 -0.025409
O1    O     O_R   0.363150 0.714660 0.500000 -0.606111
O2    O     O_R   0.636850 0.285340 0.500000 -0.609039
O3    O     O_R   0.636850 0.714660 0.500000 -0.606111
O4    O     O_R   0.363150 0.285340 0.500000 -0.609040
O5    O     O_R   0.346950 0.500000 0.615800 -0.599705
O6    O     O_R   0.653050 0.500000 0.384200 -0.599703
O7    O     O_R   0.620700 0.500000 0.615800 -0.613911
O8    O     O_R   0.379300 0.500000 0.384200 -0.613910
Zn1   Zn    Zn3+2 0.317220 0.500000 0.500010 0.990195
Zn2   Zn    Zn3+2 0.682780 0.500000 0.499990 0.990195
S1    S     S_3+6 0.174359 0.345559 0.927005 0.064552
O9    O     O_2   0.031982 0.379664 0.867587 -0.301127
O10   O     O_2   0.152466 0.191837 0.963631 -0.243209
O11   O     O_3   0.181518 0.473035 0.005605 -0.476615
H9    H     H_    0.187663 0.570979 0.976334 0.350807
S2    S     S_3+6 0.825643 0.345566 0.072996 0.064554
O12   O     O_2   0.968018 0.379681 0.132411 -0.301092
O13   O     O_2   0.847541 0.191841 0.036374 -0.243205
O14   O     O_3   0.818481 0.473034 0.994391 -0.476611
H10   H     H_    0.812198 0.570975 0.023657 0.350746

loop_
_geom_bond_atom_site_label_1
_geom_bond_atom_site_label_2
_ccdc_geom_bond_type
C2    C4    S    
C6    O8    A    
C15   C17   A    
N1    N2    T    
C20   H7    S    
C5    O7    A    
C11   C13   A    
S1    O9    D    
C11   H2    S    
O5    Zn1   S    
C19   C20   D    
O1    Zn1   S    
O6    Zn2   S    
C9    C11   A    
C7    C9    A    
C2    O4    A    
C13   C15   A    
C1    O3    A    
C19   H8    S    
S1    O10   D    
S2    O14   S    
C18   H5    S    
C10   C12   A    
C17   H6    S    
C5    O5    A    
N1    Zn2   S    
C16   C18   A    
C6    O6    A    
N2    Zn1   S    
O7    Zn2   S    
S2    O13   D    
O2    Zn2   S    
O8    Zn1   S    
S1    O11   S    
C14   C16   A    
O3    Zn2   S    
C13   C19   S    
C3    C4    T    
C14   C20   S    
C1    O1    A    
O11   H9    S    
C15   S1    S    
C2    O2    A    
O14   H10   S    
C16   S2    S    
C5    C7    S    
S2    O12   D    
C9    H3    S    
C6    C8    S    
C10   H4    S    
C12   H1    S    
C8    C10   A    
C8    C18   A    
O4    Zn1   S    
C12   C14   A    
C1    C3    S    
C7    C17   A    
