data_mof_unit_9963.cif
_audit_creation_date              2012-12-10T20:06:22-0500
_audit_creation_method            fapswitch 2.2
_symmetry_space_group_name_H-M    P1
_symmetry_Int_Tables_number       1
_space_group_crystal_system       triclinic
_cell_length_a                    18.973278
_cell_length_b                    18.37663
_cell_length_c                    10.703446
_cell_angle_alpha                 89.012117
_cell_angle_beta                  90.813001
_cell_angle_gamma                 91.530584
_cell_volume                      3729.67814306

loop_
_atom_site_label
_atom_site_type_symbol
_atom_type_description
_atom_site_fract_x
_atom_site_fract_y
_atom_site_fract_z
_atom_type_partial_charge
C1    C     C_R   0.365080 0.499126 0.496082 0.955907
C2    C     C_R   0.634970 0.501006 0.497394 0.941290
C3    C     C_R   0.850245 0.495073 0.398495 0.025349
C4    C     C_R   0.147078 0.496041 0.402479 0.065670
C5    C     C_R   0.807090 0.548531 0.346668 -0.317369
C6    C     C_R   0.172904 0.541268 0.497879 -0.296303
C7    C     C_R   0.738066 0.555058 0.387029 0.397246
C8    C     C_R   0.244989 0.544415 0.527227 0.396937
C9    C     C_R   0.710175 0.503101 0.472807 -0.268093
C10   C     C_R   0.290037 0.497213 0.466989 -0.243068
C11   C     C_R   0.963642 0.558775 0.358640 -0.250768
C12   C     C_R   0.036373 0.558707 0.360488 -0.278633
C13   C     C_R   0.071522 0.493053 0.372173 -0.008203
C14   C     C_R   0.924830 0.492955 0.363822 -0.021232
C15   C     C_R   0.033783 0.425862 0.363761 0.403424
C16   C     C_R   0.959650 0.426073 0.354117 0.351232
C17   C     C_R   0.536901 0.725886 0.590233 -0.078001
C18   C     C_R   0.463246 0.725878 0.409824 -0.100071
C19   C     C_R   0.538256 0.802158 0.592090 0.161846
C20   C     C_R   0.463122 0.802179 0.406997 0.162937
C21   C     C_R   0.501208 0.841465 0.499059 0.019141
C22   C     C_R   0.508604 0.501176 0.260444 0.931624
C23   C     C_R   0.493166 0.499374 0.740300 0.936415
C24   C     C_R   0.441435 0.960051 0.527662 -0.238243
C25   C     C_R   0.563783 0.962439 0.468173 -0.237193
C26   C     C_R   0.442123 0.036615 0.529359 0.465405
C27   C     C_R   0.564787 0.039024 0.464976 0.462718
C28   C     C_R   0.503811 0.077082 0.496537 -0.046696
C29   C     C_R   0.502164 0.922523 0.498239 0.075789
C30   C     C_R   0.550861 0.198833 0.573449 0.361880
C31   C     C_R   0.456559 0.196821 0.417297 0.379624
C32   C     C_R   0.548634 0.275377 0.571381 -0.132052
C33   C     C_R   0.454447 0.273250 0.424085 -0.129584
C34   C     C_R   0.504014 0.158667 0.495560 -0.055339
C35   C     C_R   0.523841 0.639673 0.109048 -0.115972
C36   C     C_R   0.452141 0.628293 0.882707 -0.124852
C37   C     C_R   0.499984 0.702233 0.048310 -0.122373
C38   C     C_R   0.461174 0.696128 0.937777 -0.117991
C39   C     C_R   0.482511 0.565518 0.937589 0.038139
C40   C     C_R   0.509158 0.569780 0.059364 0.052636
C41   C     C_R   0.518739 0.503827 0.127008 -0.345357
C42   C     C_R   0.488057 0.498880 0.874602 -0.337037
C43   C     C_R   0.522249 0.437212 0.064922 0.338282
C44   C     C_R   0.503314 0.434153 0.940525 0.356808
C45   C     C_R   0.753375 0.449612 0.526216 0.382345
C46   C     C_R   0.264785 0.453672 0.367891 0.416845
C47   C     C_R   0.823493 0.446772 0.490116 -0.208808
C48   C     C_R   0.193263 0.454116 0.336205 -0.213137
H1    H     H_    0.565361 0.695466 0.661148 0.178814
H2    H     H_    0.434323 0.695433 0.339308 0.176114
H3    H     H_    0.393378 0.929804 0.550377 0.176897
H4    H     H_    0.611198 0.934060 0.445808 0.179045
H5    H     H_    0.585882 0.306979 0.627000 0.204086
H6    H     H_    0.416873 0.303109 0.367808 0.198186
H7    H     H_    0.555214 0.646880 0.192963 0.188307
H8    H     H_    0.420736 0.625301 0.797928 0.175091
H9    H     H_    0.510353 0.755169 0.088482 0.180447
H10   H     H_    0.439611 0.744062 0.893002 0.163154
H11   H     H_    0.856724 0.406367 0.533680 0.199381
H12   H     H_    0.173605 0.422100 0.259378 0.160397
H13   H     H_    0.826790 0.585245 0.274195 0.162316
H14   H     H_    0.137046 0.573688 0.550006 0.159238
H15   H     H_    0.938106 0.610615 0.363895 0.167041
H16   H     H_    0.065284 0.610349 0.362688 0.169629
N1    N     N_R   0.500000 0.689440 0.500000 -0.134212
N2    N     N_R   0.500000 0.310560 0.500000 -0.138462
O1    O     O_R   0.398180 0.560840 0.499970 -0.607894
O2    O     O_R   0.601820 0.560840 0.500030 -0.598115
O3    O     O_R   0.398180 0.439210 0.499910 -0.589734
O4    O     O_R   0.601820 0.439210 0.500090 -0.585394
O5    O     O_R   0.500000 0.560830 0.316760 -0.636928
O6    O     O_R   0.500000 0.560830 0.683240 -0.639186
O7    O     O_R   0.500000 0.439200 0.316700 -0.568364
O8    O     O_R   0.500000 0.439200 0.683300 -0.569441
Zn1   Zn    Zn3+2 0.500000 0.581210 0.500000 0.943139
Zn2   Zn    Zn3+2 0.500000 0.418790 0.500000 1.000223
O9    O     O_3   0.537739 0.372627 0.126717 -0.584502
C49   C     C_3   0.611230 0.370827 0.148063 0.169030
H17   H     H_    0.629153 0.414216 0.213540 0.136475
H18   H     H_    0.640279 0.377603 0.058872 0.128231
C50   C     C_3   0.629413 0.297545 0.206022 -0.824805
H19   H     H_    0.613119 0.253086 0.141889 0.241360
H20   H     H_    0.687145 0.295652 0.222996 0.207134
H21   H     H_    0.601998 0.289366 0.296336 0.266007
O10   O     O_3   0.500672 0.366890 0.884056 -0.581141
C51   C     C_3   0.431819 0.337102 0.898572 0.171998
H22   H     H_    0.392840 0.370243 0.845477 0.131944
H23   H     H_    0.417285 0.333901 0.998954 0.152193
C52   C     C_3   0.428078 0.260149 0.849492 -0.888487
H24   H     H_    0.374080 0.236832 0.862474 0.215051
H25   H     H_    0.440521 0.260208 0.748599 0.260020
H26   H     H_    0.465859 0.225975 0.902410 0.239809
Br1   Br    Br    0.589198 0.849784 0.724886 -0.556152
Br2   Br    Br    0.412358 0.849994 0.274332 -0.568711
O11   O     O_3   0.380971 0.071972 0.556688 -0.554320
C53   C     C_3   0.373612 0.073088 0.687601 0.084443
H27   H     H_    0.419298 0.102199 0.732240 0.124143
H28   H     H_    0.368695 0.016858 0.727669 0.145403
C54   C     C_3   0.307192 0.113258 0.718324 -0.780794
H29   H     H_    0.260283 0.084702 0.677192 0.263490
H30   H     H_    0.301171 0.115263 0.821258 0.199570
H31   H     H_    0.310578 0.169742 0.679807 0.261967
O12   O     O_3   0.627007 0.076190 0.437271 -0.548979
C55   C     C_3   0.630430 0.087007 0.306702 0.095816
H32   H     H_    0.588164 0.123700 0.273510 0.125484
H33   H     H_    0.625557 0.034413 0.256499 0.140411
C56   C     C_3   0.701291 0.122677 0.274796 -0.791368
H34   H     H_    0.744536 0.085551 0.300813 0.261207
H35   H     H_    0.703490 0.134994 0.172964 0.198746
H36   H     H_    0.708795 0.174102 0.326831 0.269703
O13   O     O_3   0.602304 0.163717 0.642814 -0.545160
C57   C     C_3   0.587043 0.167851 0.771077 0.081763
H37   H     H_    0.535126 0.140961 0.791046 0.124379
H38   H     H_    0.587243 0.225303 0.802438 0.161949
C58   C     C_3   0.643035 0.128164 0.846627 -0.760450
H39   H     H_    0.695723 0.154012 0.829964 0.253257
H40   H     H_    0.631228 0.130777 0.947785 0.186876
H41   H     H_    0.643771 0.070184 0.819090 0.280079
O14   O     O_3   0.410420 0.158584 0.339593 -0.555318
C59   C     C_3   0.424873 0.176389 0.213401 0.101356
H42   H     H_    0.482420 0.175822 0.193982 0.121761
H43   H     H_    0.404539 0.230937 0.188207 0.150362
C60   C     C_3   0.388047 0.120390 0.130325 -0.783992
H44   H     H_    0.330131 0.121362 0.143662 0.264179
H45   H     H_    0.399597 0.132757 0.030755 0.190739
H46   H     H_    0.406989 0.065118 0.154271 0.275172
O15   O     O_3   0.725438 0.396568 0.605889 -0.584238
C61   C     C_3   0.747448 0.411635 0.729418 0.096908
H47   H     H_    0.730676 0.466658 0.757339 0.124716
H48   H     H_    0.805750 0.408279 0.739887 0.137153
C62   C     C_3   0.713803 0.355418 0.817556 -0.816094
H49   H     H_    0.726622 0.299645 0.788371 0.269068
H50   H     H_    0.734434 0.363787 0.913949 0.189067
H51   H     H_    0.655630 0.360896 0.816602 0.265499
O16   O     O_3   0.310095 0.408847 0.306062 -0.600696
C63   C     C_3   0.313618 0.427547 0.177173 0.101238
H52   H     H_    0.370011 0.435970 0.153311 0.159085
H53   H     H_    0.287009 0.479042 0.149889 0.120199
C64   C     C_3   0.283693 0.365154 0.098783 -0.888713
H54   H     H_    0.226433 0.356776 0.113920 0.248601
H55   H     H_    0.291580 0.377943 0.998171 0.206747
H56   H     H_    0.310640 0.313950 0.123682 0.258981
O17   O     O_3   0.695653 0.607175 0.332165 -0.604743
C65   C     C_3   0.715587 0.675994 0.380270 0.134568
H57   H     H_    0.771192 0.690995 0.357081 0.128139
H58   H     H_    0.709257 0.676423 0.483649 0.149893
C66   C     C_3   0.668732 0.733857 0.322705 -0.808941
H59   H     H_    0.612995 0.722150 0.347093 0.254560
H60   H     H_    0.684558 0.788185 0.359167 0.214311
H61   H     H_    0.673709 0.734842 0.219423 0.253931
O18   O     O_3   0.271570 0.589924 0.619593 -0.609130
C67   C     C_3   0.261929 0.663365 0.582885 0.133128
H62   H     H_    0.206933 0.679110 0.601510 0.137402
H63   H     H_    0.273563 0.673323 0.481940 0.143034
C68   C     C_3   0.311821 0.712304 0.658307 -0.811393
H64   H     H_    0.367289 0.700159 0.636853 0.257350
H65   H     H_    0.302591 0.770251 0.633673 0.214128
H66   H     H_    0.302916 0.703558 0.759852 0.251234
O19   O     O_3   0.068425 0.361490 0.388741 -0.579753
C69   C     C_3   0.067432 0.317056 0.282094 0.100838
H67   H     H_    0.075137 0.349131 0.193661 0.091106
H68   H     H_    0.017086 0.285256 0.275858 0.199531
C70   C     C_3   0.126290 0.262580 0.294737 -0.794864
H69   H     H_    0.117388 0.226696 0.377890 0.268204
H70   H     H_    0.127240 0.228465 0.210178 0.204683
H71   H     H_    0.178150 0.291308 0.305568 0.274842
O20   O     O_3   0.922157 0.360361 0.354296 -0.604304
C71   C     C_3   0.886738 0.352138 0.238029 0.068038
H72   H     H_    0.924692 0.354998 0.159471 0.112775
H73   H     H_    0.846546 0.394428 0.222625 0.157956
C72   C     C_3   0.848812 0.278194 0.236322 -0.813626
H74   H     H_    0.810775 0.273865 0.314185 0.269037
H75   H     H_    0.819689 0.271440 0.146343 0.201635
H76   H     H_    0.887474 0.234132 0.247025 0.254694

loop_
_geom_bond_atom_site_label_1
_geom_bond_atom_site_label_2
_ccdc_geom_bond_type
C30   C32   A    
C72   H74   S    
C9    C45   A    
C68   H65   S    
C56   H35   S    
C22   O5    A    
O11   C53   S    
C62   H51   S    
C61   H47   S    
C55   H33   S    
C50   H19   S    
O16   C63   S    
O9    C49   S    
C18   N1    A    
C12   C13   A    
C72   H75   S    
C23   C42   S    
O8    Zn2   S    
C56   H36   S    
C70   H70   S    
C24   C26   A    
C2    O2    A    
C65   C66   S    
C43   O9    S    
C12   H16   S    
C11   C14   A    
C51   H23   S    
C60   H45   S    
C22   C41   S    
C16   O20   S    
C58   H39   S    
C53   C54   S    
C33   H6    S    
O3    Zn2   S    
C27   O12   S    
C4    C13   S    
C66   H61   S    
C24   C29   A    
C57   H37   S    
C1    O1    A    
C46   O16   S    
C38   H10   S    
C71   C72   S    
C66   H59   S    
C58   H40   S    
C53   H28   S    
C10   C46   A    
O18   C67   S    
C31   C33   A    
C52   H25   S    
C18   C20   A    
C19   Br1   S    
C59   C60   S    
C24   H3    S    
C71   H73   S    
C28   C34   S    
C68   H66   S    
C41   C43   A    
C42   C44   A    
C63   C64   S    
C57   H38   S    
C55   H32   S    
C50   H20   S    
C59   H43   S    
C33   N2    A    
C48   H12   S    
C39   C42   A    
C45   C47   A    
C25   C29   A    
C72   H76   S    
C46   C48   A    
C66   H60   S    
C15   C16   A    
C30   C34   A    
C35   H7    S    
C69   C70   S    
C60   H44   S    
C8    O18   S    
C65   H58   S    
C17   H1    S    
O20   C71   S    
C5    C7    A    
C51   H22   S    
C63   H52   S    
C60   H46   S    
C6    C8    A    
C3    C5    A    
O10   C51   S    
C21   C29   S    
C1    O3    A    
O2    Zn1   S    
C69   H68   S    
C43   C44   A    
C15   O19   S    
C37   C38   A    
C36   H8    S    
C17   N1    A    
O19   C69   S    
C67   C68   S    
C56   H34   S    
C58   H41   S    
N2    Zn2   S    
C53   H27   S    
C70   H71   S    
C31   C34   A    
C5    H13   S    
C64   H55   S    
C52   H26   S    
C31   O14   S    
C3    C14   S    
C63   H53   S    
C40   C41   A    
C54   H30   S    
C67   H63   S    
C13   C15   A    
O4    Zn2   S    
O7    Zn2   S    
C14   C16   A    
C4    C6    A    
O1    Zn1   S    
C1    C10   S    
C23   O8    A    
C17   C19   A    
C44   O10   S    
C61   C62   S    
C32   H5    S    
O12   C55   S    
C50   H21   S    
C59   H42   S    
C18   H2    S    
C32   N2    A    
C4    C48   A    
C26   O11   S    
C7    C9    A    
C20   Br2   S    
C71   H72   S    
O13   C57   S    
C35   C37   A    
C49   H17   S    
C26   C28   A    
C23   O6    A    
C36   C39   A    
C7    O17   S    
C65   H57   S    
C62   H50   S    
C51   C52   S    
C61   H48   S    
O14   C59   S    
C25   C27   A    
C11   H15   S    
N1    Zn1   S    
C54   H29   S    
C30   O13   S    
C69   H67   S    
C6    H14   S    
C36   C38   A    
O17   C65   S    
C25   H4    S    
C2    O4    A    
O5    Zn1   S    
C64   H54   S    
C49   C50   S    
O6    Zn1   S    
C45   O15   S    
C3    C47   A    
C64   H56   S    
C35   C40   A    
C49   H18   S    
C55   C56   S    
C62   H49   S    
C70   H69   S    
C47   H11   S    
C39   C40   A    
C54   H31   S    
C20   C21   A    
C8    C10   A    
C27   C28   A    
C67   H62   S    
C22   O7    A    
C52   H24   S    
C68   H64   S    
C2    C9    S    
C57   C58   S    
C37   H9    S    
O15   C61   S    
C11   C12   A    
C19   C21   A    
