data_mof_unit_47963.cif
_audit_creation_date              2012-12-10T20:30:14-0500
_audit_creation_method            fapswitch 2.2
_symmetry_space_group_name_H-M    P1
_symmetry_Int_Tables_number       1
_space_group_crystal_system       triclinic
_cell_length_a                    9.873072
_cell_length_b                    10.652968
_cell_length_c                    13.240111
_cell_angle_alpha                 90.438649
_cell_angle_beta                  70.323004
_cell_angle_gamma                 89.860322
_cell_volume                      1311.1874791

loop_
_atom_site_label
_atom_site_type_symbol
_atom_type_description
_atom_site_fract_x
_atom_site_fract_y
_atom_site_fract_z
_atom_type_partial_charge
C1    C     C_R   0.500821 0.739606 0.498139 0.883561
C2    C     C_R   0.370627 0.515836 0.819895 -0.163471
C3    C     C_R   0.395870 0.937133 0.576095 0.111066
C4    C     C_R   0.420169 0.497356 0.703894 0.873727
C5    C     C_R   0.503047 0.871408 0.498498 -0.077979
C6    C     C_R   0.624556 0.934118 0.431991 -0.241785
C7    C     C_R   0.625108 0.064204 0.432885 -0.216401
C8    C     C_R   0.504494 0.128709 0.500786 -0.103050
C9    C     C_R   0.397480 0.064625 0.578252 0.055001
C10   C     C_3   0.236994 0.075964 0.618354 -0.203191
C11   C     C_3   0.235711 0.932397 0.612129 -0.546669
C12   C     C_R   0.458056 0.565841 0.966812 0.037045
C13   C     C_R   0.907668 0.596923 0.546372 0.206480
C14   C     C_R   0.952543 0.410004 0.446376 -0.159972
C15   C     C_R   0.096447 0.409989 0.446373 -0.130861
C16   C     C_R   0.501048 0.260395 0.498966 0.870061
C17   C     C_R   0.049637 0.596014 0.547495 0.247428
C18   C     C_3   0.001496 0.632669 0.663095 -0.547109
C19   C     C_3   0.849011 0.636948 0.660980 -0.484892
C20   C     C_R   0.579167 0.509139 0.296849 0.870860
C21   C     C_R   0.788899 0.447778 0.012520 -0.224953
C22   C     C_R   0.628489 0.524984 0.180780 -0.095042
C23   C     C_R   0.466554 0.492126 0.875662 0.085411
C24   C     C_R   0.248128 0.590055 0.867152 -0.213043
C25   C     C_R   0.239043 0.664724 0.956072 0.222889
C26   C     C_R   0.352999 0.662483 0.996324 -0.247453
C27   C     C_R   0.173072 0.125314 0.732585 0.197800
C28   C     C_R   0.025075 0.110155 0.786960 -0.166443
C29   C     C_R   0.964217 0.145853 0.894696 -0.182167
C30   C     C_R   0.050335 0.197371 0.949110 -0.135331
C31   C     C_R   0.196364 0.217434 0.894982 -0.151447
C32   C     C_R   0.257710 0.182399 0.787184 -0.128541
C33   C     C_R   0.406379 0.647898 0.198228 0.122849
C34   C     C_R   0.557258 0.540541 0.021784 0.044561
C35   C     C_R   0.266176 0.599295 0.225631 -0.085649
C36   C     C_R   0.148202 0.671711 0.286453 -0.166262
C37   C     C_R   0.169375 0.790045 0.324815 -0.140601
C38   C     C_R   0.308595 0.836873 0.301499 -0.119265
C39   C     C_R   0.426801 0.766309 0.238342 -0.163285
C40   C     C_3   0.109673 0.747722 0.007430 -0.436072
C41   C     C_3   0.094890 0.850148 0.932158 -0.842805
C42   C     C_R   0.680387 0.464716 0.968454 0.178885
C43   C     C_R   0.688059 0.395951 0.877103 -0.268066
C44   C     C_R   0.575953 0.401178 0.837322 -0.221364
C45   C     C_R   0.533509 0.573879 0.130842 -0.075089
C46   C     C_R   0.762038 0.475377 0.119508 -0.249957
H1    H     H_    0.839419 0.445799 0.156405 0.158584
H2    H     H_    0.778314 0.565661 0.712814 0.243904
H3    H     H_    0.776760 0.331943 0.840132 0.159308
H4    H     H_    0.802861 0.733369 0.670407 0.199663
H5    H     H_    0.888318 0.401214 0.967389 0.159401
H6    H     H_    0.168298 0.600784 0.828352 0.162202
H7    H     H_    0.357927 0.738275 0.049052 0.160872
H8    H     H_    0.579277 0.337400 0.772436 0.159836
H9    H     H_    0.714469 0.883143 0.376504 0.150181
H10   H     H_    0.957525 0.067852 0.746498 0.131617
H11   H     H_    0.850548 0.131949 0.936493 0.139353
H12   H     H_    0.715061 0.113847 0.377584 0.148075
H13   H     H_    0.003421 0.223250 0.032964 0.125132
H14   H     H_    0.262395 0.259262 0.936840 0.138864
H15   H     H_    0.371441 0.198285 0.747699 0.102582
H16   H     H_    0.248599 0.507082 0.197429 0.117498
H17   H     H_    0.040311 0.635742 0.304423 0.135019
H18   H     H_    0.077892 0.845137 0.373105 0.119510
H19   H     H_    0.324944 0.928049 0.332091 0.131155
H20   H     H_    0.534131 0.803955 0.220220 0.116211
H21   H     H_    0.195628 0.905388 0.901663 0.273545
H22   H     H_    0.068808 0.808581 0.863917 0.244141
H23   H     H_    0.193600 0.122337 0.560612 0.161635
H24   H     H_    0.005345 0.913836 0.976745 0.259352
H25   H     H_    0.011142 0.689040 0.031671 0.215428
H26   H     H_    0.116516 0.793075 0.081487 0.211686
H27   H     H_    0.191726 0.885569 0.690880 0.199533
H28   H     H_    0.195116 0.895946 0.548811 0.202327
H29   H     H_    0.917432 0.336245 0.404450 0.143598
H30   H     H_    0.169838 0.336338 0.404280 0.142455
H31   H     H_    0.019106 0.556820 0.714639 0.216363
H32   H     H_    0.041362 0.726192 0.676343 0.195178
N1    N     N_R   0.856940 0.500860 0.500710 -0.106265
N2    N     N_R   0.142580 0.500820 0.500710 -0.097496
O1    O     O_R   0.385310 0.683210 0.499990 -0.603889
O2    O     O_R   0.614650 0.683240 0.500000 -0.621202
O3    O     O_R   0.328390 0.499940 0.653610 -0.612551
O4    O     O_R   0.557730 0.499980 0.653620 -0.609312
O5    O     O_R   0.385350 0.316760 0.500000 -0.625208
O6    O     O_R   0.614690 0.316790 0.500010 -0.621749
O7    O     O_R   0.442270 0.500020 0.346380 -0.599565
O8    O     O_R   0.671610 0.500060 0.346390 -0.628373
Zn1   Zn    Zn3+2 0.346870 0.499980 0.499990 0.952030
Zn2   Zn    Zn3+2 0.653130 0.500020 0.500010 0.929961

loop_
_geom_bond_atom_site_label_1
_geom_bond_atom_site_label_2
_ccdc_geom_bond_type
C10   C27   S    
C24   H6    S    
C13   N1    A    
C40   H25   S    
C33   C45   S    
C35   C36   A    
C34   C42   A    
C6    H9    S    
C28   H10   S    
C7    C8    A    
C41   H21   S    
C12   C23   A    
C33   C39   A    
C1    C5    S    
C5    C6    A    
C36   C37   A    
C37   C38   A    
C32   H15   S    
C25   C40   S    
C38   C39   A    
C1    O1    A    
C20   O7    A    
C18   C19   S    
N2    Zn1   S    
N1    Zn2   S    
C31   C32   A    
C8    C9    A    
C36   H17   S    
C9    C10   S    
C7    H12   S    
O1    Zn1   S    
C15   H30   S    
C8    C16   S    
C16   O6    A    
O4    Zn2   S    
C41   H22   S    
O3    Zn1   S    
C13   C19   S    
C24   C25   A    
C11   H27   S    
O5    Zn1   S    
C19   H2    S    
C43   H3    S    
C1    O2    A    
C17   N2    A    
C23   C44   A    
C12   C26   A    
C31   H14   S    
C2    C4    S    
C43   C44   A    
C29   C30   A    
C3    C9    A    
C15   N2    A    
C4    O4    A    
C38   H19   S    
C18   H32   S    
C30   H13   S    
C17   C18   S    
C34   C45   A    
C14   N1    A    
C40   C41   S    
C22   C46   A    
C29   H11   S    
O7    Zn1   S    
O6    Zn2   S    
C16   O5    A    
C39   H20   S    
C42   C43   A    
C20   C22   S    
C12   C34   A    
C26   H7    S    
C21   H5    S    
C37   H18   S    
C21   C46   A    
C46   H1    S    
C28   C29   A    
C40   H26   S    
C27   C32   A    
O8    Zn2   S    
C3    C5    A    
C11   H28   S    
C6    C7    A    
O2    Zn2   S    
C13   C17   A    
C14   H29   S    
C25   C26   A    
C2    C24   A    
C19   H4    S    
C30   C31   A    
C4    O3    A    
C18   H31   S    
C20   O8    A    
C33   C35   A    
C35   H16   S    
C3    C11   S    
C10   C11   S    
C21   C42   A    
C10   H23   S    
C44   H8    S    
C22   C45   A    
C2    C23   A    
C14   C15   A    
C41   H24   S    
C27   C28   A    
