data_mof_unit_32232.cif
_audit_creation_date              2012-12-11T14:58:21-0500
_audit_creation_method            fapswitch 2.2
_symmetry_space_group_name_H-M    P1
_symmetry_Int_Tables_number       1
_space_group_crystal_system       triclinic
_cell_length_a                    10.937141
_cell_length_b                    10.92093
_cell_length_c                    18.760814
_cell_angle_alpha                 90.390793
_cell_angle_beta                  90.475874
_cell_angle_gamma                 59.908561
_cell_volume                      1938.77682877

loop_
_atom_site_label
_atom_site_type_symbol
_atom_type_description
_atom_site_fract_x
_atom_site_fract_y
_atom_site_fract_z
_atom_type_partial_charge
C1    C     C_R   0.359062 0.773196 0.397855 0.542886
C2    C     C_R   0.612890 0.116823 0.166266 0.059547
C3    C     C_R   0.360267 0.331336 0.162338 -0.004725
C4    C     C_R   0.479360 0.238227 0.274008 -0.150817
C5    C     C_R   0.482771 0.232837 0.200397 -0.024997
C6    C     C_R   0.068773 0.710232 0.281637 -0.086708
C7    C     C_R   0.949529 0.824611 0.312022 -0.112914
C8    C     C_R   0.670445 0.976170 0.189720 -0.095135
C9    C     C_R   0.787356 0.866036 0.155541 -0.123803
C10   C     C_R   0.247476 0.442744 0.198740 -0.154995
C11   C     C_R   0.245607 0.450619 0.272945 -0.032395
C12   C     C_R   0.386023 0.354911 0.387362 0.532355
C13   C     C_R   0.878647 0.802161 0.367362 -0.117995
C14   C     C_R   0.927044 0.665251 0.392468 -0.103243
C15   C     C_R   0.045714 0.550350 0.361895 -0.047929
C16   C     C_R   0.119230 0.571701 0.306669 0.058616
C17   C     C_R   0.362809 0.343662 0.311320 -0.002475
C18   C     C_R   0.955376 0.301937 0.308028 -0.157937
C19   C     C_R   0.984163 0.293460 0.235787 -0.126875
C20   C     C_R   0.874785 0.332114 0.185833 0.036920
C21   C     C_R   0.736123 0.382825 0.207338 -0.152756
C22   C     C_R   0.707016 0.393460 0.279535 -0.117441
C23   C     C_R   0.778412 0.377810 0.403307 0.531857
C24   C     C_R   0.816695 0.353161 0.329558 0.040922
C25   C     C_R   0.471006 0.787921 0.287194 -0.142091
C26   C     C_R   0.458780 0.814463 0.214353 -0.154494
C27   C     C_R   0.324346 0.888384 0.184174 0.034321
C28   C     C_R   0.203405 0.946553 0.227602 -0.141683
C29   C     C_R   0.215502 0.921645 0.299716 -0.150559
C30   C     C_R   0.348390 0.835826 0.328991 0.029916
C31   C     C_R   0.371329 0.202838 0.692860 -0.141177
C32   C     C_R   0.359028 0.189059 0.764868 -0.125091
C33   C     C_R   0.300053 0.308922 0.809543 0.027615
C34   C     C_R   0.344244 0.770462 0.604464 0.542939
C35   C     C_R   0.241620 0.444263 0.781149 -0.163565
C36   C     C_R   0.251675 0.458498 0.708480 -0.136726
C37   C     C_R   0.322341 0.337055 0.664945 0.029072
C38   C     C_R   0.925723 0.374921 0.704519 -0.138516
C39   C     C_R   0.965906 0.354214 0.775801 -0.149682
C40   C     C_R   0.925085 0.278799 0.820295 0.018873
C41   C     C_R   0.857394 0.209840 0.790881 -0.136898
C42   C     C_R   0.816554 0.230690 0.719360 -0.139096
C43   C     C_R   0.843774 0.320017 0.676986 0.023689
C44   C     C_R   0.197689 0.846648 0.712016 -0.145449
C45   C     C_R   0.368955 0.351098 0.595566 0.544559
C46   C     C_R   0.190567 0.853795 0.785309 -0.151277
C47   C     C_R   0.306560 0.836362 0.825910 0.031885
C48   C     C_R   0.434808 0.804351 0.791848 -0.003022
C49   C     C_R   0.436685 0.805865 0.717524 -0.119060
C50   C     C_R   0.321505 0.820371 0.677725 0.010238
C51   C     C_R   0.910694 0.316178 0.111792 0.542958
C52   C     C_R   0.329825 0.295255 0.091844 0.541216
C53   C     C_R   0.301212 0.910620 0.108299 0.550272
C54   C     C_R   0.949531 0.279483 0.897079 0.574010
C55   C     C_R   0.293954 0.286379 0.884545 0.537807
C56   C     C_R   0.768500 0.373385 0.609319 0.545797
C57   C     C_R   0.277444 0.891058 0.898515 0.533417
C58   C     C_R   0.848638 0.894859 0.097871 -0.114721
C59   C     C_R   0.792744 0.033833 0.074143 -0.086093
C60   C     C_R   0.676703 0.144727 0.108605 -0.057432
Cr1   Cr    Cr6+3 0.601770 0.606860 0.505860 0.994309
Cr2   Cr    Cr6+3 0.291380 0.601660 0.495070 1.019730
Cr3   Cr    Cr6+3 0.606880 0.291510 0.499120 1.007963
Cr4   Cr    Cr6+3 0.062440 0.063090 0.008210 0.978408
Cr5   Cr    Cr6+3 0.062880 0.375170 0.998920 0.993000
Cr6   Cr    Cr6+3 0.374700 0.061720 0.992470 1.007377
H1    H     H_    0.573332 0.161078 0.302224 0.141215
H2    H     H_    0.786461 0.890886 0.390902 0.110759
H3    H     H_    0.873136 0.648435 0.436051 0.130953
H4    H     H_    0.082432 0.445416 0.382570 0.095865
H5    H     H_    0.040031 0.268825 0.346670 0.096074
H6    H     H_    0.091833 0.254992 0.218598 0.125562
H7    H     H_    0.651311 0.415513 0.168774 0.100444
H8    H     H_    0.598675 0.435804 0.296634 0.125744
H9    H     H_    0.575446 0.721082 0.309576 0.145332
H10   H     H_    0.552430 0.771231 0.181506 0.122551
H11   H     H_    0.097979 0.007337 0.205334 0.150489
H12   H     H_    0.830059 0.758170 0.173648 0.124078
H13   H     H_    0.120963 0.961264 0.331667 0.128579
H14   H     H_    0.424608 0.108968 0.659735 0.120058
H15   H     H_    0.397843 0.084040 0.785928 0.137868
H16   H     H_    0.192236 0.537237 0.815044 0.117665
H17   H     H_    0.213348 0.563690 0.687375 0.143792
H18   H     H_    0.949507 0.442551 0.672560 0.130275
H19   H     H_    0.017928 0.407739 0.797735 0.135817
H20   H     H_    0.827992 0.147790 0.823847 0.129149
H21   H     H_    0.754523 0.185867 0.698890 0.135831
H22   H     H_    0.107354 0.857558 0.682341 0.132513
H23   H     H_    0.911835 0.930749 0.292474 0.115517
H24   H     H_    0.091185 0.879387 0.809867 0.133016
H25   H     H_    0.531282 0.787146 0.690324 0.138037
H26   H     H_    0.938767 0.809403 0.071235 0.109388
H27   H     H_    0.838512 0.055375 0.028458 0.147428
H28   H     H_    0.633729 0.251510 0.088866 0.096016
H29   H     H_    0.122192 0.729808 0.238676 0.116748
H30   H     H_    0.623562 0.951309 0.233827 0.109526
H31   H     H_    0.154487 0.518862 0.169442 0.134093
O1    O     O_R   0.748800 0.497470 0.428000 -0.533424
O2    O     O_R   0.300070 0.471040 0.567100 -0.510669
O3    O     O_R   0.491670 0.258900 0.574910 -0.519399
O4    O     O_R   0.718780 0.304180 0.577850 -0.502460
O5    O     O_3   0.500010 0.500010 0.500020 -0.242894
O6    O     O_R   0.186690 0.923650 0.086970 -0.531508
O7    O     O_R   0.957250 0.194250 0.084630 -0.515541
O8    O     O_R   0.934970 0.407490 0.085330 -0.512729
O9    O     O_R   0.203780 0.365190 0.067090 -0.507797
O10   O     O_R   0.417600 0.174890 0.067840 -0.501622
O11   O     O_R   0.375320 0.946260 0.070860 -0.493021
O12   O     O_R   0.476420 0.724060 0.429470 -0.512565
O13   O     O_R   0.160600 0.919630 0.926660 -0.534521
O14   O     O_R   0.933060 0.190520 0.936020 -0.519697
O15   O     O_R   0.908880 0.403460 0.925020 -0.528144
O16   O     O_R   0.179600 0.361450 0.918490 -0.527604
O17   O     O_R   0.391510 0.170860 0.907530 -0.526449
O18   O     O_R   0.351130 0.942530 0.922260 -0.517192
O19   O     O_3   0.166667 0.166667 0.999870 -0.265629
O20   O     O_R   0.264580 0.744340 0.416750 -0.505055
O21   O     O_R   0.309380 0.472470 0.418200 -0.493473
O22   O     O_R   0.501710 0.260430 0.414300 -0.532580
O23   O     O_R   0.728090 0.305600 0.428960 -0.503831
O24   O     O_R   0.738760 0.495930 0.588610 -0.526898
O25   O     O_R   0.467110 0.722640 0.578360 -0.507580
O26   O     O_R   0.254530 0.742800 0.577360 -0.526698
C61   C     C_3   0.567573 0.773588 0.833368 -0.269294
C62   C     C_3   0.702312 0.652542 0.802317 -0.444482
H32   H     H_    0.687960 0.560052 0.792957 0.188681
H33   H     H_    0.731816 0.683650 0.752001 0.137534
H34   H     H_    0.790316 0.623502 0.840667 0.166136
H35   H     H_    0.577354 0.869920 0.835642 0.153137
H36   H     H_    0.562929 0.740376 0.888606 0.174188

loop_
_geom_bond_atom_site_label_1
_geom_bond_atom_site_label_2
_ccdc_geom_bond_type
C33   C55   S    
Cr4   O6    S    
C34   O26   A    
Cr4   O19   S    
C41   C42   A    
C35   C36   A    
C8    H30   S    
Cr6   O10   S    
Cr3   O4    S    
Cr1   O12   S    
C31   H14   S    
C57   O18   A    
C32   H15   S    
C28   C29   A    
C26   C27   A    
Cr3   O3    S    
Cr6   O19   S    
C18   C24   A    
C36   C37   A    
C56   O4    A    
C18   C19   A    
C20   C51   S    
C38   C39   A    
C33   C35   A    
C2    C60   A    
C36   H17   S    
C15   C16   A    
C7    H23   S    
C21   H7    S    
C18   H5    S    
Cr1   O24   S    
C9    C58   A    
Cr2   O20   S    
C1    O12   A    
C19   C20   A    
C52   O10   A    
C8    C9    A    
C12   C17   S    
C61   H35   S    
C62   H34   S    
C26   H10   S    
C23   C24   S    
C13   C14   A    
C52   O9    A    
C59   C60   A    
C34   O25   A    
C21   C22   A    
C19   H6    S    
C48   C49   A    
C49   H25   S    
Cr3   O5    S    
Cr5   O8    S    
Cr2   O26   S    
C35   H16   S    
C44   C46   A    
C34   C50   S    
Cr6   O18   S    
C54   O15   A    
C45   O2    A    
C23   O23   A    
Cr4   O14   S    
C55   O16   A    
C51   O7    A    
C31   C37   A    
Cr1   O25   S    
C25   H9    S    
C10   H31   S    
Cr5   O15   S    
C29   C30   A    
C41   H20   S    
C47   C57   S    
C12   O22   A    
Cr3   O22   S    
C11   C16   S    
Cr4   O13   S    
C47   C48   A    
C29   H13   S    
C51   O8    A    
C61   H36   S    
C1    O20   A    
C28   H11   S    
C12   O21   A    
C4    C17   A    
C40   C41   A    
C49   C50   A    
C40   C54   S    
C62   H32   S    
C14   H3    S    
C22   C24   A    
C58   C59   A    
C2    C5    S    
C42   C43   A    
C22   H8    S    
C37   C45   S    
Cr5   O9    S    
C39   C40   A    
C44   C50   A    
C25   C30   A    
Cr4   O7    S    
C15   H4    S    
C46   C47   A    
C11   C17   A    
Cr6   O17   S    
C38   H18   S    
Cr5   O16   S    
C31   C32   A    
C2    C8    A    
Cr6   O11   S    
C4    C5    A    
C3    C5    A    
C45   O3    A    
C48   C61   S    
C4    H1    S    
C3    C52   S    
C27   C53   S    
C57   O13   A    
C6    C7    A    
C46   H24   S    
C55   O17   A    
C56   O24   A    
Cr1   O5    S    
C25   C26   A    
C38   C43   A    
C3    C10   A    
C32   C33   A    
Cr3   O23   S    
Cr1   O1    S    
C53   O6    A    
C53   O11   A    
C1    C30   S    
Cr5   O19   S    
C54   O14   A    
C9    H12   S    
Cr2   O21   S    
C10   C11   A    
C6    C16   A    
Cr2   O2    S    
C43   C56   S    
C7    C13   A    
C23   O1    A    
C20   C21   A    
C6    H29   S    
C27   C28   A    
C62   H33   S    
C39   H19   S    
C14   C15   A    
C42   H21   S    
C59   H27   S    
C44   H22   S    
C58   H26   S    
C61   C62   S    
Cr2   O5    S    
C13   H2    S    
C60   H28   S    
