data_mof_unit_58241.cif
_audit_creation_date              2012-12-11T16:29:26-0500
_audit_creation_method            fapswitch 2.2
_symmetry_space_group_name_H-M    P1
_symmetry_Int_Tables_number       1
_space_group_crystal_system       triclinic
_cell_length_a                    6.955305
_cell_length_b                    17.315118
_cell_length_c                    18.754848
_cell_angle_alpha                 106.327665
_cell_angle_beta                  89.441487
_cell_angle_gamma                 90.258903
_cell_volume                      2167.4823479

loop_
_atom_site_label
_atom_site_type_symbol
_atom_type_description
_atom_site_fract_x
_atom_site_fract_y
_atom_site_fract_z
_atom_type_partial_charge
O1    O     O_R   0.494360 0.415680 0.413760 -0.530217
O2    O     O_R   0.818810 0.432910 0.557230 -0.525655
O3    O     O_R   0.994290 0.584320 0.586240 -0.533298
C1    C     C_R   0.649760 0.416065 0.580714 0.708299
O4    O     O_R   0.823740 0.406440 0.412520 -0.536639
O5    O     O_R   0.999250 0.557660 0.440500 -0.521986
C2    C     C_R   0.655855 0.383519 0.385109 0.697565
O6    O     O_R   0.489400 0.442340 0.559500 -0.524804
O7    O     O_3   0.662500 0.549650 0.509350 -0.357792
V1    V     V_3+5 0.935340 0.490790 0.498270 1.436889
O8    O     O_R   0.329270 0.567090 0.442770 -0.521768
C3    C     C_R   0.161281 0.584004 0.419360 0.711597
O9    O     O_R   0.324340 0.593560 0.587480 -0.535302
C4    C     C_R   0.154917 0.616086 0.615261 0.694410
V2    V     V_3+5 0.435970 0.509210 0.501730 1.441411
O10   O     O_3   0.158940 0.450350 0.490650 -0.360555
H1    H     H_    0.995404 0.863154 0.552399 0.154935
C5    C     C_R   0.229958 0.594534 0.760004 -0.194015
C6    C     C_R   0.265834 0.581427 0.828879 -0.039811
C7    C     C_R   0.253596 0.645718 0.893865 -0.042478
C8    C     C_R   0.206058 0.722508 0.889309 -0.179991
C9    C     C_R   0.170211 0.737087 0.820141 0.063790
C10   C     C_R   0.181988 0.671819 0.754218 0.058917
C11   C     C_R   0.121906 0.815234 0.816074 -0.159943
C12   C     C_R   0.086921 0.828119 0.745892 0.045938
C13   C     C_R   0.096464 0.762642 0.680096 0.076633
C14   C     C_R   0.144066 0.684460 0.684138 -0.166837
C15   C     C_R   0.045734 0.906003 0.739847 -0.205905
C16   C     C_R   0.013576 0.919609 0.670676 0.027938
C17   C     C_R   0.019844 0.854436 0.606557 -0.157033
C18   C     C_R   0.060938 0.777305 0.611027 -0.159239
H2    H     H_    0.239539 0.543445 0.711006 0.107786
H3    H     H_    0.196996 0.770680 0.940600 0.098408
H4    H     H_    0.039953 0.956977 0.788925 0.139990
H5    H     H_    0.066508 0.729499 0.559490 0.102604
C19   C     C_1   0.111844 0.863785 0.132483 -0.170867
C20   C     C_1   0.119731 0.821172 0.176010 0.037772
C21   C     C_1   0.129655 0.770984 0.227914 0.030485
C22   C     C_1   0.137945 0.728766 0.271781 0.009552
C23   C     C_1   0.147041 0.678595 0.323728 0.032814
C24   C     C_1   0.153918 0.636008 0.367305 -0.178535
C25   C     C_1   0.640950 0.364261 0.632862 -0.210675
C26   C     C_1   0.636515 0.321788 0.676547 0.028973
C27   C     C_1   0.632853 0.271687 0.728555 0.045913
C28   C     C_1   0.630209 0.229426 0.772430 0.031436
C29   C     C_1   0.627201 0.179057 0.824203 0.053478
C30   C     C_1   0.623648 0.136173 0.867524 -0.151207
H6    H     H_    0.601553 0.134031 0.453467 0.138413
C31   C     C_R   0.706199 0.407210 0.240782 -0.208116
C32   C     C_R   0.708025 0.425097 0.172642 -0.024418
C33   C     C_R   0.640493 0.366663 0.109356 -0.101075
C34   C     C_R   0.582412 0.290228 0.114949 -0.116698
C35   C     C_R   0.618286 0.267190 0.180985 0.038085
C36   C     C_R   0.659143 0.329681 0.246345 0.050911
C37   C     C_R   0.612026 0.185377 0.184349 -0.186278
C38   C     C_R   0.615680 0.168885 0.255394 0.027826
C39   C     C_R   0.626541 0.235227 0.321261 0.067868
C40   C     C_R   0.648823 0.314845 0.316494 -0.158596
C41   C     C_R   0.604534 0.089262 0.264937 -0.050889
C42   C     C_R   0.599539 0.078474 0.336139 -0.135210
C43   C     C_R   0.605852 0.143582 0.398840 -0.117371
C44   C     C_R   0.619781 0.220881 0.391840 -0.134166
H7    H     H_    0.747999 0.454240 0.289659 0.143461
H8    H     H_    0.590423 0.018574 0.343399 0.128959
H9    H     H_    0.626781 0.269366 0.442810 0.091679
O11   O     O_R   0.775690 0.057750 0.940570 -0.525550
O12   O     O_R   0.441200 0.093570 0.087490 -0.528078
O13   O     O_R   0.265840 0.942320 0.059480 -0.514287
C45   C     C_R   0.608873 0.118262 0.114088 0.720165
O14   O     O_R   0.446270 0.067110 0.942790 -0.513775
O15   O     O_R   0.270950 0.915660 0.913750 -0.537475
C46   C     C_R   0.615287 0.083899 0.919255 0.714697
O16   O     O_R   0.770580 0.084400 0.086300 -0.530990
O17   O     O_3   0.602640 0.950400 0.990690 -0.353319
V3    V     V_3+5 0.329740 0.009200 0.001730 1.506109
O18   O     O_R   0.940900 0.906360 0.912450 -0.538747
C47   C     C_R   0.110473 0.883652 0.884883 0.682900
O19   O     O_R   0.935830 0.932820 0.057160 -0.515324
C48   C     C_R   0.103907 0.915878 0.080530 0.710635
V4    V     V_3+5 0.829130 0.990680 0.998180 1.488545
O20   O     O_3   0.106100 0.049590 0.009310 -0.351435
C49   C     C_2   0.768024 0.507381 0.171096 0.779444
O21   O     O_2   0.832657 0.519158 0.114164 -0.534328
O22   O     O_R   0.752658 0.571694 0.235632 -0.670364
H10   H     H_    0.794139 0.624749 0.227415 0.302894
C50   C     C_1   0.615436 0.386582 0.039780 0.395802
N1    N     N_1   0.595249 0.402259 0.984258 -0.277426
C51   C     C_1   0.441215 0.247930 0.061900 0.272386
N2    N     N_1   0.323685 0.217270 0.020149 -0.310815
C52   C     C_1   0.598444 0.015383 0.205358 0.248704
N3    N     N_1   0.593927 0.955213 0.158751 -0.320375
C53   C     C_1   0.314258 0.501220 0.831549 0.322994
N4    N     N_1   0.352950 0.436981 0.833684 -0.308657
C54   C     C_1   0.288703 0.634280 0.966049 0.334822
N5    N     N_1   0.316757 0.625168 0.023870 -0.293019
C55   C     C_2   0.976758 0.002264 0.665582 0.749211
O23   O     O_2   0.935569 0.013377 0.605971 -0.560601
O24   O     O_R   0.991090 0.067978 0.728890 -0.671624
H11   H     H_    0.967197 0.121177 0.717893 0.299513

loop_
_geom_bond_atom_site_label_1
_geom_bond_atom_site_label_2
_ccdc_geom_bond_type
C37   C38   A    
C31   H7    S    
C6    C7    A    
C1    O6    A    
C52   N3    T    
C39   C44   A    
C28   C29   S    
C34   C35   A    
O13   V3    S    
C13   C14   A    
C16   C17   A    
C15   C16   A    
O5    C3    A    
C17   C18   A    
O19   V4    S    
C8    H3    S    
C31   C36   A    
C38   C39   A    
C5    C6    A    
C6    C53   S    
O1    C2    A    
O8    V2    S    
O22   H10   S    
O11   C46   A    
C55   O24   S    
C45   O16   A    
O1    V2    S    
C10   C14   A    
C4    C14   S    
O7    V1    S    
C2    C40   S    
O13   C48   A    
C15   H4    S    
C41   C42   A    
O17   V4    S    
O9    C4    A    
H1    C17   S    
C43   C44   A    
C33   C50   S    
C35   C37   A    
O17   V3    S    
C33   C34   A    
C34   C51   S    
C11   C12   A    
C22   C23   S    
O4    C2    A    
C50   N1    T    
V3    O20   S    
C12   C13   A    
C35   C36   A    
C49   O21   D    
C5    C10   A    
C42   C43   A    
O12   C45   A    
C41   C52   S    
O2    C1    A    
C26   C27   S    
C20   C21   S    
C55   O23   D    
C7    C8    A    
C32   C33   A    
O18   C47   A    
C37   C45   S    
O3    C4    A    
C23   C24   T    
O24   H11   S    
O6    V2    S    
C49   O22   S    
O9    V2    S    
C18   H5    S    
O12   V3    S    
C25   C26   T    
O2    V1    S    
O15   C47   A    
C27   C28   T    
C32   C49   S    
C3    C24   S    
C36   C40   A    
C7    C54   S    
C29   C30   T    
C19   C20   T    
C44   H9    S    
O19   C48   A    
O18   V4    S    
V4    O20   S    
C19   C48   S    
O5    V1    S    
C16   C55   S    
O8    C3    A    
O11   V4    S    
C38   C41   A    
C42   H8    S    
O7    V2    S    
O4    V1    S    
O3    V1    S    
V1    O10   S    
O15   V3    S    
C39   C40   A    
C21   C22   T    
C1    C25   S    
C53   N4    T    
O16   V4    S    
C9    C11   A    
C54   N5    T    
C30   C46   S    
C12   C15   A    
C11   C47   S    
C13   C18   A    
C5    H2    S    
C51   N2    T    
C31   C32   A    
H6    C43   S    
O14   V3    S    
C9    C10   A    
O14   C46   A    
C8    C9    A    
V2    O10   S    
