data_mof_unit_62418.cif
_audit_creation_date              2012-12-10T17:07:18-0500
_audit_creation_method            fapswitch 2.2
_symmetry_space_group_name_H-M    P1
_symmetry_Int_Tables_number       1
_space_group_crystal_system       triclinic
_cell_length_a                    30.836624
_cell_length_b                    30.487558
_cell_length_c                    21.190459
_cell_angle_alpha                 90.285942
_cell_angle_beta                  43.422547
_cell_angle_gamma                 90.040515
_cell_volume                      13693.4606

loop_
_atom_site_label
_atom_site_type_symbol
_atom_type_description
_atom_site_fract_x
_atom_site_fract_y
_atom_site_fract_z
_atom_type_partial_charge
C1    C     C_R   0.307342 0.810157 0.504880 1.037585
C2    C     C_R   0.662023 0.084384 0.441249 -0.113304
C3    C     C_R   0.297141 0.188768 0.653812 0.624699
C4    C     C_R   0.736206 0.383429 0.640009 0.617650
C5    C     C_R   0.263587 0.615752 0.361572 0.618795
C6    C     C_R   0.202957 0.311285 0.346102 0.607781
C7    C     C_R   0.797147 0.688772 0.653805 0.624713
C8    C     C_R   0.205819 0.922215 0.690167 -0.255498
C9    C     C_R   0.793566 0.076575 0.312818 -0.272322
C10   C     C_R   0.698642 0.808070 0.285204 -0.278055
C11   C     C_R   0.301455 0.191971 0.714714 -0.275128
C12   C     C_R   0.705835 0.422248 0.690080 -0.255386
C13   C     C_R   0.624614 0.869868 0.429361 -0.118812
C14   C     C_R   0.293570 0.576578 0.312808 -0.272321
C15   C     C_R   0.198645 0.308071 0.285200 -0.278078
C16   C     C_R   0.801472 0.691982 0.714694 -0.275142
C17   C     C_R   0.240667 0.958443 0.673001 0.378864
C18   C     C_R   0.758349 0.040495 0.330462 0.417902
C19   C     C_R   0.656060 0.834136 0.297193 0.408583
C20   C     C_R   0.343988 0.165866 0.702773 0.409926
C21   C     C_R   0.740690 0.458473 0.672902 0.378772
C22   C     C_R   0.258354 0.540498 0.330450 0.417919
C23   C     C_R   0.156064 0.334138 0.297189 0.408617
C24   C     C_R   0.375445 0.130160 0.570578 -0.138200
C25   C     C_R   0.844010 0.665880 0.702746 0.409990
C26   C     C_R   0.306033 0.954814 0.609311 -0.193474
C27   C     C_R   0.693148 0.044604 0.393062 -0.174782
C28   C     C_R   0.619012 0.864607 0.369055 -0.157943
C29   C     C_R   0.381015 0.135391 0.630922 -0.170466
C30   C     C_R   0.806054 0.454832 0.609243 -0.193598
C31   C     C_R   0.193153 0.544605 0.393052 -0.174828
C32   C     C_R   0.119016 0.364609 0.369052 -0.157916
C33   C     C_R   0.881026 0.635397 0.630908 -0.170833
C34   C     C_R   0.837607 0.415350 0.559812 -0.092176
C35   C     C_R   0.162026 0.584384 0.441244 -0.113329
C36   C     C_R   0.124616 0.369868 0.429359 -0.118821
C37   C     C_R   0.875447 0.630161 0.570576 -0.137776
C38   C     C_R   0.303130 0.880408 0.569877 -0.102191
C39   C     C_R   0.696696 0.119223 0.430984 -0.099950
C40   C     C_R   0.663848 0.840942 0.421658 -0.102466
C41   C     C_R   0.692724 0.189835 0.494988 1.034286
C42   C     C_R   0.336213 0.159089 0.578285 -0.080201
C43   C     C_R   0.803134 0.380418 0.569853 -0.102178
C44   C     C_R   0.196698 0.619223 0.430980 -0.099951
C45   C     C_R   0.163850 0.340943 0.421657 -0.102460
C46   C     C_R   0.836214 0.659090 0.578283 -0.079934
C47   C     C_R   0.337276 0.843695 0.510040 -0.335531
C48   C     C_R   0.662774 0.156281 0.489845 -0.333443
C49   C     C_R   0.662944 0.843245 0.489385 -0.312831
C50   C     C_R   0.337079 0.156767 0.510595 -0.301235
C51   C     C_R   0.837275 0.343696 0.510044 -0.335536
C52   C     C_R   0.692165 0.810091 0.496139 1.046087
C53   C     C_R   0.162774 0.656281 0.489844 -0.333354
C54   C     C_R   0.162944 0.343245 0.489385 -0.312823
C55   C     C_R   0.837078 0.656766 0.510597 -0.301245
C56   C     C_R   0.402760 0.840431 0.447527 0.544717
C57   C     C_R   0.597385 0.159897 0.551528 0.545126
C58   C     C_R   0.629039 0.875699 0.557382 0.540261
C59   C     C_R   0.370973 0.124308 0.442609 0.541835
C60   C     C_R   0.902756 0.340421 0.447555 0.544742
C61   C     C_R   0.097386 0.659895 0.551530 0.545142
C62   C     C_R   0.129038 0.375698 0.557384 0.540262
C63   C     C_R   0.307838 0.189911 0.503859 1.044148
C64   C     C_R   0.870967 0.624305 0.442617 0.541817
C65   C     C_R   0.435310 0.873122 0.443401 0.549453
C66   C     C_R   0.564752 0.127267 0.555708 0.551666
C67   C     C_R   0.594248 0.905822 0.560891 0.577780
C68   C     C_R   0.405768 0.094186 0.439095 0.575481
C69   C     C_R   0.935307 0.373111 0.443428 0.549382
C70   C     C_R   0.064754 0.627264 0.555710 0.551253
C71   C     C_R   0.094247 0.405822 0.560893 0.577771
C72   C     C_R   0.905761 0.594183 0.439103 0.575584
C73   C     C_R   0.403136 0.910001 0.499684 -0.287057
C74   C     C_R   0.807341 0.310157 0.504883 1.037514
C75   C     C_R   0.596692 0.090102 0.500403 -0.284618
C76   C     C_R   0.591745 0.903107 0.497755 -0.280252
C77   C     C_R   0.408287 0.096908 0.502212 -0.303365
C78   C     C_R   0.903140 0.409999 0.499682 -0.287006
C79   C     C_R   0.096694 0.590100 0.500402 -0.284410
C80   C     C_R   0.091746 0.403107 0.497755 -0.280258
C81   C     C_R   0.908285 0.596907 0.502214 -0.302926
C82   C     C_R   0.941086 0.562638 0.500356 0.963732
C83   C     C_R   0.058917 0.437362 0.499639 0.970143
C84   C     C_R   0.061878 0.559187 0.500312 0.982805
C85   C     C_R   0.192725 0.689835 0.494987 1.034243
C86   C     C_R   0.937982 0.440952 0.499704 0.982158
C87   C     C_R   0.441086 0.062638 0.500356 0.963677
C88   C     C_R   0.558917 0.937362 0.499640 0.970116
C89   C     C_R   0.561876 0.059189 0.500313 0.982770
C90   C     C_R   0.437979 0.940955 0.499704 0.982098
C91   C     C_R   0.335851 0.750033 0.328519 0.924430
C92   C     C_R   0.664140 0.249957 0.671481 0.926145
C93   C     C_R   0.664088 0.750313 0.671505 0.948650
C94   C     C_R   0.335913 0.249686 0.328495 0.946516
C95   C     C_R   0.835851 0.250033 0.328519 0.924408
C96   C     C_R   0.192165 0.310091 0.496139 1.046092
C97   C     C_R   0.164140 0.749957 0.671481 0.926187
C98   C     C_R   0.164088 0.250314 0.671505 0.948650
C99   C     C_R   0.835913 0.749686 0.328495 0.946508
C100  C     C_1   0.386778 0.749966 0.226882 -0.100802
C101  C     C_1   0.613215 0.250025 0.773119 -0.100834
C102  C     C_1   0.613494 0.750357 0.773149 -0.085957
C103  C     C_1   0.386506 0.249643 0.226851 -0.089812
C104  C     C_1   0.886778 0.249967 0.226882 -0.100820
C105  C     C_1   0.113214 0.750025 0.773119 -0.100843
C106  C     C_1   0.113494 0.250357 0.773149 -0.085962
C107  C     C_R   0.807838 0.689911 0.503859 1.044085
C108  C     C_1   0.886506 0.749643 0.226851 -0.089815
C109  C     C_1   0.429139 0.749982 0.142261 0.047052
C110  C     C_1   0.570855 0.250012 0.857739 0.046104
C111  C     C_1   0.571314 0.750290 0.857768 0.048609
C112  C     C_1   0.428685 0.249710 0.142232 0.045356
C113  C     C_1   0.929140 0.249982 0.142261 0.047044
C114  C     C_1   0.070855 0.750012 0.857739 0.046077
C115  C     C_1   0.071314 0.250290 0.857768 0.048604
C116  C     C_1   0.928685 0.749710 0.142232 0.045361
C117  C     C_1   0.479131 0.750067 0.042324 0.054836
C118  C     C_R   0.337598 0.915341 0.559843 -0.092159
C119  C     C_1   0.520866 0.249930 0.957676 0.053571
C120  C     C_1   0.521424 0.750168 0.957702 0.055091
C121  C     C_1   0.478573 0.249831 0.042298 0.053115
C122  C     C_1   0.979131 0.250067 0.042324 0.054832
C123  C     C_1   0.020866 0.749930 0.957676 0.053560
C124  C     C_1   0.021424 0.250168 0.957702 0.055089
C125  C     C_1   0.978573 0.749831 0.042298 0.053116
C126  C     C_R   0.236200 0.883407 0.640055 0.617633
C127  C     C_R   0.763585 0.115750 0.361578 0.618804
C128  C     C_R   0.702955 0.811284 0.346105 0.607781
F1    F     F_    0.435527 0.805667 0.389068 -0.584530
F2    F     F_    0.800913 0.150424 0.336182 -0.668121
F3    F     F_    0.747943 0.786797 0.327061 -0.679135
F4    F     F_    0.252173 0.213282 0.672847 -0.675797
F5    F     F_    0.699246 0.348610 0.664808 -0.670731
F6    F     F_    0.300913 0.650426 0.336178 -0.668123
F7    F     F_    0.247945 0.286798 0.327060 -0.679141
F8    F     F_    0.752175 0.713283 0.672846 -0.675787
F9    F     F_    0.498433 0.868477 0.385177 -0.603304
F10   F     F_    0.501783 0.132230 0.613050 -0.603442
F11   F     F_    0.563583 0.938179 0.625457 -0.593744
F12   F     F_    0.564755 0.194938 0.609177 -0.584181
F13   F     F_    0.436416 0.061821 0.374548 -0.593676
F14   F     F_    0.998426 0.368457 0.385232 -0.603425
F15   F     F_    0.001784 0.632225 0.613054 -0.604191
F16   F     F_    0.063580 0.438178 0.625460 -0.593761
F17   F     F_    0.936405 0.561815 0.374561 -0.593700
F18   F     F_    0.628653 0.877591 0.621908 -0.603978
F19   F     F_    0.371341 0.122406 0.378104 -0.603886
F20   F     F_    0.935520 0.305649 0.389120 -0.584534
F21   F     F_    0.064754 0.694935 0.609181 -0.584310
F22   F     F_    0.128651 0.377590 0.621911 -0.603981
F23   F     F_    0.871331 0.622400 0.378114 -0.603891
F24   F     F_    0.199250 0.848584 0.664835 -0.670763
H1    H     H_    0.154801 0.923938 0.742736 0.215212
H2    H     H_    0.667079 0.016245 0.404583 0.199255
H3    H     H_    0.585501 0.883557 0.377529 0.233802
H4    H     H_    0.414466 0.116397 0.622510 0.239317
H5    H     H_    0.831912 0.483278 0.597905 0.173606
H6    H     H_    0.167084 0.516246 0.404572 0.199248
H7    H     H_    0.085505 0.383559 0.377524 0.233820
H8    H     H_    0.914479 0.616404 0.622494 0.239232
H9    H     H_    0.275355 0.054463 0.681959 0.360803
H10   H     H_    0.768480 0.922219 0.297698 0.391327
H11   H     H_    0.624304 0.872456 0.171705 0.405975
H12   H     H_    0.844535 0.074452 0.260930 0.218872
H13   H     H_    0.375104 0.127491 0.829115 0.405280
H14   H     H_    0.775325 0.554338 0.682634 0.360995
H15   H     H_    0.268487 0.422223 0.297678 0.391327
H16   H     H_    0.124157 0.372441 0.171888 0.406013
H17   H     H_    0.876232 0.627629 0.827696 0.405734
H18   H     H_    0.728728 0.785025 0.228451 0.218672
H19   H     H_    0.271390 0.215024 0.771455 0.217744
H20   H     H_    0.654818 0.423984 0.742629 0.215177
H21   H     H_    0.344539 0.574457 0.260918 0.218873
H22   H     H_    0.228732 0.285027 0.228447 0.218651
H23   H     H_    0.771415 0.715040 0.771426 0.217707
H24   H     H_    0.331882 0.983264 0.597986 0.173429
O1    O     O_R   0.321660 0.769950 0.500020 -0.575515
O2    O     O_R   0.730050 0.178330 0.500000 -0.584994
O3    O     O_R   0.730050 0.821670 0.500000 -0.573632
O4    O     O_R   0.269950 0.178330 0.500000 -0.568342
O5    O     O_R   0.769950 0.321670 0.500000 -0.585530
O6    O     O_R   0.230050 0.678330 0.500000 -0.585011
O7    O     O_R   0.230050 0.321670 0.500000 -0.573633
O8    O     O_R   0.769950 0.678330 0.500000 -0.568314
O9    O     O_R   0.339000 0.724150 0.373720 -0.541324
O10   O     O_R   0.661000 0.275850 0.626280 -0.541811
O11   O     O_R   0.661000 0.724150 0.626280 -0.619602
O12   O     O_R   0.678340 0.230050 0.499980 -0.574913
O13   O     O_R   0.339000 0.275850 0.373720 -0.622285
O14   O     O_R   0.839000 0.224150 0.373720 -0.541330
O15   O     O_R   0.161000 0.775850 0.626280 -0.541823
O16   O     O_R   0.161000 0.224150 0.626280 -0.619608
O17   O     O_R   0.839000 0.775850 0.373720 -0.622288
O18   O     O_R   0.287290 0.775870 0.373700 -0.626572
O19   O     O_R   0.712710 0.224130 0.626300 -0.626450
O20   O     O_R   0.712710 0.775870 0.626300 -0.550841
O21   O     O_R   0.287290 0.224130 0.373700 -0.549814
O22   O     O_R   0.787290 0.275870 0.373700 -0.626568
O23   O     O_R   0.678340 0.769950 0.499980 -0.598122
O24   O     O_R   0.212710 0.724130 0.626300 -0.626451
O25   O     O_R   0.212710 0.275870 0.626300 -0.550840
O26   O     O_R   0.787290 0.724130 0.373700 -0.549805
O27   O     O_R   0.989830 0.545820 0.428700 -0.566010
O28   O     O_R   0.010170 0.454180 0.571300 -0.572558
O29   O     O_R   0.010170 0.545820 0.571300 -0.563480
O30   O     O_R   0.989830 0.454180 0.428700 -0.563923
O31   O     O_R   0.489830 0.045820 0.428700 -0.565968
O32   O     O_R   0.510170 0.954180 0.571300 -0.572566
O33   O     O_R   0.510170 0.045820 0.571300 -0.563334
O34   O     O_R   0.321660 0.230050 0.500020 -0.601422
O35   O     O_R   0.489830 0.954180 0.428700 -0.563907
O36   O     O_R   0.918540 0.545810 0.571290 -0.652384
O37   O     O_R   0.081460 0.454190 0.428710 -0.630742
O38   O     O_R   0.081460 0.545810 0.428710 -0.643870
O39   O     O_R   0.918540 0.454190 0.571290 -0.646771
O40   O     O_R   0.418540 0.045810 0.571290 -0.652335
O41   O     O_R   0.581460 0.954190 0.428710 -0.630736
O42   O     O_R   0.581460 0.045810 0.428710 -0.643898
O43   O     O_R   0.418540 0.954190 0.571290 -0.646730
O44   O     O_2   0.143045 0.013043 0.758567 -0.210714
O45   O     O_R   0.821660 0.269950 0.500020 -0.575497
O46   O     O_2   0.185393 0.006888 0.820724 -0.259202
O47   O     O_3   0.250040 0.050859 0.669748 -0.528068
O48   O     O_2   0.813443 0.991039 0.184365 -0.250455
O49   O     O_2   0.854303 0.984890 0.249065 -0.246683
O50   O     O_3   0.746207 0.948593 0.337437 -0.563494
O51   O     O_2   0.710157 0.811852 0.130017 -0.252306
O52   O     O_2   0.597001 0.797850 0.261966 -0.181979
O53   O     O_3   0.633003 0.878458 0.207656 -0.492582
O54   O     O_2   0.402564 0.202420 0.738610 -0.180839
O55   O     O_2   0.289589 0.187700 0.870273 -0.252345
O56   O     O_R   0.178340 0.730050 0.499980 -0.574900
O57   O     O_3   0.367612 0.121574 0.791650 -0.495094
O58   O     O_2   0.643375 0.513240 0.757663 -0.210696
O59   O     O_2   0.684875 0.506789 0.821006 -0.259034
O60   O     O_3   0.750270 0.550873 0.669956 -0.528396
O61   O     O_2   0.313435 0.491042 0.184358 -0.250466
O62   O     O_2   0.354318 0.484898 0.249027 -0.246671
O63   O     O_3   0.246220 0.448596 0.337425 -0.563486
O64   O     O_2   0.210168 0.311870 0.130001 -0.252226
O65   O     O_2   0.097021 0.297836 0.261949 -0.182104
O66   O     O_3   0.132978 0.378455 0.207683 -0.492611
O67   O     O_R   0.178340 0.269950 0.499980 -0.598124
O68   O     O_2   0.902700 0.702409 0.738400 -0.181615
O69   O     O_2   0.789705 0.687810 0.870167 -0.251331
O70   O     O_3   0.867572 0.621602 0.791704 -0.495357
O71   O     O_R   0.821660 0.730050 0.500020 -0.601449
O72   O     O_R   0.269950 0.821670 0.500000 -0.585549
S1    S     S_3+6 0.202413 0.007907 0.733895 0.080101
S2    S     S_3+6 0.795762 0.990514 0.271719 0.064192
S3    S     S_3+6 0.649519 0.829157 0.221554 0.111656
S4    S     S_3+6 0.350463 0.170797 0.778492 0.111195
S5    S     S_3+6 0.702433 0.507946 0.733749 0.080057
S6    S     S_3+6 0.295768 0.490518 0.271701 0.064192
S7    S     S_3+6 0.149523 0.329158 0.221550 0.111649
S8    S     S_3+6 0.850523 0.670833 0.778420 0.111263
Zn1   Zn    Zn3+2 0.284530 0.715470 0.500010 1.109068
Zn2   Zn    Zn3+2 0.952400 0.500000 0.595210 1.092819
Zn3   Zn    Zn3+2 0.547600 0.000000 0.404790 1.108645
Zn4   Zn    Zn3+2 0.452400 0.000000 0.595210 1.093067
Zn5   Zn    Zn3+2 0.715470 0.284530 0.499990 1.108596
Zn6   Zn    Zn3+2 0.715470 0.715470 0.499990 1.109653
Zn7   Zn    Zn3+2 0.284530 0.284530 0.500010 1.103312
Zn8   Zn    Zn3+2 0.784530 0.215470 0.500010 1.109077
Zn9   Zn    Zn3+2 0.215470 0.784530 0.499990 1.108576
Zn10  Zn    Zn3+2 0.215470 0.215470 0.499990 1.109619
Zn11  Zn    Zn3+2 0.784530 0.784530 0.500010 1.103297
Zn12  Zn    Zn3+2 0.047600 0.500000 0.404790 1.108622

loop_
_geom_bond_atom_site_label_1
_geom_bond_atom_site_label_2
_ccdc_geom_bond_type
C61   C70   A    
H10   O50   S    
C30   H5    S    
C111  C120  S    
C79   C84   S    
C3    C42   A    
O35   Zn3   S    
C85   O6    A    
O32   Zn4   S    
C6    C45   A    
C24   C42   A    
C98   O25   A    
O67   Zn10  S    
C57   C66   A    
O45   Zn8   S    
C43   C51   A    
C86   O30   A    
O23   Zn6   S    
C81   C82   S    
C102  C111  T    
C109  C117  S    
O24   Zn1   S    
C12   H20   S    
C74   O5    A    
C88   O41   A    
C11   H19   S    
C99   C108  S    
C85   O56   A    
C74   O45   A    
C70   F15   S    
C9    C127  A    
C91   C100  S    
O62   S6    D    
O42   Zn3   S    
C32   C36   A    
O39   Zn2   S    
C107  O71   A    
C7    F8    S    
C73   C90   S    
C14   H21   S    
O27   Zn12  S    
C82   O27   A    
C92   O10   A    
C20   S4    S    
O3    Zn11  S    
C126  F24   S    
C40   C49   A    
C40   C128  A    
O26   Zn6   S    
C60   C69   A    
O34   Zn7   S    
C65   C73   A    
O56   Zn9   S    
O13   Zn7   S    
O57   S4    S    
O14   Zn8   S    
O21   Zn10  S    
C86   O39   A    
C13   C40   A    
C95   O14   A    
C38   C126  A    
C6    C15   A    
C24   C29   A    
C1    O1    A    
C84   O29   A    
H16   O66   S    
C113  C122  S    
H15   O63   S    
O30   Zn12  S    
C46   C55   A    
C28   H3    S    
O8    Zn6   S    
C87   O40   A    
C51   C74   S    
C13   C28   A    
C2    C27   A    
O65   S7    D    
O60   S5    S    
C4    C12   A    
C67   F11   S    
C76   C88   S    
C54   C96   S    
C72   C81   A    
O49   S2    D    
O48   S2    D    
O29   Zn2   S    
O52   S3    D    
C65   F9    S    
C78   C86   S    
C27   H2    S    
C15   C23   A    
C91   O9    A    
C100  C109  T    
O44   S1    D    
C50   C63   S    
O15   Zn9   S    
C97   O24   A    
C37   C81   A    
C69   C78   A    
O18   Zn9   S    
C53   C61   A    
C88   O32   A    
C80   C83   S    
C10   C128  A    
O55   S4    D    
C2    C39   A    
C71   C80   A    
C83   O37   A    
C25   S8    S    
C84   O38   A    
C82   O36   A    
C20   C29   A    
C119  C121  T    
O10   Zn5   S    
H14   O60   S    
C5    F6    S    
C89   O42   A    
O69   S8    D    
C11   C20   A    
C39   C127  A    
C22   C31   A    
C30   C34   A    
C64   F23   S    
C3    F4    S    
O17   Zn11  S    
C7    C46   A    
O25   Zn7   S    
H13   O57   S    
C36   C45   A    
C3    C11   A    
O59   S5    D    
C23   S7    S    
C36   C80   A    
C117  C120  T    
C4    F5    S    
C91   O18   A    
C75   C89   S    
C1    C47   S    
O33   Zn4   S    
C89   O33   A    
O72   Zn9   S    
C54   C62   A    
C69   F14   S    
C21   S5    S    
C12   C21   A    
O12   Zn5   S    
C33   C37   A    
C63   O4    A    
C41   O12   A    
C57   F12   S    
C55   C107  S    
C103  C112  T    
C110  C119  S    
C9    H12   S    
C96   O67   A    
C6    F7    S    
C35   C44   A    
C59   C68   A    
C16   C25   A    
O61   S6    D    
O37   Zn12  S    
C13   C76   A    
C26   H24   S    
C10   C19   A    
C49   C52   S    
O31   Zn3   S    
C55   C64   A    
O63   S6    S    
C58   F18   S    
C38   C47   A    
O54   S4    D    
C68   F13   S    
C52   O23   A    
O16   Zn10  S    
O28   Zn2   S    
C8    H1    S    
C47   C56   A    
O58   S5    D    
C87   O31   A    
C5    C14   A    
O53   S3    S    
C92   C101  S    
C42   C50   A    
C29   H4    S    
C114  C123  S    
C93   O11   A    
C16   H23   S    
O9    Zn1   S    
C7    C16   A    
C5    C44   A    
C127  F2    S    
C45   C54   A    
O66   S7    S    
C116  C125  S    
C99   O26   A    
C19   C28   A    
C14   C22   A    
H17   O70   S    
C31   C35   A    
C35   C79   A    
C93   O20   A    
O40   Zn4   S    
C96   O7    A    
C122  C124  T    
C128  F3    S    
C95   C104  S    
O51   S3    D    
C8    C126  A    
C68   C77   A    
O50   S2    S    
O6    Zn1   S    
O64   S7    D    
C115  C124  S    
C62   F22   S    
C15   H22   S    
O1    Zn1   S    
C70   C79   A    
C73   C118  A    
C97   C105  S    
C32   H7    S    
C34   C43   A    
C26   C118  A    
C83   O28   A    
H11   O53   S    
C1    O72   A    
C98   C106  S    
C93   C102  S    
C94   C103  S    
O22   Zn5   S    
O4    Zn10  S    
C33   H8    S    
C9    C18   A    
C67   C76   A    
C4    C43   A    
C41   O2    A    
C10   H18   S    
C60   F20   S    
C21   C30   A    
C99   O17   A    
O11   Zn6   S    
C8    C17   A    
O41   Zn3   S    
O38   Zn12  S    
C106  C115  T    
C18   C27   A    
C94   O21   A    
C23   C32   A    
C108  C116  T    
C51   C60   A    
O19   Zn8   S    
C101  C110  T    
C94   O13   A    
O71   Zn11  S    
C112  C121  S    
O2    Zn8   S    
C34   C78   A    
C19   S3    S    
C90   O35   A    
O70   S8    S    
C17   S1    S    
C18   S2    S    
C95   O22   A    
O7    Zn7   S    
C66   C75   A    
H9    O47   S    
O36   Zn2   S    
C41   C48   S    
C17   C26   A    
C62   C71   A    
C52   O3    A    
C64   C72   A    
C98   O16   A    
C56   F1    S    
C22   S6    S    
C31   H6    S    
C123  C125  T    
C49   C58   A    
C66   F10   S    
C104  C113  T    
C38   C118  A    
O46   S1    D    
C58   C67   A    
C97   O15   A    
C48   C57   A    
O5    Zn5   S    
C77   C87   S    
C50   C59   A    
C90   O43   A    
O47   S1    S    
O68   S8    D    
C44   C53   A    
C24   C77   A    
C72   F17   S    
C39   C48   A    
O20   Zn11  S    
C53   C85   S    
O43   Zn4   S    
C63   O34   A    
C37   C46   A    
C107  O8    A    
C61   F21   S    
C92   O19   A    
C2    C75   A    
C56   C65   A    
C105  C114  T    
C25   C33   A    
C71   F16   S    
C59   F19   S    
