data_mof_unit_42868.cif
_audit_creation_date              2012-12-11T21:06:13-0500
_audit_creation_method            fapswitch 2.2
_symmetry_space_group_name_H-M    P1
_symmetry_Int_Tables_number       1
_space_group_crystal_system       triclinic
_cell_length_a                    36.368798
_cell_length_b                    39.621794
_cell_length_c                    8.389242
_cell_angle_alpha                 90.000112
_cell_angle_beta                  93.56206
_cell_angle_gamma                 89.999912
_cell_volume                      12065.5181051

loop_
_atom_site_label
_atom_site_type_symbol
_atom_type_description
_atom_site_fract_x
_atom_site_fract_y
_atom_site_fract_z
_atom_type_partial_charge
Ba1   Ba    Ba6+2 0.000060 0.523150 0.844950 1.682242
Ba2   Ba    Ba6+2 0.000060 0.476850 0.344950 1.682217
Ba3   Ba    Ba6+2 0.500060 0.023150 0.844950 1.682241
Ba4   Ba    Ba6+2 0.500060 0.976850 0.344950 1.682203
C1    C     C_3   0.983319 0.690573 0.636232 -0.307995
C2    C     C_2   0.907143 0.634240 0.289012 -0.064015
C3    C     C_R   0.625574 0.811281 0.672486 0.590394
C4    C     C_2   0.085100 0.637235 0.374843 -0.066817
C5    C     C_2   0.085098 0.362764 0.874834 -0.066782
C6    C     C_2   0.585101 0.137235 0.374848 -0.066812
C7    C     C_2   0.585095 0.862763 0.874826 -0.066734
C8    C     C_3   0.054846 0.612264 0.408540 -0.114876
C9    C     C_3   0.054847 0.387738 0.908537 -0.114683
C10   C     C_3   0.554847 0.112264 0.408540 -0.114877
C11   C     C_3   0.554848 0.887740 0.908535 -0.114497
C12   C     C_1   0.080140 0.575408 0.207595 0.046600
C13   C     C_2   0.407147 0.865758 0.789015 -0.064087
C14   C     C_1   0.080142 0.424593 0.707596 0.046603
C15   C     C_1   0.580140 0.075408 0.207596 0.046603
C16   C     C_1   0.580144 0.924593 0.707594 0.046615
C17   C     C_2   0.103312 0.599013 0.163017 -0.077727
C18   C     C_2   0.103316 0.400988 0.663025 -0.077727
C19   C     C_2   0.603314 0.099012 0.163024 -0.077736
C20   C     C_2   0.603316 0.900987 0.663020 -0.077702
C21   C     C_2   0.107451 0.631523 0.253834 0.235843
C22   C     C_2   0.107452 0.368478 0.753836 0.235820
C23   C     C_2   0.607453 0.131522 0.253842 0.235846
C24   C     C_2   0.407144 0.134240 0.289013 -0.064018
C25   C     C_2   0.607450 0.868476 0.753828 0.235797
C26   C     C_R   0.734717 0.284648 0.016158 0.019773
C27   C     C_R   0.734715 0.715350 0.516141 0.019772
C28   C     C_R   0.234715 0.784651 0.016168 0.019773
C29   C     C_R   0.234716 0.215352 0.516139 0.019773
C30   C     C_R   0.772593 0.275796 0.036932 0.050623
C31   C     C_R   0.772590 0.724201 0.536934 0.050626
C32   C     C_R   0.272590 0.775798 0.036925 0.050621
C33   C     C_R   0.272591 0.224202 0.536937 0.050624
C34   C     C_R   0.783090 0.242996 0.091707 0.020688
C35   C     C_3   0.941182 0.387183 0.774108 -0.111006
C36   C     C_R   0.783086 0.757000 0.591728 0.020687
C37   C     C_R   0.283087 0.742997 0.091684 0.020688
C38   C     C_R   0.283088 0.257001 0.591737 0.020687
C39   C     C_3   0.896426 0.522714 0.142720 0.272740
C40   C     C_3   0.896427 0.477286 0.642723 0.272740
C41   C     C_3   0.396426 0.022714 0.142719 0.272744
C42   C     C_3   0.396427 0.977285 0.642720 0.272741
C43   C     C_R   0.725801 0.317075 0.953903 -0.098292
C44   C     C_R   0.725799 0.682925 0.453866 -0.098294
C45   C     C_R   0.225798 0.817080 0.953931 -0.098291
C46   C     C_3   0.941177 0.612815 0.274099 -0.110930
C47   C     C_R   0.225800 0.182927 0.453861 -0.098293
C48   C     C_R   0.847826 0.259994 0.087655 -0.062143
C49   C     C_R   0.847823 0.740000 0.587694 -0.062148
C50   C     C_R   0.347824 0.759993 0.087615 -0.062144
C51   C     C_R   0.347824 0.240000 0.587705 -0.062146
C52   C     C_R   0.264226 0.684507 0.159621 -0.098334
C53   C     C_R   0.264228 0.315488 0.659712 -0.098334
C54   C     C_R   0.764229 0.184507 0.159656 -0.098333
C55   C     C_R   0.764226 0.815487 0.659690 -0.098336
C56   C     C_R   0.237082 0.661056 0.190989 -0.053697
C57   C     C_3   0.441183 0.887181 0.774110 -0.111125
C58   C     C_R   0.237084 0.338940 0.691076 -0.053699
C59   C     C_R   0.737085 0.161055 0.191023 -0.053698
C60   C     C_R   0.737081 0.838939 0.691052 -0.053699
C61   C     C_R   0.821157 0.236070 0.118380 -0.099894
C62   C     C_R   0.821153 0.763923 0.618421 -0.099894
C63   C     C_R   0.321154 0.736070 0.118340 -0.099897
C64   C     C_R   0.321155 0.263924 0.618433 -0.099892
C65   C     C_3   0.862476 0.545422 0.140199 -0.277626
C66   C     C_3   0.862478 0.454577 0.640203 -0.277628
C67   C     C_3   0.362476 0.045422 0.140197 -0.277627
C68   C     C_3   0.441177 0.112815 0.274099 -0.110929
C69   C     C_3   0.362478 0.954577 0.640200 -0.277635
C70   C     C_3   0.111016 0.477798 0.075657 0.271164
C71   C     C_3   0.111016 0.522202 0.575657 0.271164
C72   C     C_3   0.611017 0.977799 0.075655 0.271162
C73   C     C_3   0.611016 0.022203 0.575654 0.271161
C74   C     C_3   0.148367 0.459809 0.107287 -0.247776
C75   C     C_3   0.148367 0.540191 0.607299 -0.247774
C76   C     C_3   0.648368 0.959809 0.107301 -0.247772
C77   C     C_3   0.648367 0.040191 0.607282 -0.247770
C78   C     C_3   0.999586 0.657614 0.580827 0.330069
C79   C     C_1   0.917264 0.424415 0.979615 0.009049
C80   C     C_3   0.999524 0.342433 0.080926 0.330524
C81   C     C_3   0.499586 0.157614 0.580827 0.330069
C82   C     C_3   0.499472 0.842473 0.081006 0.330888
C83   C     C_R   0.818200 0.355798 0.908705 0.594550
C84   C     C_R   0.818198 0.644201 0.408687 0.594543
C85   C     C_R   0.318198 0.855802 0.908714 0.594556
C86   C     C_R   0.318199 0.144202 0.408688 0.594542
C87   C     C_1   0.836512 0.533766 0.255508 0.381074
C88   C     C_1   0.836513 0.466234 0.755509 0.381076
C89   C     C_1   0.336512 0.033766 0.255506 0.381069
C90   C     C_1   0.917262 0.575584 0.479614 0.009096
C91   C     C_1   0.336514 0.966233 0.755509 0.381084
C92   C     C_1   0.146314 0.423330 0.083203 0.258685
C93   C     C_1   0.146316 0.576669 0.583194 0.258678
C94   C     C_1   0.646316 0.923332 0.083189 0.258680
C95   C     C_1   0.646315 0.076669 0.583203 0.258681
C96   C     C_1   0.163563 0.465422 0.271392 0.338137
C97   C     C_1   0.163559 0.534581 0.771415 0.338116
C98   C     C_1   0.663558 0.965418 0.271419 0.338120
C99   C     C_1   0.663564 0.034577 0.771385 0.338134
C100  C     C_1   0.865159 0.409192 0.132494 0.386146
C101  C     C_1   0.417265 0.924415 0.979613 0.009014
C102  C     C_1   0.865157 0.590806 0.632493 0.386127
C103  C     C_1   0.365161 0.909191 0.132499 0.386155
C104  C     C_1   0.365156 0.090806 0.632490 0.386127
C105  C     C_3   0.983318 0.309433 0.136169 -0.308124
C106  C     C_1   0.417262 0.075583 0.479614 0.009095
C107  C     C_2   0.889769 0.403039 0.006466 -0.132981
C108  C     C_2   0.889767 0.596960 0.506466 -0.132951
C109  C     C_2   0.389769 0.903039 0.006463 -0.133008
C110  C     C_2   0.389767 0.096960 0.506466 -0.132949
C111  C     C_2   0.883690 0.372121 0.904179 0.215436
C112  C     C_2   0.883687 0.627877 0.404176 0.215455
C113  C     C_2   0.383689 0.872122 0.904172 0.215434
C114  C     C_2   0.383688 0.127877 0.404177 0.215456
C115  C     C_R   0.800303 0.300013 0.002791 -0.079766
C116  C     C_3   0.483321 0.190575 0.636235 -0.307997
C117  C     C_R   0.800300 0.699984 0.502792 -0.079761
C118  C     C_R   0.300300 0.800015 0.002784 -0.079768
C119  C     C_R   0.300301 0.199985 0.502796 -0.079763
C120  C     C_R   0.790421 0.332251 0.943074 -0.031727
C121  C     C_R   0.790419 0.667748 0.443056 -0.031724
C122  C     C_R   0.290418 0.832254 0.943084 -0.031731
C123  C     C_R   0.290419 0.167749 0.443057 -0.031723
C124  C     C_R   0.752994 0.340204 0.918135 -0.051161
C125  C     C_R   0.752992 0.659797 0.418099 -0.051164
C126  C     C_R   0.252991 0.840209 0.918164 -0.051161
C127  C     C_3   0.483308 0.809446 0.136179 -0.308144
C128  C     C_R   0.252992 0.159798 0.418096 -0.051163
C129  C     C_R   0.837925 0.291983 0.028561 -0.027353
C130  C     C_R   0.837922 0.708013 0.528580 -0.027364
C131  C     C_R   0.337923 0.791984 0.028538 -0.027343
C132  C     C_R   0.337924 0.208013 0.528587 -0.027363
C133  C     C_3   0.993957 0.659381 0.099407 0.326749
C134  C     C_3   0.993949 0.340610 0.599383 0.326659
C135  C     C_3   0.493958 0.159381 0.099411 0.326752
C136  C     C_3   0.493916 0.840588 0.599420 0.326417
C137  C     C_2   0.941129 0.419436 0.868466 -0.259026
C138  C     C_R   0.865000 0.316194 0.996182 0.590909
C139  C     C_2   0.941126 0.580562 0.368462 -0.258987
C140  C     C_2   0.441130 0.919435 0.868465 -0.259037
C141  C     C_2   0.441126 0.080562 0.368460 -0.258988
C142  C     C_2   0.059870 0.578438 0.332201 -0.249412
C143  C     C_2   0.059872 0.421563 0.832200 -0.249488
C144  C     C_2   0.559869 0.078439 0.332198 -0.249419
C145  C     C_2   0.559875 0.921565 0.832203 -0.249530
C146  C     C_R   0.207160 0.760935 0.057315 0.020700
C147  C     C_R   0.207161 0.239068 0.557286 0.020700
C148  C     C_R   0.707163 0.260932 0.057307 0.020700
C149  C     C_R   0.864997 0.683801 0.496196 0.590921
C150  C     C_R   0.707160 0.739066 0.557291 0.020699
C151  C     C_R   0.255438 0.718403 0.119497 0.020094
C152  C     C_R   0.255440 0.281594 0.619550 0.020092
C153  C     C_R   0.755441 0.218402 0.119519 0.020093
C154  C     C_R   0.755438 0.781593 0.619538 0.020092
C155  C     C_R   0.217631 0.727719 0.105989 0.051383
C156  C     C_R   0.217632 0.272281 0.606000 0.051385
C157  C     C_R   0.717634 0.227718 0.105997 0.051383
C158  C     C_R   0.717630 0.772279 0.605997 0.051386
C159  C     C_R   0.169257 0.769293 0.052840 -0.099087
C160  C     C_R   0.364997 0.816195 0.996158 0.590894
C161  C     C_R   0.169258 0.230713 0.552772 -0.099087
C162  C     C_R   0.669260 0.269289 0.052821 -0.099088
C163  C     C_R   0.669257 0.730710 0.552788 -0.099086
C164  C     C_R   0.142694 0.745774 0.090882 -0.060826
C165  C     C_R   0.142694 0.254232 0.590813 -0.060825
C166  C     C_R   0.642696 0.245771 0.090866 -0.060827
C167  C     C_R   0.642693 0.754228 0.590832 -0.060824
C168  C     C_R   0.152523 0.712725 0.134818 -0.026690
C169  C     C_R   0.152524 0.287278 0.634787 -0.026695
C170  C     C_R   0.652526 0.212723 0.134815 -0.026691
C171  C     C_R   0.364998 0.183802 0.496202 0.590923
C172  C     C_R   0.652523 0.787275 0.634796 -0.026700
C173  C     C_R   0.189996 0.703548 0.141721 -0.079712
C174  C     C_R   0.189998 0.296452 0.641731 -0.079711
C175  C     C_R   0.689999 0.203546 0.141730 -0.079712
C176  C     C_R   0.689996 0.796450 0.641728 -0.079712
C177  C     C_R   0.199835 0.670189 0.184274 -0.037267
C178  C     C_R   0.199837 0.329809 0.684321 -0.037268
C179  C     C_R   0.699838 0.170188 0.184297 -0.037268
C180  C     C_R   0.699835 0.829807 0.684307 -0.037266
C181  C     C_3   0.008434 0.692501 0.037161 -0.308478
C182  C     C_2   0.907148 0.365757 0.789021 -0.064049
C183  C     C_3   0.008428 0.307493 0.537119 -0.308517
C184  C     C_3   0.508436 0.192500 0.037165 -0.308478
C185  C     C_3   0.508430 0.807489 0.537105 -0.308522
C186  C     C_R   0.172247 0.646566 0.219133 0.609857
C187  C     C_R   0.172249 0.353433 0.719176 0.609855
C188  C     C_R   0.672250 0.146565 0.219156 0.609854
C189  C     C_R   0.672246 0.853431 0.719159 0.609854
C190  C     C_R   0.125575 0.688718 0.172508 0.590369
C191  C     C_R   0.125576 0.311285 0.672476 0.590388
C192  C     C_R   0.625578 0.188716 0.172507 0.590373
H1    H     H_    0.976669 0.639697 0.550955 0.023216
H2    H     H_    0.102203 0.524471 0.447248 -0.024431
H3    H     H_    0.376530 0.246787 0.610717 0.116628
H4    H     H_    0.291964 0.674912 0.165069 0.070480
H5    H     H_    0.291967 0.325081 0.665194 0.070480
H6    H     H_    0.791968 0.174912 0.165114 0.070480
H7    H     H_    0.791964 0.825081 0.665162 0.070481
H8    H     H_    0.245547 0.635508 0.221278 0.125692
H9    H     H_    0.245550 0.364486 0.721395 0.125691
H10   H     H_    0.745550 0.135509 0.221322 0.125691
H11   H     H_    0.745547 0.864485 0.721362 0.125692
H12   H     H_    0.120282 0.594556 0.063054 0.110535
H13   H     H_    0.602205 0.975530 0.947244 -0.024428
H14   H     H_    0.120288 0.405446 0.563073 0.110523
H15   H     H_    0.620284 0.094555 0.063064 0.110527
H16   H     H_    0.620288 0.905445 0.563067 0.110530
H17   H     H_    0.831482 0.212481 0.166476 0.069312
H18   H     H_    0.831477 0.787511 0.666535 0.069313
H19   H     H_    0.331480 0.712479 0.166423 0.069312
H20   H     H_    0.331480 0.287511 0.666549 0.069312
H21   H     H_    0.977986 0.665868 0.203832 -0.044674
H22   H     H_    0.977970 0.334119 0.703774 -0.044494
H23   H     H_    0.477987 0.165868 0.203835 -0.044674
H24   H     H_    0.602199 0.024472 0.447248 -0.024434
H25   H     H_    0.477898 0.834071 0.703643 -0.044132
H26   H     H_    0.089913 0.466394 0.148804 0.067100
H27   H     H_    0.089911 0.533606 0.648800 0.067099
H28   H     H_    0.589912 0.966395 0.148792 0.067098
H29   H     H_    0.589912 0.033606 0.648806 0.067103
H30   H     H_    0.168243 0.469925 0.024398 0.111354
H31   H     H_    0.168245 0.530072 0.524427 0.111366
H32   H     H_    0.668247 0.969928 0.024435 0.111365
H33   H     H_    0.976582 0.360353 0.051543 0.023589
H34   H     H_    0.668242 0.030075 0.524391 0.111354
H35   H     H_    0.014223 0.663669 0.472072 -0.056576
H36   H     H_    0.014086 0.336442 0.971896 -0.057110
H37   H     H_    0.514223 0.163669 0.472069 -0.056583
H38   H     H_    0.513976 0.836522 0.971730 -0.057580
H39   H     H_    0.968021 0.703068 0.533941 0.119463
H40   H     H_    0.968011 0.296954 0.033856 0.119535
H41   H     H_    0.468022 0.203069 0.533947 0.119464
H42   H     H_    0.467997 0.796973 0.033860 0.119573
H43   H     H_    0.087475 0.660483 0.443184 0.094928
H44   H     H_    0.476668 0.139697 0.550958 0.023221
H45   H     H_    0.087469 0.339515 0.943164 0.094941
H46   H     H_    0.587476 0.160482 0.443186 0.094924
H47   H     H_    0.587462 0.839514 0.943152 0.094969
H48   H     H_    0.159052 0.794158 0.023249 0.070248
H49   H     H_    0.159052 0.205849 0.523150 0.070249
H50   H     H_    0.659054 0.294154 0.023219 0.070249
H51   H     H_    0.659052 0.705845 0.523174 0.070250
H52   H     H_    0.697861 0.325338 0.928362 0.071426
H53   H     H_    0.697859 0.674664 0.428310 0.071428
H54   H     H_    0.197858 0.825344 0.928406 0.071425
H55   H     H_    0.476509 0.860404 0.051996 0.023821
H56   H     H_    0.197860 0.174666 0.428302 0.071426
H57   H     H_    0.903765 0.343091 0.716843 0.083638
H58   H     H_    0.903760 0.656906 0.216831 0.083629
H59   H     H_    0.403761 0.843093 0.716832 0.083630
H60   H     H_    0.403760 0.156906 0.216834 0.083628
H61   H     H_    0.005586 0.707861 0.681734 0.095506
H62   H     H_    0.005617 0.292157 0.181442 0.095590
H63   H     H_    0.505588 0.207862 0.681729 0.095505
H64   H     H_    0.505633 0.792179 0.181318 0.095670
H65   H     H_    0.964670 0.435925 0.857898 0.074129
H66   H     H_    0.848475 0.545467 0.018760 0.138357
H67   H     H_    0.964669 0.564075 0.357898 0.074110
H68   H     H_    0.464671 0.935924 0.857898 0.074144
H69   H     H_    0.464668 0.064074 0.357894 0.074108
H70   H     H_    0.043703 0.557454 0.372810 0.066019
H71   H     H_    0.043705 0.442547 0.872810 0.066024
H72   H     H_    0.543700 0.057455 0.372799 0.066026
H73   H     H_    0.543713 0.942551 0.872825 0.066007
H74   H     H_    0.017836 0.643143 0.137716 0.013881
H75   H     H_    0.017827 0.356846 0.637739 0.013910
H76   H     H_    0.517837 0.143141 0.137722 0.013880
H77   H     H_    0.848477 0.454531 0.518764 0.138355
H78   H     H_    0.517777 0.856818 0.638021 0.013774
H79   H     H_    0.028379 0.687653 0.945068 0.167024
H80   H     H_    0.028365 0.312344 0.444996 0.167057
H81   H     H_    0.528380 0.187652 0.945066 0.167030
H82   H     H_    0.528375 0.812365 0.445049 0.167147
H83   H     H_    0.985295 0.708232 0.986656 0.093606
H84   H     H_    0.985290 0.291757 0.486650 0.093570
H85   H     H_    0.485299 0.208233 0.986666 0.093602
H86   H     H_    0.485311 0.791744 0.486541 0.093506
H87   H     H_    0.908724 0.520473 0.266150 -0.011777
H88   H     H_    0.348475 0.045467 0.018758 0.138357
H89   H     H_    0.908725 0.479527 0.766153 -0.011768
H90   H     H_    0.408723 0.020473 0.266150 -0.011778
H91   H     H_    0.408726 0.979526 0.766149 -0.011762
H92   H     H_    0.916736 0.534446 0.066481 0.085986
H93   H     H_    0.916737 0.465554 0.566485 0.086002
H94   H     H_    0.416736 0.034446 0.066481 0.085985
H95   H     H_    0.416738 0.965554 0.566479 0.086009
H96   H     H_    0.870812 0.571651 0.170522 0.056944
H97   H     H_    0.870814 0.428348 0.670531 0.056964
H98   H     H_    0.370812 0.071651 0.170519 0.056943
H99   H     H_    0.348477 0.954531 0.518762 0.138353
H100  H     H_    0.370815 0.928348 0.670524 0.056977
H101  H     H_    0.963972 0.685668 0.730630 0.167266
H102  H     H_    0.963988 0.314281 0.230698 0.167085
H103  H     H_    0.463975 0.185670 0.730638 0.167265
H104  H     H_    0.463989 0.814260 0.230799 0.166948
H105  H     H_    0.022579 0.706713 0.137119 0.121977
H106  H     H_    0.022583 0.293285 0.637061 0.122015
H107  H     H_    0.522584 0.206711 0.137120 0.121982
H108  H     H_    0.522582 0.793277 0.637042 0.122034
H109  H     H_    0.744445 0.364608 0.870780 0.127917
H110  H     H_    0.102201 0.475529 0.947249 -0.024435
H111  H     H_    0.744444 0.635394 0.370728 0.127919
H112  H     H_    0.244442 0.864614 0.870822 0.127917
H113  H     H_    0.244443 0.135396 0.370723 0.127918
H114  H     H_    0.114132 0.753718 0.085654 0.117169
H115  H     H_    0.114132 0.246290 0.585554 0.117168
H116  H     H_    0.614135 0.253714 0.085628 0.117169
H117  H     H_    0.614132 0.746286 0.585581 0.117170
H118  H     H_    0.876532 0.253205 0.110650 0.116629
H119  H     H_    0.876528 0.746787 0.610706 0.116629
H120  H     H_    0.376529 0.753203 0.110597 0.116630
N1    N     N_R   0.855060 0.347681 0.936390 -0.429796
N2    N     N_1   0.816047 0.475402 0.846484 -0.238111
N3    N     N_1   0.316047 0.024599 0.346485 -0.238114
N4    N     N_1   0.316049 0.975400 0.846487 -0.238105
N5    N     N_1   0.145915 0.394336 0.068210 -0.247716
N6    N     N_1   0.145919 0.605663 0.568185 -0.247730
N7    N     N_1   0.645918 0.894337 0.068174 -0.247719
N8    N     N_1   0.645917 0.105664 0.568215 -0.247728
N9    N     N_1   0.175889 0.469420 0.400448 -0.261862
N10   N     N_1   0.175881 0.530586 0.900479 -0.261839
N11   N     N_1   0.675879 0.969412 0.400485 -0.261843
N12   N     N_R   0.855057 0.652317 0.436387 -0.429801
N13   N     N_1   0.675890 0.030578 0.900440 -0.261859
N14   N     N_1   0.845391 0.414071 0.232905 -0.268008
N15   N     N_1   0.845389 0.585928 0.732902 -0.268012
N16   N     N_1   0.345394 0.914069 0.232916 -0.268010
N17   N     N_1   0.345388 0.085927 0.732897 -0.268013
N18   N     N_R   0.355057 0.847683 0.936381 -0.429792
N19   N     N_R   0.355058 0.152317 0.436390 -0.429802
N20   N     N_R   0.135528 0.656023 0.214913 -0.424207
N21   N     N_R   0.135529 0.343977 0.714917 -0.424208
N22   N     N_R   0.635530 0.156022 0.214922 -0.424207
N23   N     N_R   0.635526 0.843975 0.714913 -0.424208
N24   N     N_1   0.816047 0.524598 0.346485 -0.238114
O1    O     O_2   0.072110 0.546320 0.923350 -0.466276
O2    O     O_3   0.971463 0.356810 0.479718 -0.559842
O3    O     O_3   0.471465 0.143190 0.979744 -0.559808
O4    O     O_3   0.471469 0.856810 0.479706 -0.559857
O5    O     O_3   0.958050 0.483830 0.034350 -0.495817
O6    O     O_3   0.958050 0.516170 0.534350 -0.495820
O7    O     O_3   0.458050 0.983830 0.034350 -0.495812
O8    O     O_3   0.458050 0.016170 0.534350 -0.495820
O9    O     O_2   0.809578 0.383440 0.853600 -0.590761
O10   O     O_2   0.809576 0.616560 0.353567 -0.590764
O11   O     O_2   0.309575 0.883445 0.853623 -0.590758
O12   O     O_2   0.072110 0.453680 0.423350 -0.466271
O13   O     O_2   0.309576 0.116561 0.353567 -0.590763
O14   O     O_2   0.093152 0.696881 0.166047 -0.626284
O15   O     O_2   0.093152 0.303124 0.665979 -0.626270
O16   O     O_2   0.593154 0.196879 0.166037 -0.626286
O17   O     O_2   0.593150 0.803120 0.666004 -0.626257
O18   O     O_2   0.897542 0.309297 0.022202 -0.623440
O19   O     O_2   0.897539 0.690697 0.522226 -0.623412
O20   O     O_2   0.397539 0.809296 0.022166 -0.623472
O21   O     O_2   0.397540 0.190697 0.522233 -0.623412
O22   O     O_2   0.181022 0.617641 0.254950 -0.583296
O23   O     O_2   0.572110 0.046320 0.923350 -0.466276
O24   O     O_2   0.181025 0.382356 0.755021 -0.583300
O25   O     O_2   0.681025 0.117641 0.254984 -0.583301
O26   O     O_2   0.681022 0.882355 0.754992 -0.583297
O27   O     O_3   0.042000 0.516250 0.155330 -0.494952
O28   O     O_3   0.042000 0.483750 0.655330 -0.494949
O29   O     O_3   0.542000 0.016250 0.155330 -0.494951
O30   O     O_3   0.542000 0.983750 0.655330 -0.494948
O31   O     O_3   0.012540 0.574900 0.645500 -0.465172
O32   O     O_3   0.012540 0.425100 0.145500 -0.465255
O33   O     O_3   0.512540 0.074900 0.645500 -0.465172
O34   O     O_2   0.572110 0.953680 0.423350 -0.466262
O35   O     O_3   0.512540 0.925100 0.145500 -0.465322
O36   O     O_2   0.077810 0.599971 0.738062 -0.477622
O37   O     O_2   0.077811 0.400030 0.238060 -0.477604
O38   O     O_2   0.577810 0.099971 0.738063 -0.477615
O39   O     O_2   0.577815 0.900034 0.238050 -0.477605
O40   O     O_3   0.116483 0.511920 0.113742 -0.622577
O41   O     O_3   0.116483 0.488080 0.613741 -0.622586
O42   O     O_3   0.616484 0.011920 0.113744 -0.622585
O43   O     O_3   0.616483 0.988081 0.613737 -0.622581
O44   O     O_3   0.023960 0.644096 0.701473 -0.561727
O45   O     O_3   0.886071 0.509136 0.583571 -0.630693
O46   O     O_3   0.023964 0.355903 0.201446 -0.561820
O47   O     O_3   0.523960 0.144096 0.701474 -0.561726
O48   O     O_3   0.523973 0.855903 0.201432 -0.561868
O49   O     O_2   0.928110 0.546600 0.766510 -0.454153
O50   O     O_2   0.928110 0.453400 0.266510 -0.454160
O51   O     O_2   0.428110 0.046600 0.766510 -0.454153
O52   O     O_2   0.428110 0.953400 0.266510 -0.454171
O53   O     O_3   0.987780 0.574950 0.044470 -0.467001
O54   O     O_3   0.987780 0.425050 0.544470 -0.466994
O55   O     O_3   0.487780 0.074950 0.044470 -0.467000
O56   O     O_3   0.886070 0.490864 0.083569 -0.630684
O57   O     O_3   0.487780 0.925050 0.544470 -0.466952
O58   O     O_2   0.920436 0.596788 0.951388 -0.476823
O59   O     O_2   0.920436 0.403213 0.451405 -0.476834
O60   O     O_2   0.420437 0.096789 0.951386 -0.476823
O61   O     O_2   0.420438 0.903210 0.451402 -0.476844
O62   O     O_3   0.386071 0.009135 0.583571 -0.630694
O63   O     O_3   0.386070 0.990864 0.083568 -0.630678
O64   O     O_3   0.971464 0.643189 0.979741 -0.559808
P1    P     P_3+3 0.075650 0.535480 0.098240 1.002129
P2    P     P_3+3 0.954292 0.393679 0.562999 0.968429
P3    P     P_3+3 0.454291 0.106320 0.062997 0.968461
P4    P     P_3+3 0.454294 0.893676 0.562998 0.968417
P5    P     P_3+3 0.043807 0.392153 0.123965 0.980622
P6    P     P_3+3 0.043805 0.607849 0.623970 0.980658
P7    P     P_3+3 0.543810 0.892156 0.123961 0.980602
P8    P     P_3+3 0.543805 0.107849 0.623971 0.980660
P9    P     P_3+3 0.075650 0.464520 0.598240 1.002129
P10   P     P_3+3 0.575650 0.035480 0.098240 1.002124
P11   P     P_3+3 0.575650 0.964520 0.598240 1.002143
P12   P     P_3+3 0.924520 0.535770 0.591580 0.993179
P13   P     P_3+3 0.924520 0.464230 0.091580 0.993164
P14   P     P_3+3 0.424520 0.035770 0.591580 0.993179
P15   P     P_3+3 0.424520 0.964230 0.091580 0.993153
P16   P     P_3+3 0.954290 0.606320 0.062997 0.968459

loop_
_geom_bond_atom_site_label_1
_geom_bond_atom_site_label_2
_ccdc_geom_bond_type
C168  C173  A    
C74   H30   S    
Ba2   O5    S    
C78   H35   S    
C170  C192  A    
C186  O22   D    
C168  C190  A    
C114  N19   S    
Ba4   P15   S    
C43   C124  A    
C37   C63   A    
C72   H28   S    
C146  C159  A    
C78   O44   S    
C81   H37   S    
C67   H88   S    
C135  H76   S    
C181  H79   S    
C83   C120  A    
O41   P9    S    
C180  C189  A    
C16   C145  D    
O5    P13   S    
C33   C38   A    
C5    C9    S    
C103  C109  S    
C13   C57   S    
C7    C11   S    
C95   N8    T    
Ba1   P12   S    
C51   H3    S    
C35   C137  S    
C74   C92   S    
C40   C66   S    
O29   P10   S    
C106  C141  D    
C116  H41   S    
C183  H80   S    
C66   H77   S    
O3    P3    S    
O4    P4    S    
C84   N12   Am   
O34   P11   D    
O39   P7    D    
C83   O9    D    
C186  N20   Am   
C60   H11   S    
C5    C22   D    
Ba3   O51   S    
C161  C165  A    
C138  O18   D    
C59   C179  A    
C146  C155  A    
C3    O17   D    
C111  C182  D    
C163  C167  A    
C77   C95   S    
C102  N15   T    
C41   H90   S    
C135  O3    S    
C104  N17   T    
C171  O21   D    
C70   O40   S    
C61   H17   S    
C177  C186  A    
C57   C140  S    
C133  H74   S    
C185  H86   S    
C49   H119  S    
C156  C174  A    
C174  C178  A    
C39   H87   S    
C45   H54   S    
C136  H25   S    
C88   N2    T    
C27   C44   A    
C89   N3    T    
C6    C10   S    
O51   P14   D    
C181  H105  S    
C44   C125  A    
Ba4   P11   S    
C136  O4    S    
C11   C145  S    
C166  C170  A    
C71   H2    S    
O8    P14   S    
C82   H55   S    
C137  H65   S    
C75   C93   S    
C34   C153  A    
O53   P16   S    
C101  P15   S    
Ba4   O35   S    
C67   C89   S    
C86   O13   D    
C15   C144  D    
Ba4   O52   S    
C31   C36   A    
C24   C114  D    
C1    C78   S    
C125  H111  S    
C185  H108  S    
C18   H14   S    
Ba2   P13   S    
C42   H95   S    
Ba1   O1    S    
C112  N12   S    
O30   P11   S    
C127  H64   S    
C121  C125  A    
C28   C146  A    
C54   H6    S    
C133  H21   S    
Ba4   O57   S    
C167  H117  S    
C134  O2    S    
Ba3   O23   S    
C71   C75   S    
C48   C61   A    
C176  C180  A    
C52   H4    S    
C6    C23   D    
C85   O11   D    
C12   C17   D    
C41   C67   S    
C7    H47   S    
C3    N23   Am   
C5    H45   S    
O54   P2    S    
C40   H89   S    
C9    P5    S    
C129  C138  A    
C28   C32   A    
C101  C109  D    
O60   P3    D    
C55   C154  A    
Ba1   O49   S    
C189  O26   D    
C130  C149  A    
C68   C141  S    
C44   H53   S    
Ba1   O5    S    
C187  O24   D    
C33   C119  A    
C119  C123  A    
C56   H8    S    
C59   H10   S    
C99   N13   T    
C128  H113  S    
C157  C175  A    
C106  C110  D    
C158  C176  A    
C148  C157  A    
C39   C65   S    
C3    C172  A    
C136  C185  S    
C80   H36   S    
C181  H83   S    
O42   P10   S    
C53   C152  A    
C40   H93   S    
C26   C30   A    
C151  C155  A    
C162  H50   S    
C152  C156  A    
C14   C143  D    
C29   C147  A    
C79   C137  D    
C184  H107  S    
O56   P13   S    
C147  C161  A    
C76   C98   S    
C87   N24   T    
Ba4   O8    S    
C117  C121  A    
C84   C121  A    
C26   C148  A    
C34   C61   A    
C4    C8    S    
C96   N9    T    
O33   P8    S    
C1    H61   S    
C103  N16   T    
C50   H120  S    
C98   N11   T    
C2    C46   S    
C47   H56   S    
Ba2   O50   S    
C109  C113  S    
C94   N7    T    
C25   N23   S    
C18   C22   S    
C9    C143  S    
Ba3   Ba4   S    
O43   P11   S    
C108  C112  S    
C27   C150  A    
C39   H92   S    
C77   C99   S    
C56   C177  A    
Ba2   O6    S    
C17   C21   S    
C97   N10   T    
O35   P7    S    
C14   C18   D    
Ba2   O32   S    
C150  C158  A    
C135  C184  S    
C72   C76   S    
C54   C153  A    
C93   N6    T    
Ba3   P10   S    
C148  C162  A    
C192  O16   D    
C162  C166  A    
C12   P1    S    
C13   C113  D    
C185  H82   S    
C80   C105  S    
C81   H44   S    
C159  C164  A    
C79   P13   S    
Ba4   O34   S    
C169  C174  A    
C173  C177  A    
C50   C131  A    
C90   C108  D    
C191  N21   Am   
O46   P5    S    
C164  H114  S    
O1    P1    D    
Ba2   O27   S    
C46   P16   S    
C60   C180  A    
C135  H23   S    
C172  C176  A    
C105  H102  S    
C53   H5    S    
C165  C169  A    
C75   C97   S    
C141  H69   S    
C65   C87   S    
C42   C69   S    
C86   N19   Am   
Ba3   O8    S    
C37   C151  A    
O40   P1    S    
C73   H29   S    
C190  N20   Am   
C192  N22   Am   
C179  C188  A    
C190  O14   D    
C101  C140  D    
C51   C64   A    
C38   C152  A    
C188  O25   D    
C82   H38   S    
C48   H118  S    
C69   H100  S    
C42   H91   S    
C17   H12   S    
C36   C154  A    
C22   N21   S    
C122  C126  A    
C127  H42   S    
C51   C132  A    
O48   P7    S    
C66   H97   S    
C104  C110  S    
C105  H62   S    
C1    H101  S    
C20   C25   S    
C35   C182  S    
C63   H19   S    
C149  O19   D    
C86   C123  A    
C117  C130  A    
C70   H110  S    
O44   P6    S    
C120  C124  A    
C68   P3    S    
Ba2   O12   S    
O12   P9    D    
C14   P9    S    
C36   C62   A    
C81   O47   S    
C4    C21   D    
C82   O48   S    
C32   C37   A    
C24   C68   S    
C91   N4    T    
C187  N21   Am   
Ba2   P9    S    
O27   P1    S    
C80   O46   S    
C43   H52   S    
C133  C181  S    
C85   C122  A    
C31   C117  A    
C78   H1    S    
C165  H115  S    
C102  C108  S    
Ba1   O31   S    
C166  H116  S    
C183  H84   S    
C16   P11   S    
C29   C33   A    
C150  C163  A    
C52   C56   A    
C62   H18   S    
C116  H103  S    
C58   C178  A    
C191  O15   D    
C83   N1    Am   
C106  P14   S    
C76   H32   S    
C80   H33   S    
C35   P2    S    
C182  H57   S    
C77   H34   S    
Ba1   O28   S    
C74   C96   S    
C79   C107  D    
C139  H67   S    
C178  C187  A    
C111  N1    S    
C153  C157  A    
C113  N18   S    
C45   C126  A    
C30   C115  A    
C184  H85   S    
C124  H109  S    
Ba3   P14   S    
C76   C94   S    
C66   C88   S    
C49   C130  A    
C85   N18   Am   
C100  N14   T    
C47   C128  A    
C65   H66   S    
C29   C47   A    
C116  H63   S    
C70   H26   S    
C73   O43   S    
C65   H96   S    
O49   P12   D    
C144  H72   S    
C145  H73   S    
C184  H81   S    
C19   H15   S    
C163  H51   S    
C64   H20   S    
C118  C131  A    
O61   P4    D    
C55   H7    S    
Ba4   O29   S    
C164  C168  A    
C70   C74   S    
O45   P12   S    
C72   H13   S    
C131  C160  A    
C15   C19   D    
C6    H46   S    
C160  O20   D    
C183  H106  S    
C20   H16   S    
C39   O56   S    
C160  N18   Am   
C115  C120  A    
O62   P14   S    
C55   C60   A    
C115  C129  A    
O37   P5    D    
C90   C139  D    
O47   P8    S    
O2    P2    S    
O58   P16   D    
C82   C127  S    
Ba3   O55   S    
C8    C142  S    
C10   C144  S    
Ba1   O53   S    
O50   P13   D    
C2    H58   S    
C12   C142  D    
Ba1   Ba2   S    
C136  H78   S    
C142  H70   S    
C123  C128  A    
C90   P12   S    
C10   P8    S    
C41   O63   S    
C15   P10   S    
C23   N22   S    
C16   C20   D    
C8    P6    S    
Ba3   O30   S    
C169  C191  A    
C41   H94   S    
C73   C77   S    
C57   P4    S    
C58   H9    S    
C171  N19   Am   
C132  C171  A    
C71   H27   S    
C38   C64   A    
C48   C129  A    
O7    P15   S    
C42   O62   S    
C155  C173  A    
C52   C151  A    
C75   H31   S    
C175  C179  A    
C28   C45   A    
C189  N23   Am   
O28   P9    S    
O64   P16   S    
C26   C43   A    
C161  H49   S    
O59   P2    D    
C143  H71   S    
C50   C63   A    
C67   H98   S    
Ba2   O54   S    
C118  C122  A    
C81   C116  S    
C32   C118  A    
Ba1   O6    S    
C21   N20   S    
C72   O42   S    
C133  O64   S    
C2    C112  D    
O36   P6    D    
C159  H48   S    
C167  C172  A    
C49   C62   A    
C7    C25   D    
O32   P5    S    
C110  C114  S    
C19   C23   S    
O31   P6    S    
C53   C58   A    
O23   P10   D    
C46   C139  S    
Ba3   O7    S    
C4    H43   S    
C54   C59   A    
C13   H59   S    
Ba3   O33   S    
C30   C34   A    
C138  N1    Am   
O38   P8    D    
C24   H60   S    
C100  C107  S    
C73   H24   S    
Ba1   P1    S    
C11   P7    S    
C119  C132  A    
C69   H99   S    
Ba4   O7    S    
C147  C156  A    
C134  C183  S    
C149  N12   Am   
O63   P15   S    
C188  N22   Am   
C126  H112  S    
O55   P3    S    
C92   N5    T    
C27   C31   A    
O6    P12   S    
C127  H104  S    
C84   O10   D    
C154  C158  A    
C105  H40   S    
C134  H22   S    
C1    H39   S    
C134  H75   S    
C69   C91   S    
C107  C111  S    
C40   O45   S    
C170  C175  A    
O57   P4    S    
C71   O41   S    
O52   P15   D    
C140  H68   S    
