data_mof_unit_40250.cif
_audit_creation_date              2012-12-11T14:49:48-0500
_audit_creation_method            fapswitch 2.2
_symmetry_space_group_name_H-M    P1
_symmetry_Int_Tables_number       1
_space_group_crystal_system       triclinic
_cell_length_a                    16.319348
_cell_length_b                    7.09184
_cell_length_c                    17.414352
_cell_angle_alpha                 88.827519
_cell_angle_beta                  100.572745
_cell_angle_gamma                 90.837292
_cell_volume                      1980.6838898

loop_
_atom_site_label
_atom_site_type_symbol
_atom_type_description
_atom_site_fract_x
_atom_site_fract_y
_atom_site_fract_z
_atom_type_partial_charge
O1    O     O_R   0.579510 0.506290 0.439030 -0.537061
O2    O     O_R   0.420490 0.006290 0.560970 -0.532054
O3    O     O_R   0.412540 0.170090 0.405290 -0.538832
O4    O     O_R   0.587460 0.670090 0.594710 -0.541450
C1    C     C_R   0.382328 0.346169 0.384940 0.693623
C2    C     C_R   0.618315 0.845134 0.614406 0.695328
O5    O     O_R   0.578390 0.176230 0.429330 -0.522209
O6    O     O_R   0.421610 0.676230 0.570670 -0.533436
O7    O     O_R   0.587530 0.011250 0.585190 -0.532681
O8    O     O_R   0.412470 0.511250 0.414810 -0.529509
C3    C     C_R   0.606017 0.347203 0.415112 0.722453
C4    C     C_R   0.395436 0.842656 0.587155 0.727450
O9    O     O_3   0.502800 0.340940 0.551110 -0.371486
O10   O     O_3   0.497200 0.840940 0.448890 -0.365129
V1    V     V_3+5 0.499480 0.064020 0.490520 1.480990
V2    V     V_3+5 0.500520 0.564020 0.509480 1.468389
C5    C     C_R   0.167972 0.919470 0.860421 -0.108604
C6    C     C_R   0.831435 0.405046 0.139127 -0.112616
C7    C     C_R   0.331622 0.840984 0.639046 -0.096083
C8    C     C_R   0.671509 0.363133 0.366118 -0.079379
C9    C     C_R   0.206261 0.697807 0.676566 0.179284
C10   C     C_R   0.815994 0.432050 0.352545 0.187714
C11   C     C_R   0.268694 0.700991 0.630792 -0.140176
C12   C     C_R   0.753217 0.420208 0.398333 -0.142012
C13   C     C_R   0.336827 0.965694 0.701318 -0.201360
C14   C     C_R   0.651841 0.329043 0.286081 -0.204672
C15   C     C_R   0.280292 0.949438 0.753745 0.091795
C16   C     C_R   0.712289 0.354457 0.238455 0.080450
C17   C     C_R   0.211183 0.823308 0.739023 0.108713
C18   C     C_R   0.796063 0.399776 0.271234 0.098867
C19   C     C_R   0.152371 0.819479 0.790039 -0.214524
C20   C     C_R   0.855896 0.416390 0.221156 -0.229658
C21   C     C_R   0.245273 0.013551 0.879967 0.194741
C22   C     C_R   0.745604 0.382161 0.108722 0.202561
C23   C     C_R   0.296743 0.042878 0.824800 -0.153324
C24   C     C_R   0.688294 0.346233 0.157683 -0.146963
H1    H     H_    0.095734 0.735930 0.776842 0.148517
H2    H     H_    0.921023 0.442073 0.244908 0.137658
H3    H     H_    0.354808 0.120622 0.841164 0.154445
H4    H     H_    0.623117 0.324800 0.132200 0.158145
H5    H     H_    0.268269 0.590741 0.589176 0.178539
H6    H     H_    0.768593 0.454309 0.459606 0.161618
H7    H     H_    0.388109 0.066290 0.712135 0.126769
H8    H     H_    0.588475 0.289804 0.260302 0.117055
C25   C     C_3   0.735914 0.844667 0.832497 0.074534
C26   C     C_3   0.266588 0.362557 0.165278 0.068473
H9    H     H_    0.747439 0.698029 0.853451 0.163364
H10   H     H_    0.255875 0.219797 0.141455 0.164504
C27   C     C_3   0.660605 0.834544 0.762451 -0.081152
C28   C     C_3   0.341107 0.346294 0.236256 -0.085533
H11   H     H_    0.634674 0.688169 0.762092 0.166641
H12   H     H_    0.365746 0.200385 0.236936 0.165862
H13   H     H_    0.857029 0.625040 0.781314 0.197538
H14   H     H_    0.145342 0.126096 0.218798 0.198848
H15   H     H_    0.737480 0.575972 0.686658 0.184167
H16   H     H_    0.263159 0.079014 0.314940 0.188444
C29   C     C_3   0.838610 0.757781 0.748986 -0.410995
C30   C     C_3   0.163585 0.257935 0.249929 -0.412557
C31   C     C_3   0.804243 0.100807 0.755080 0.248232
C32   C     C_3   0.196739 0.604394 0.241330 0.259061
C33   C     C_3   0.818726 0.912653 0.805923 -0.026839
C34   C     C_3   0.183256 0.417155 0.192036 -0.027174
C35   C     C_3   0.692004 0.865977 0.683263 -0.012844
C36   C     C_3   0.309403 0.370854 0.315203 -0.015373
C37   C     C_3   0.762405 0.720834 0.681545 -0.351190
C38   C     C_3   0.238729 0.223214 0.318090 -0.348331
C39   C     C_3   0.734699 0.066343 0.680687 0.017060
C40   C     C_3   0.267842 0.571022 0.315024 0.021444
H17   H     H_    0.686435 0.175772 0.678420 0.144764
H18   H     H_    0.317193 0.679829 0.314413 0.145730
H19   H     H_    0.894090 0.796873 0.723638 0.177554
H20   H     H_    0.107524 0.290937 0.274330 0.174327
H21   H     H_    0.783563 0.726053 0.624492 0.199320
H22   H     H_    0.216954 0.228440 0.374810 0.202961
O11   O     O_R   0.087500 0.266000 0.085220 -0.538275
O12   O     O_R   0.912500 0.766000 0.914780 -0.540383
O13   O     O_R   0.921600 0.589950 0.070670 -0.533172
O14   O     O_R   0.078400 0.089950 0.929330 -0.535892
C41   C     C_R   0.894767 0.419802 0.086548 0.732493
C42   C     C_R   0.105264 0.923054 0.913457 0.735682
O15   O     O_R   0.087460 0.596020 0.094710 -0.520416
O16   O     O_R   0.912540 0.096020 0.905290 -0.517678
O17   O     O_R   0.079520 0.760970 0.939020 -0.523473
O18   O     O_R   0.920480 0.260970 0.060980 -0.523074
C43   C     C_R   0.113168 0.426735 0.119906 0.716119
C44   C     C_R   0.888210 0.926563 0.878830 0.718519
O19   O     O_3   0.997180 0.425140 0.948910 -0.369291
O20   O     O_3   0.002820 0.925140 0.051090 -0.367605
V3    V     V_3+5 0.000520 0.702080 0.009480 1.537168
V4    V     V_3+5 0.999480 0.202080 0.990520 1.544077
C45   C     C_3   0.885730 0.185616 0.733412 -0.686888
H23   H     H_    0.933066 0.222411 0.784976 0.216717
H24   H     H_    0.915788 0.090247 0.697710 0.226871
H25   H     H_    0.871997 0.319671 0.699681 0.237358
C46   C     C_3   0.114600 0.677152 0.263724 -0.694589
H26   H     H_    0.064966 0.706930 0.212918 0.212798
H27   H     H_    0.087818 0.577895 0.302499 0.229744
H28   H     H_    0.126415 0.813294 0.294451 0.236288
I1    I     I_    0.760606 0.319000 0.818963 -0.466141
I2    I     I_    0.237115 0.837901 0.176943 -0.458733
I3    I     I_    0.774032 0.113743 0.567995 -0.440732
I4    I     I_    0.231184 0.627320 0.426293 -0.431600
I5    I     I_    0.304461 0.035465 0.996468 -0.295717
I6    I     I_    0.690992 0.441107 0.992963 -0.294430
I7    I     I_    0.113008 0.483436 0.653071 -0.344146
I8    I     I_    0.937594 0.509639 0.410404 -0.312169
I9    I     I_    0.711170 0.944666 0.943038 -0.293159
I10   I     I_    0.292939 0.501709 0.058616 -0.290988
C47   C     C_3   0.586926 0.961581 0.771209 -0.681182
H29   H     H_    0.605028 0.112160 0.775728 0.249607
H30   H     H_    0.534902 0.945877 0.720979 0.166720
H31   H     H_    0.561132 0.918000 0.823593 0.248604
C48   C     C_3   0.415750 0.476726 0.227992 -0.689272
H32   H     H_    0.397281 0.626295 0.219612 0.253958
H33   H     H_    0.466071 0.465685 0.279974 0.172878
H34   H     H_    0.443540 0.433469 0.177566 0.240679

loop_
_geom_bond_atom_site_label_1
_geom_bond_atom_site_label_2
_ccdc_geom_bond_type
C30   C34   S    
C35   C37   S    
C27   C35   S    
C37   H21   S    
C15   C17   A    
C12   H6    S    
C23   H3    S    
C46   H26   S    
O1    C3    A    
O2    C4    A    
C13   H7    S    
C2    O7    A    
C46   H28   S    
C14   H8    S    
O14   V4    S    
O5    C3    A    
O13   V3    S    
C5    C21   A    
C26   C34   S    
C28   C36   S    
C36   C40   S    
C40   I4    S    
C47   H30   S    
C41   O18   A    
O14   C42   A    
C38   H22   S    
C31   I1    S    
C32   C34   S    
O11   V4    S    
C31   C39   S    
O11   C43   A    
C8    C12   A    
C6    C41   S    
C27   H11   S    
C26   I10   S    
C28   H12   S    
C20   H2    S    
O12   V3    S    
O3    C1    A    
C48   H34   S    
O15   V3    S    
O5    V1    S    
O6    V2    S    
O18   V4    S    
C42   O17   A    
H15   C37   S    
C30   C38   S    
C26   H10   S    
C25   H9    S    
O17   V3    S    
C34   C43   S    
C35   C39   S    
C3    C8    S    
C31   C33   S    
C24   H4    S    
O4    C2    A    
C47   H31   S    
C45   H23   S    
H13   C29   S    
C15   C23   A    
C10   I8    S    
C9    C17   A    
C5    C42   S    
C22   I6    S    
C19   H1    S    
C1    C36   S    
C39   H17   S    
C36   C38   S    
C2    C35   S    
O4    V2    S    
C7    C11   A    
C45   H24   S    
C25   C27   S    
O6    C4    A    
O13   C41   A    
O1    V2    S    
C31   C45   S    
C29   H19   S    
O2    V1    S    
C6    C22   A    
C32   C40   S    
O20   V4    S    
C9    C11   A    
C5    C19   A    
C10   C12   A    
O19   V4    S    
C6    C20   A    
O12   C44   A    
O3    V1    S    
C39   I3    S    
C27   C47   S    
C48   H32   S    
H14   C30   S    
C10   C18   A    
C21   I5    S    
C29   C37   S    
C32   I2    S    
C11   H5    S    
C46   H27   S    
C29   C33   S    
C13   C15   A    
C26   C28   S    
C14   C16   A    
O16   V4    S    
C28   C48   S    
C16   C18   A    
O7    V1    S    
C1    O8    A    
C17   C19   A    
O16   C44   A    
C47   H29   S    
C45   H25   S    
C18   C20   A    
C30   H20   S    
C8    C14   A    
H16   C38   S    
C4    C7    S    
C25   C33   S    
C21   C23   A    
C22   C24   A    
C7    C13   A    
O15   C43   A    
C33   C44   S    
C32   C46   S    
O20   V3    S    
C16   C24   A    
C40   H18   S    
O9    V2    S    
O19   V3    S    
O10   V1    S    
O8    V2    S    
C9    I7    S    
C25   I9    S    
C48   H33   S    
