data_mof_unit_21054.cif
_audit_creation_date              2012-12-10T18:34:11-0500
_audit_creation_method            fapswitch 2.2
_symmetry_space_group_name_H-M    P1
_symmetry_Int_Tables_number       1
_space_group_crystal_system       triclinic
_cell_length_a                    11.033092
_cell_length_b                    15.071749
_cell_length_c                    13.918346
_cell_angle_alpha                 89.936735
_cell_angle_beta                  102.723914
_cell_angle_gamma                 90.874537
_cell_volume                      2257.34806258

loop_
_atom_site_label
_atom_site_type_symbol
_atom_type_description
_atom_site_fract_x
_atom_site_fract_y
_atom_site_fract_z
_atom_type_partial_charge
C1    C     C_R   0.499914 0.330022 0.499954 0.815273
C2    C     C_R   0.499430 0.670042 0.499817 0.815097
C3    C     C_R   0.481292 0.048616 0.494694 0.060894
C4    C     C_R   0.481655 0.951263 0.495943 0.069962
C5    C     C_R   0.595855 0.539862 0.124234 -0.382939
C6    C     C_R   0.442031 0.433986 0.883113 -0.412391
C7    C     C_R   0.592024 0.543771 0.224842 0.533398
C8    C     C_R   0.434688 0.436520 0.780270 0.536282
C9    C     C_R   0.405461 0.458324 0.192917 0.445157
C10   C     C_R   0.564778 0.564958 0.801184 0.445617
C11   C     C_R   0.395700 0.467126 0.089910 0.223473
C12   C     C_R   0.553883 0.573053 0.900596 0.223563
C13   C     C_R   0.496003 0.503741 0.053908 -0.024364
C14   C     C_R   0.497386 0.503973 0.944891 -0.006019
C15   C     C_R   0.262750 0.500931 0.459979 0.853316
C16   C     C_R   0.737332 0.500786 0.539909 0.857789
C17   C     C_2   0.127657 0.502169 0.437006 -0.355018
C18   C     C_2   0.872520 0.504518 0.562177 -0.379999
C19   C     C_2   0.067137 0.511831 0.509355 -0.179187
C20   C     C_2   0.932525 0.506821 0.488656 -0.125835
C21   C     C_R   0.412764 0.096459 0.551531 0.166899
C22   C     C_R   0.422205 0.901854 0.411986 0.178611
C23   C     C_R   0.422860 0.188686 0.554369 -0.206705
C24   C     C_R   0.432743 0.809857 0.413446 -0.232746
C25   C     C_R   0.495106 0.233546 0.498752 -0.118857
C26   C     C_R   0.494830 0.766565 0.498531 -0.122247
C27   C     C_R   0.560368 0.186412 0.440631 -0.322613
C28   C     C_R   0.549032 0.815226 0.582843 -0.330460
C29   C     C_R   0.554432 0.093395 0.438168 0.435523
C30   C     C_R   0.547105 0.908487 0.581470 0.439098
Cu1   Cu    Cu3+1 0.500000 0.499990 0.596430 1.001402
Cu2   Cu    Cu3+1 0.500000 0.500010 0.403570 0.987822
H1    H     H_    0.882361 0.503705 0.412152 0.216580
H2    H     H_    0.117146 0.521762 0.585061 0.182160
H3    H     H_    0.923159 0.506377 0.638617 0.145462
H4    H     H_    0.077447 0.493649 0.361005 0.166783
H5    H     H_    0.372276 0.225817 0.598712 0.200351
H6    H     H_    0.388292 0.771613 0.348990 0.157458
H7    H     H_    0.619109 0.222150 0.400450 0.145630
H8    H     H_    0.593207 0.780161 0.648762 0.192505
H9    H     H_    0.677296 0.565827 0.102164 0.225149
H10   H     H_    0.403828 0.377089 0.914073 0.212514
N1    N     N_R   0.500000 0.500020 0.258690 -0.268433
N2    N     N_R   0.500000 0.499980 0.741310 -0.259883
O1    O     O_R   0.500010 0.371450 0.581440 -0.531106
O2    O     O_R   0.499990 0.628550 0.418560 -0.594844
O3    O     O_R   0.500010 0.371460 0.418560 -0.582099
O4    O     O_R   0.499990 0.628540 0.581440 -0.534830
O5    O     O_R   0.320690 0.500000 0.551510 -0.569763
O6    O     O_R   0.679310 0.500000 0.448490 -0.536255
O7    O     O_R   0.320690 0.500010 0.388630 -0.531274
O8    O     O_R   0.679310 0.499990 0.611370 -0.575120
O9    O     O_3   0.287428 0.439392 0.025963 -0.587611
C31   C     C_3   0.207225 0.512430 0.005670 0.113979
H11   H     H_    0.248590 0.565711 0.966845 0.122803
H12   H     H_    0.186924 0.539890 0.074709 0.151488
C32   C     C_3   0.084800 0.482403 0.939406 -0.824865
H13   H     H_    0.040892 0.429373 0.976262 0.257044
H14   H     H_    0.020747 0.539313 0.923755 0.188255
H15   H     H_    0.100937 0.456565 0.868734 0.229405
O10   O     O_3   0.601675 0.647984 0.953604 -0.590664
C33   C     C_3   0.509946 0.713869 0.937346 0.102284
H16   H     H_    0.430393 0.693499 0.970141 0.123741
H17   H     H_    0.475468 0.727210 0.857212 0.154705
C34   C     C_3   0.565862 0.799816 0.986197 -0.803584
H18   H     H_    0.644527 0.822198 0.953773 0.250599
H19   H     H_    0.494325 0.852118 0.974522 0.198104
H20   H     H_    0.600169 0.789636 0.066515 0.243113
C35   C     C_3   0.327954 0.052544 0.609468 -0.818398
H21   H     H_    0.318645 0.979827 0.597788 0.230356
H22   H     H_    0.364003 0.065469 0.689248 0.248671
H23   H     H_    0.233487 0.080634 0.586879 0.213546
C36   C     C_3   0.343751 0.943632 0.321135 -0.874449
H24   H     H_    0.334332 0.016288 0.328129 0.220192
H25   H     H_    0.384842 0.930464 0.256724 0.231734
H26   H     H_    0.248701 0.913976 0.306653 0.229189
O11   O     O_3   0.628214 0.044076 0.389650 -0.572246
C37   C     C_3   0.612726 0.070779 0.290359 0.071954
H27   H     H_    0.670247 0.131038 0.285235 0.142383
H28   H     H_    0.513585 0.084118 0.255586 0.127834
C38   C     C_3   0.656800 0.996942 0.232388 -0.794253
H29   H     H_    0.602920 0.934862 0.237067 0.242983
H30   H     H_    0.643784 0.016393 0.153852 0.197662
H31   H     H_    0.756870 0.984412 0.262642 0.250059
O12   O     O_3   0.598570 0.960671 0.663453 -0.575309
C39   C     C_3   0.710365 0.926173 0.719485 0.062316
H32   H     H_    0.769909 0.898607 0.671866 0.145003
H33   H     H_    0.689227 0.874310 0.770502 0.153097
C40   C     C_3   0.783385 0.000405 0.781360 -0.774920
H34   H     H_    0.727731 0.028653 0.831112 0.249347
H35   H     H_    0.871122 0.974074 0.826558 0.192688
H36   H     H_    0.806156 0.053697 0.732734 0.254200
O13   O     O_3   0.686209 0.587356 0.290524 -0.562102
C41   C     C_3   0.680253 0.680253 0.274516 0.100600
H37   H     H_    0.672977 0.712874 0.344467 0.178416
H38   H     H_    0.598703 0.702447 0.217315 0.113951
C42   C     C_3   0.799553 0.713730 0.247911 -0.844226
H39   H     H_    0.797837 0.787178 0.241445 0.211987
H40   H     H_    0.881136 0.694717 0.306075 0.256426
H41   H     H_    0.808777 0.685138 0.176506 0.251348
O14   O     O_3   0.368057 0.371881 0.718947 -0.549182
C43   C     C_3   0.242591 0.370460 0.727707 0.067251
H42   H     H_    0.204505 0.438696 0.724548 0.125356
H43   H     H_    0.233318 0.338545 0.797807 0.153259
C44   C     C_3   0.163843 0.316511 0.643700 -0.803189
H44   H     H_    0.185996 0.245058 0.653821 0.228924
H45   H     H_    0.063798 0.324896 0.642931 0.211226
H46   H     H_    0.181597 0.338907 0.571987 0.258084
O15   O     O_3   0.313395 0.413470 0.227163 -0.534743
C45   C     C_3   0.326087 0.321244 0.214803 0.111375
H47   H     H_    0.423234 0.299546 0.244864 0.124300
H48   H     H_    0.298683 0.302470 0.135652 0.165160
C46   C     C_3   0.240972 0.271379 0.269399 -0.784579
H49   H     H_    0.253275 0.198767 0.263116 0.188637
H50   H     H_    0.263381 0.290171 0.348514 0.247220
H51   H     H_    0.142551 0.287673 0.237280 0.242849
O16   O     O_3   0.633470 0.627244 0.762133 -0.548549
C47   C     C_3   0.761427 0.613246 0.800658 0.106550
H52   H     H_    0.786998 0.543414 0.789198 0.137777
H53   H     H_    0.787679 0.628650 0.880723 0.169799
C48   C     C_3   0.837215 0.674365 0.748621 -0.837151
H54   H     H_    0.823187 0.744485 0.767084 0.226725
H55   H     H_    0.937478 0.659125 0.772759 0.197939
H56   H     H_    0.808229 0.665392 0.667602 0.255345

loop_
_geom_bond_atom_site_label_1
_geom_bond_atom_site_label_2
_ccdc_geom_bond_type
O13   C41   S    
C27   C29   A    
C36   H24   S    
C19   C20   S    
Cu1   O8    S    
C42   H41   S    
C38   H29   S    
O11   C37   S    
C2    O2    A    
C44   H45   S    
O14   C43   S    
C24   C26   A    
C37   H28   S    
C32   H14   S    
C28   H8    S    
C43   C44   S    
C35   H22   S    
C3    C29   A    
C47   H52   S    
C48   H56   S    
C33   H17   S    
C38   H30   S    
C45   H47   S    
C27   H7    S    
C34   H19   S    
C24   H6    S    
C17   H4    S    
C7    N1    A    
C40   H35   S    
C8    O14   S    
C5    C13   A    
O10   C33   S    
C11   O9    S    
C46   H51   S    
C15   O5    A    
C13   C14   S    
C1    C25   S    
C36   H25   S    
C35   H21   S    
Cu1   O5    S    
C42   H40   S    
C42   H39   S    
C47   H53   S    
C9    O15   S    
C7    O13   S    
C44   H46   S    
C31   H12   S    
C9    N1    A    
Cu1   N2    S    
C10   N2    A    
C43   H42   S    
C16   O8    A    
C5    C7    A    
C37   H27   S    
C1    O3    A    
C32   H15   S    
C6    C8    A    
C41   C42   S    
C2    O4    A    
O12   C39   S    
C39   C40   S    
C21   C35   S    
C30   O12   S    
C47   C48   S    
C35   H23   S    
C43   H43   S    
Cu2   O7    S    
C33   H16   S    
C6    C14   A    
C4    C22   A    
Cu1   Cu2   S    
C34   H20   S    
C2    C26   S    
C40   H36   S    
C41   H38   S    
C9    C11   A    
C45   C46   S    
Cu2   O6    S    
C48   H54   S    
C10   C12   A    
C20   H1    S    
C12   C14   A    
C15   O7    A    
Cu1   O4    S    
C21   C23   A    
Cu1   O1    S    
Cu2   O3    S    
C22   C24   A    
C3    C21   A    
C3    C4    S    
C38   H31   S    
C46   H49   S    
C18   H3    S    
C15   C17   S    
C5    H9    S    
C31   H11   S    
C33   C34   S    
C39   H32   S    
Cu2   O2    S    
C8    N2    A    
C16   O6    A    
C19   H2    S    
C18   C20   D    
O9    C31   S    
C25   C27   A    
C44   H44   S    
C26   C28   A    
C28   C30   A    
C10   O16   S    
C23   H5    S    
O16   C47   S    
C12   O10   S    
C11   C13   A    
C37   C38   S    
C1    O1    A    
C32   H13   S    
C17   C19   D    
Cu2   N1    S    
C39   H33   S    
C23   C25   A    
C41   H37   S    
C45   H48   S    
C48   H55   S    
C29   O11   S    
C36   H26   S    
C16   C18   S    
C34   H18   S    
C6    H10   S    
C22   C36   S    
C40   H34   S    
O15   C45   S    
C4    C30   A    
C46   H50   S    
C31   C32   S    
