data_mof_unit_42376.cif
_audit_creation_date              2012-12-10T17:44:23-0500
_audit_creation_method            fapswitch 2.2
_symmetry_space_group_name_H-M    P1
_symmetry_Int_Tables_number       1
_space_group_crystal_system       triclinic
_cell_length_a                    13.806289
_cell_length_b                    15.005209
_cell_length_c                    17.199425
_cell_angle_alpha                 88.270927
_cell_angle_beta                  86.391744
_cell_angle_gamma                 91.394601
_cell_volume                      3553.22833608

loop_
_atom_site_label
_atom_site_type_symbol
_atom_type_description
_atom_site_fract_x
_atom_site_fract_y
_atom_site_fract_z
_atom_type_partial_charge
C1    C     C_R   0.500870 0.671089 0.499283 0.798530
C2    C     C_R   0.499147 0.328900 0.499611 0.811137
C3    C     C_R   0.548663 0.185672 0.554794 -0.246090
C4    C     C_R   0.449937 0.813791 0.443273 -0.247024
C5    C     C_R   0.497708 0.232302 0.499881 -0.065218
C6    C     C_R   0.502154 0.767619 0.497836 -0.057322
C7    C     C_R   0.447049 0.187113 0.444896 -0.257104
C8    C     C_R   0.553826 0.813158 0.551838 -0.259822
C9    C     C_R   0.448166 0.094249 0.443740 0.077807
C10   C     C_R   0.551695 0.905767 0.553393 0.074873
C11   C     C_R   0.498897 0.046528 0.499573 0.018992
C12   C     C_R   0.500307 0.953291 0.497869 0.019953
C13   C     C_R   0.548179 0.092298 0.556982 0.042549
C14   C     C_R   0.450612 0.907338 0.440740 0.044102
C15   C     C_R   0.400498 0.049119 0.386636 -0.241988
C16   C     C_R   0.599027 0.950767 0.610705 -0.246184
C17   C     C_R   0.401990 0.955521 0.383386 0.258224
C18   C     C_R   0.596696 0.044182 0.614377 0.257364
C19   C     C_R   0.211830 0.564015 0.458110 -0.057670
C20   C     C_R   0.788159 0.436587 0.542535 -0.044580
C21   C     C_R   0.200353 0.435245 0.542672 0.418430
C22   C     C_R   0.799730 0.564601 0.457144 0.408411
C23   C     C_R   0.487788 0.499339 0.649949 0.843578
C24   C     C_R   0.512242 0.501670 0.349428 0.811324
C25   C     C_R   0.097162 0.436965 0.545905 -0.040443
C26   C     C_R   0.902932 0.562752 0.453811 -0.039683
C27   C     C_R   0.051691 0.500311 0.500212 -0.008083
C28   C     C_R   0.948370 0.499672 0.499780 -0.007343
C29   C     C_R   0.109390 0.564381 0.455248 -0.022071
C30   C     C_R   0.890655 0.435684 0.544828 -0.020043
C31   C     C_R   0.038481 0.376423 0.593855 -0.250061
C32   C     C_R   0.961669 0.622699 0.405263 -0.258174
C33   C     C_R   0.936914 0.373263 0.591763 0.254205
C34   C     C_R   0.063265 0.625920 0.407389 0.251362
C35   C     C_R   0.482674 0.494596 0.735077 -0.188982
C36   C     C_R   0.518356 0.513387 0.263511 -0.202581
C37   C     C_R   0.513517 0.416600 0.773143 0.172476
C38   C     C_R   0.448039 0.564856 0.226737 0.165441
C39   C     C_R   0.512356 0.411448 0.854969 0.244075
C40   C     C_R   0.460882 0.587441 0.146857 0.227426
C41   C     C_R   0.490243 0.487761 0.897581 0.003501
C42   C     C_R   0.538785 0.552555 0.102447 -0.002921
C43   C     C_R   0.459221 0.564753 0.859403 -0.204574
C44   C     C_R   0.605779 0.498858 0.137604 -0.220415
C45   C     C_R   0.454614 0.569134 0.778487 0.202753
C46   C     C_R   0.597524 0.479663 0.217766 0.202884
C47   C     C_2   0.499426 0.487183 0.982186 -0.191603
C48   C     C_2   0.538398 0.556401 0.017535 -0.185981
Cu1   Cu    Cu3+1 0.402580 0.500010 0.500000 0.940479
Cu2   Cu    Cu3+1 0.597420 0.499990 0.500000 0.940329
H1    H     H_    0.257040 0.613080 0.424696 0.196395
H2    H     H_    0.743057 0.387318 0.575404 0.179844
H3    H     H_    0.070611 0.330070 0.633315 0.171098
H4    H     H_    0.929529 0.668378 0.365209 0.170163
H5    H     H_    0.563137 0.617009 0.985432 0.148044
H6    H     H_    0.476159 0.427632 0.016582 0.164137
H7    H     H_    0.437872 0.621789 0.892938 0.158387
H8    H     H_    0.662658 0.468649 0.101763 0.166878
N1    N     N_R   0.256180 0.500070 0.500030 -0.219261
N2    N     N_R   0.743820 0.499930 0.499970 -0.214521
O1    O     O_R   0.417720 0.629750 0.499980 -0.586707
O2    O     O_R   0.582280 0.370250 0.500020 -0.582112
O3    O     O_R   0.582260 0.629730 0.499990 -0.574793
O4    O     O_R   0.417740 0.370270 0.500010 -0.575185
O5    O     O_R   0.408190 0.500030 0.613590 -0.613217
O6    O     O_R   0.591810 0.499970 0.386410 -0.603804
O7    O     O_R   0.572730 0.500000 0.613600 -0.558630
O8    O     O_R   0.427270 0.500000 0.386400 -0.546991
N3    N     N_2   0.551189 0.345424 0.728432 -0.438009
H9    H     H_    0.516434 0.284828 0.741684 0.251962
C49   C     C_3   0.655851 0.339665 0.727023 -0.639712
H10   H     H_    0.680721 0.289694 0.684705 0.230300
H11   H     H_    0.679391 0.318380 0.785086 0.236075
H12   H     H_    0.691096 0.405195 0.709611 0.239872
N4    N     N_2   0.362214 0.591303 0.269304 -0.398714
H13   H     H_    0.346963 0.657884 0.261883 0.261293
C50   C     C_3   0.278357 0.532102 0.262928 -0.597989
H14   H     H_    0.257394 0.499654 0.320235 0.235862
H15   H     H_    0.293338 0.477897 0.221480 0.204341
H16   H     H_    0.215908 0.570298 0.243331 0.208083
N5    N     N_2   0.244764 0.364797 0.583850 -0.429238
H17   H     H_    0.303178 0.377354 0.616140 0.286791
C51   C     C_3   0.230119 0.274039 0.559096 -0.701411
H18   H     H_    0.300553 0.244132 0.543156 0.249825
H19   H     H_    0.184382 0.271176 0.508229 0.226705
H20   H     H_    0.195129 0.232725 0.608093 0.213712
N6    N     N_2   0.755468 0.635223 0.416061 -0.437815
H21   H     H_    0.695824 0.623097 0.385077 0.283608
C52   C     C_3   0.771053 0.725900 0.440659 -0.695776
H22   H     H_    0.700967 0.756201 0.456970 0.248479
H23   H     H_    0.805941 0.766957 0.391456 0.213365
H24   H     H_    0.817258 0.728543 0.491254 0.229149
N7    N     N_2   0.882107 0.306680 0.637224 -0.461106
H25   H     H_    0.910424 0.291602 0.689999 0.251122
C53   C     C_3   0.861060 0.227321 0.594962 -0.722261
H26   H     H_    0.929511 0.194177 0.576498 0.229661
H27   H     H_    0.820635 0.244090 0.542855 0.241631
H28   H     H_    0.815477 0.180129 0.633167 0.257751
N8    N     N_2   0.118388 0.690953 0.360363 -0.454614
H29   H     H_    0.090039 0.704480 0.307312 0.245507
C54   C     C_3   0.140139 0.771580 0.400588 -0.698912
H30   H     H_    0.072029 0.806006 0.417725 0.224598
H31   H     H_    0.186586 0.816982 0.361385 0.258755
H32   H     H_    0.179902 0.756266 0.453356 0.239723
N9    N     N_2   0.663723 0.418945 0.249349 -0.419914
H33   H     H_    0.638232 0.381434 0.297865 0.261273
C55   C     C_3   0.762150 0.453205 0.252904 -0.649839
H34   H     H_    0.808070 0.400301 0.276413 0.218443
H35   H     H_    0.763779 0.510946 0.291644 0.231128
H36   H     H_    0.793168 0.474098 0.193843 0.218806
N10   N     N_2   0.424442 0.649605 0.741828 -0.419388
H37   H     H_    0.401007 0.644132 0.686468 0.264197
C56   C     C_3   0.488168 0.726527 0.749129 -0.710610
H38   H     H_    0.459574 0.784960 0.717607 0.233773
H39   H     H_    0.562158 0.712994 0.723781 0.218711
H40   H     H_    0.492227 0.743646 0.811181 0.229662
N11   N     N_2   0.393504 0.643730 0.111204 -0.429641
H41   H     H_    0.425431 0.695068 0.076625 0.240371
C57   C     C_3   0.313638 0.599119 0.076016 -0.655270
H42   H     H_    0.319235 0.611790 0.011909 0.214831
H43   H     H_    0.244136 0.625891 0.099934 0.225486
H44   H     H_    0.312635 0.525752 0.087338 0.223479
N12   N     N_2   0.540056 0.331100 0.892903 -0.433535
H45   H     H_    0.584571 0.339903 0.938146 0.251178
C58   C     C_3   0.460704 0.268038 0.912381 -0.724403
H46   H     H_    0.489626 0.205241 0.936329 0.231618
H47   H     H_    0.421696 0.252193 0.859779 0.229770
H48   H     H_    0.408769 0.295584 0.956835 0.218939
H49   H     H_    0.588162 0.223236 0.595577 0.159833
H50   H     H_    0.409614 0.775774 0.402950 0.149841
H51   H     H_    0.408430 0.224604 0.402261 0.138582
H52   H     H_    0.594184 0.776036 0.593471 0.142358
H53   H     H_    0.364092 0.088032 0.343833 0.152555
H54   H     H_    0.635538 0.911886 0.653484 0.153321
N13   N     N_2   0.358522 0.909067 0.322174 -0.438943
H55   H     H_    0.402900 0.864024 0.294370 0.246264
C59   C     C_3   0.296102 0.955464 0.270786 -0.735698
H56   H     H_    0.261362 0.906593 0.233327 0.230126
H57   H     H_    0.339257 0.004673 0.232485 0.227860
H58   H     H_    0.237609 0.989034 0.305218 0.236421
N14   N     N_2   0.639038 0.090555 0.676113 -0.442139
H59   H     H_    0.592956 0.133441 0.704877 0.250782
C60   C     C_3   0.703126 0.044885 0.726563 -0.731764
H60   H     H_    0.737222 0.094044 0.764123 0.231231
H61   H     H_    0.761987 0.012713 0.691392 0.236305
H62   H     H_    0.661464 0.994576 0.764776 0.227421

loop_
_geom_bond_atom_site_label_1
_geom_bond_atom_site_label_2
_ccdc_geom_bond_type
C25   C31   A    
C60   H62   S    
N6    H21   S    
C26   C32   A    
N7    H25   S    
Cu1   O8    S    
C37   N3    S    
C48   H5    S    
C55   H35   S    
C53   H26   S    
C16   H54   S    
N5    H17   S    
C53   H28   S    
N12   H45   S    
C39   C41   A    
C20   C30   A    
C50   H14   S    
C59   H57   S    
C54   H30   S    
Cu1   O5    S    
C13   C18   A    
C35   C37   A    
C21   N1    A    
N14   C60   S    
C22   N2    A    
N12   C58   S    
C27   C29   A    
C60   H60   S    
C46   N9    S    
C39   N12   S    
C60   H61   S    
C23   O7    A    
N3    C49   S    
Cu2   O6    S    
C51   H18   S    
C2    O4    A    
C17   N13   S    
C58   H48   S    
C55   H34   S    
C31   C33   A    
C36   C46   A    
C52   H23   S    
Cu2   O7    S    
C7    H51   S    
C3    C13   A    
C24   O6    A    
C56   H40   S    
C40   C42   A    
C40   N11   S    
C54   H31   S    
Cu1   O4    S    
Cu2   O3    S    
C41   C43   A    
C14   C17   A    
C42   C44   A    
C1    O3    A    
C32   H4    S    
N5    C51   S    
C44   C46   A    
C38   N4    S    
C57   H43   S    
C37   C39   A    
C59   H58   S    
Cu1   O1    S    
C1    C6    S    
C47   C48   D    
N13   H55   S    
C4    C6    A    
C44   H8    S    
C5    C7    A    
C24   O8    A    
C4    H50   S    
C19   N1    A    
C29   C34   A    
C1    O1    A    
C32   C34   A    
N4    H13   S    
C8    H52   S    
C19   H1    S    
N9    C55   S    
N8    H29   S    
C11   C12   A    
C45   N10   S    
C34   N8    S    
C41   C47   S    
C50   H15   S    
N10   C56   S    
C42   C48   S    
C22   N6    S    
C31   H3    S    
C52   H24   S    
C9    C11   A    
C10   C12   A    
C16   C18   A    
N8    C54   S    
C12   C14   A    
C54   H32   S    
C23   C35   S    
N6    C52   S    
C58   H46   S    
Cu2   O2    S    
C55   H36   S    
C2    C5    S    
C20   N2    A    
C36   C38   A    
C19   C29   A    
C49   H11   S    
C56   H38   S    
C59   H56   S    
C57   H44   S    
N13   C59   S    
C21   C25   A    
N10   H37   S    
C51   H19   S    
C3    H49   S    
C18   N14   S    
C21   N5    S    
C3    C5    A    
C33   N7    S    
C49   H12   S    
C6    C8    A    
C57   H42   S    
C53   H27   S    
C15   C17   A    
C15   H53   S    
C25   C27   A    
N9    H33   S    
C26   C28   A    
Cu1   N1    S    
C24   C36   S    
C20   H2    S    
Cu2   N2    S    
C23   O5    A    
N11   C57   S    
C9    C15   A    
C49   H10   S    
C43   C45   A    
C10   C16   A    
N11   H41   S    
C38   C40   A    
C11   C13   A    
N7    C53   S    
C50   H16   S    
C28   C30   A    
C30   C33   A    
C4    C14   A    
N3    H9    S    
C43   H7    S    
C7    C9    A    
C51   H20   S    
C8    C10   A    
Cu1   Cu2   S    
C22   C26   A    
N4    C50   S    
C27   C28   A    
C58   H47   S    
C52   H22   S    
N14   H59   S    
C2    O2    A    
C47   H6    S    
C56   H39   S    
C35   C45   A    
