data_mof_unit_56677.cif
_audit_creation_date              2013-03-05T15:46:52-0500
_audit_creation_method            fapswitch 2.2
_symmetry_space_group_name_H-M    P1
_symmetry_Int_Tables_number       1
_space_group_crystal_system       triclinic
_cell_length_a                    14.835211
_cell_length_b                    14.919165
_cell_length_c                    14.765901
_cell_angle_alpha                 108.904794
_cell_angle_beta                  109.381102
_cell_angle_gamma                 109.465618
_cell_volume                      2536.09833713

loop_
_atom_site_label
_atom_site_type_symbol
_atom_site_description
_atom_site_fract_x
_atom_site_fract_y
_atom_site_fract_z
_atom_type_partial_charge
C1    C     C_R   0.257171 0.070395 0.978604 -0.114781
C2    C     C_R   0.806817 0.006854 0.094905 -0.139453
H1    H     H_    0.250612 0.125257 0.947469 0.102440
H2    H     H_    0.836307 0.982829 0.155283 0.092441
N1    N     N_R   0.293810 0.002730 0.945950 -0.048431
N2    N     N_R   0.706190 0.997270 0.054050 -0.042120
C3    C     C_R   0.757664 0.224389 0.316192 0.050189
C4    C     C_R   0.195020 0.797279 0.703957 0.017820
N3    N     N_R   0.706160 0.152130 0.208910 -0.054349
N4    N     N_R   0.293840 0.847870 0.791090 -0.051255
C5    C     C_R   0.409377 0.901015 0.208116 -0.149539
C6    C     C_R   0.592134 0.025914 0.776620 -0.122310
H3    H     H_    0.324631 0.843354 0.174824 0.138095
H4    H     H_    0.677558 0.061205 0.799622 0.112873
N5    N     N_R   0.443140 0.945920 0.152090 -0.047977
N6    N     N_R   0.556860 0.054080 0.847910 -0.043999
C7    C     C_R   0.590722 0.293909 0.986928 -0.134785
C8    C     C_R   0.410659 0.684859 0.942298 -0.118569
H5    H     H_    0.674871 0.339636 0.007347 0.089302
H6    H     H_    0.326099 0.620230 0.893029 0.099757
N7    N     N_R   0.556830 0.208940 0.002760 -0.038724
N8    N     N_R   0.443170 0.791060 0.997240 -0.039244
C9    C     C_R   0.590557 0.990042 0.297353 -0.116603
C10   C     C_R   0.408830 0.933524 0.685543 -0.128832
H7    H     H_    0.673960 0.011237 0.344252 0.116663
H8    H     H_    0.323683 0.881775 0.624078 0.126571
N9    N     N_R   0.556790 0.002750 0.208910 -0.045281
N10   N     N_R   0.443210 0.997250 0.791090 -0.046708
C11   C     C_R   0.409072 0.206255 0.899035 -0.146508
C12   C     C_R   0.594193 0.779864 0.027772 -0.129974
H9    H     H_    0.324213 0.174115 0.842225 0.118369
H10   H     H_    0.679069 0.806354 0.051481 0.128149
N11   N     N_R   0.443180 0.152110 0.945950 -0.044328
N12   N     N_R   0.556820 0.847890 0.054050 -0.044499
C13   C     C_R   0.745832 0.312998 0.220158 -0.154467
C14   C     C_R   0.195501 0.700268 0.790275 -0.149655
H11   H     H_    0.748987 0.373303 0.194428 0.108842
H12   H     H_    0.167949 0.644865 0.819858 0.107475
N13   N     N_R   0.706170 0.208950 0.152090 -0.046134
N14   N     N_R   0.293830 0.791050 0.847910 -0.043263
C15   C     C_R   0.254430 0.976944 0.069671 -0.088028
C16   C     C_R   0.802837 0.097633 0.002996 -0.143393
H13   H     H_    0.243217 0.943412 0.122031 0.124502
H14   H     H_    0.824442 0.160993 0.982147 0.084101
N15   N     N_R   0.293800 0.945910 0.002760 -0.043198
N16   N     N_R   0.706200 0.054090 0.997240 -0.036845
C17   C     C_R   0.233791 0.058705 0.059248 0.044714
C18   C     C_R   0.870287 0.070209 0.063896 0.074486
C19   C     C_R   0.779532 0.326636 0.325355 0.009371
C20   C     C_R   0.131593 0.702227 0.698729 0.025870
C21   C     C_R   0.500427 0.923407 0.298659 0.075466
C22   C     C_R   0.500732 0.945769 0.673330 0.080166
C23   C     C_R   0.500096 0.294209 0.919788 0.079974
C24   C     C_R   0.505149 0.675362 0.960760 0.051647
Ni1   Ni    Ni4+2 0.369690 0.999990 0.869700 0.208814
Ni2   Ni    Ni4+2 0.630310 0.000010 0.130300 0.207284
Ni3   Ni    Ni4+2 0.369670 0.869670 0.000000 0.227552
Ni4   Ni    Ni4+2 0.630330 0.130330 0.000000 0.207084
H15   H     H_    0.056712 0.979892 0.542374 0.147761
H16   H     H_    0.994929 0.869822 0.336770 0.149436
C25   C     C_R   0.223250 0.085053 0.588736 0.040561
C26   C     C_R   0.819719 0.783771 0.267535 0.038638
C27   C     C_R   0.313558 0.190222 0.657540 -0.150068
C28   C     C_R   0.718726 0.707408 0.172060 -0.143193
H17   H     H_    0.390244 0.206639 0.657079 0.127105
H18   H     H_    0.644001 0.682194 0.177322 0.132363
C29   C     C_R   0.307811 0.272308 0.731851 0.046125
C30   C     C_R   0.713984 0.662843 0.069901 0.016917
C31   C     C_R   0.208405 0.249889 0.732539 -0.318304
C32   C     C_R   0.811879 0.692340 0.065024 -0.301238
H19   H     H_    0.204764 0.312590 0.791497 0.171072
H20   H     H_    0.808378 0.653895 0.986913 0.176214
C33   C     C_R   0.117260 0.144082 0.664928 0.423877
C34   C     C_R   0.913955 0.764755 0.161327 0.433916
C35   C     C_R   0.125572 0.061973 0.593429 -0.311260
C36   C     C_R   0.917048 0.812115 0.262125 -0.314353
C37   C     C_R   0.414067 0.475809 0.838565 -0.240707
C38   C     C_R   0.605263 0.471608 0.941349 -0.232274
H21   H     H_    0.340443 0.476259 0.792355 0.132949
H22   H     H_    0.680853 0.471865 0.981743 0.132375
C39   C     C_R   0.510781 0.574160 0.922732 0.056045
C40   C     C_R   0.504589 0.376358 0.883731 0.034468
C41   C     C_R   0.609298 0.571217 0.971711 0.077570
C42   C     C_R   0.409876 0.375719 0.818534 0.075646
C43   C     C_R   0.898235 0.523918 0.416648 -0.166819
C44   C     C_R   0.954683 0.536257 0.622111 -0.158452
H23   H     H_    0.882920 0.521819 0.339034 0.115514
H24   H     H_    0.976988 0.539559 0.701200 0.127963
C45   C     C_R   0.986516 0.616329 0.508941 -0.173956
C46   C     C_R   0.865154 0.442130 0.528087 -0.178639
H25   H     H_    0.034840 0.678023 0.495908 0.132189
H26   H     H_    0.818870 0.374558 0.536069 0.136420
C47   C     C_R   0.020183 0.620371 0.611299 0.142863
C48   C     C_R   0.843912 0.432475 0.424488 0.141965
C49   C     C_R   0.600493 0.921531 0.566960 -0.045052
C50   C     C_R   0.403354 0.815010 0.370410 -0.037478
C51   C     C_R   0.601241 0.917144 0.470759 -0.056356
C52   C     C_R   0.402397 0.821783 0.467412 -0.028882
C53   C     C_R   0.501878 0.881573 0.377994 0.089100
C54   C     C_R   0.501023 0.892840 0.569121 0.085876
C55   C     C_R   0.145308 0.085390 0.178442 0.050900
C56   C     C_R   0.042601 0.162873 0.051978 0.039659
C57   C     C_R   0.047128 0.080856 0.169889 -0.172282
C58   C     C_R   0.139315 0.165871 0.060965 -0.170133
H27   H     H_    0.016193 0.052344 0.217684 0.120241
H28   H     H_    0.174464 0.201444 0.019493 0.133920
C59   C     C_R   0.987990 0.108057 0.097032 0.048595
C60   C     C_R   0.180128 0.110711 0.107736 0.054469
N17   N     N_3   0.234382 0.001552 0.519082 -0.212499
H29   H     H_    0.166351 0.925082 0.484156 0.120241
H30   H     H_    0.235393 0.016106 0.454692 0.146995
N18   N     N_3   0.823003 0.830078 0.370431 -0.212307
H31   H     H_    0.862470 0.914705 0.403552 0.132569
H32   H     H_    0.870859 0.811604 0.423398 0.131825
N19   N     N_R   0.018910 0.118713 0.673246 0.221177
O1    O     O_R   0.947296 0.018032 0.635029 -0.485687
O2    O     O_R   0.003366 0.196105 0.725075 -0.444838
N20   N     N_R   0.014055 0.784921 0.157984 0.215395
O3    O     O_R   0.103022 0.817446 0.245981 -0.507514
O4    O     O_R   0.015006 0.761998 0.065536 -0.441466
N21   N     N_3   0.698778 0.951278 0.660199 -0.219900
H33   H     H_    0.724557 0.894584 0.637353 0.145115
H34   H     H_    0.760316 0.028199 0.684932 0.148857
N22   N     N_3   0.307198 0.737731 0.265053 -0.221519
H35   H     H_    0.286053 0.659377 0.254261 0.109606
H36   H     H_    0.242583 0.752003 0.263236 0.178873
N23   N     N_3   0.701102 0.944378 0.466312 -0.225931
H37   H     H_    0.759286 0.025060 0.527035 0.165754
H38   H     H_    0.729817 0.893117 0.482281 0.157084
N24   N     N_3   0.303573 0.754786 0.462333 -0.224474
H39   H     H_    0.242210 0.771143 0.425145 0.126508
H40   H     H_    0.278402 0.672980 0.414265 0.112676
N25   N     N_3   0.209514 0.069534 0.262258 -0.222440
H41   H     H_    0.174640 0.986264 0.234765 0.179842
H42   H     H_    0.290295 0.099900 0.276707 0.099968
N26   N     N_3   0.001996 0.211115 0.990943 -0.200170
H43   H     H_    0.931282 0.150810 0.915887 0.136019
H44   H     H_    0.991689 0.271471 0.039294 0.101900
N27   N     N_3   0.811898 0.204762 0.401843 -0.218265
H45   H     H_    0.892599 0.269357 0.452903 0.116698
H46   H     H_    0.821853 0.138473 0.365682 0.093335
N28   N     N_3   0.152493 0.854401 0.656734 -0.237868
H47   H     H_    0.092238 0.858396 0.677064 0.129869
H48   H     H_    0.214668 0.935111 0.695002 0.114542

loop_
_geom_bond_atom_site_label_1
_geom_bond_atom_site_label_2
_geom_bond_distance
_ccdc_geom_bond_type
C10   C22   1.394009 A    
C12   H10   1.072544 S    
C27   H17   1.083883 S    
N12   Ni2   1.867452 S    
C7    C23   1.383004 A    
N5    Ni3   1.849071 S    
C13   N13   1.324313 A    
C51   N23   1.429973 S    
C25   N17   1.434100 S    
N9    Ni2   1.837883 S    
N8    Ni3   1.848477 S    
N18   H32   1.045603 S    
C25   C35   1.404544 A    
C12   C24   1.383835 A    
N15   Ni3   1.848227 S    
C34   C36   1.402939 A    
C5    H3    1.075765 S    
C1    N1    1.330892 A    
C28   C30   1.403927 A    
C13   H11   1.077612 S    
C10   H8    1.072597 S    
N17   H30   1.045197 S    
C44   H24   1.082175 S    
C18   C59   1.484610 S    
N7    N11   1.383079 A    
N19   O1    1.301007 A    
C50   C53   1.409600 A    
C11   N11   1.338231 A    
N3    N13   1.372368 A    
N4    N14   1.372368 A    
C16   N16   1.321805 A    
C31   H19   1.083082 S    
N20   O3    1.300820 A    
C26   C28   1.396397 A    
C51   C53   1.413598 A    
C5    N5    1.339624 A    
C38   C41   1.379916 A    
C9    C21   1.385681 A    
C6    N6    1.335680 A    
N19   O2    1.301533 A    
C50   C52   1.408061 A    
C13   C19   1.384251 A    
C31   C33   1.406110 A    
C9    N9    1.334882 A    
C19   C48   1.455141 S    
C45   H25   1.079224 S    
C8    H6    1.079930 S    
N6    N10   1.383079 A    
C49   N21   1.434872 S    
C55   C60   1.408201 A    
C43   H23   1.079439 S    
C29   C42   1.479318 S    
C55   C57   1.395954 A    
N16   Ni4   1.848226 S    
C15   H13   1.075259 S    
C26   C36   1.400555 A    
C2    N2    1.347972 A    
C16   H14   1.069205 S    
C34   N20   1.434814 S    
C58   H28   1.080122 S    
N18   H31   1.045559 S    
C39   C41   1.422258 A    
N10   Ni1   1.837885 S    
C46   C48   1.402557 A    
C56   N26   1.429003 S    
C37   H21   1.082502 S    
C21   C53   1.492742 S    
N5    N9    1.383079 A    
N8    N12   1.383080 A    
C27   C29   1.404265 A    
C32   H20   1.083373 S    
C12   N12   1.323098 A    
C14   N14   1.341241 A    
C3    C19   1.399237 A    
N26   H44   1.044779 S    
C44   C46   1.390439 A    
C43   C45   1.366655 A    
C49   C54   1.407449 A    
C1    C17   1.391791 A    
C16   C18   1.375265 A    
C37   C42   1.400319 A    
C2    C18   1.401096 A    
N13   Ni4   1.849760 S    
N1    N15   1.372249 A    
C22   C54   1.486809 S    
C7    N7    1.326523 A    
C23   C40   1.477119 S    
C29   C31   1.403607 A    
C28   H18   1.083794 S    
N24   H40   1.044881 S    
N23   H38   1.043666 S    
C32   C34   1.402631 A    
C44   C47   1.401633 A    
C43   C48   1.398398 A    
C38   C40   1.390162 A    
C46   H26   1.082148 S    
C37   C39   1.409920 A    
C52   N24   1.433825 S    
C25   C27   1.397002 A    
C15   C17   1.394515 A    
C56   C59   1.427034 A    
C57   H27   1.081203 S    
N3    Ni2   1.867681 S    
N6    Ni4   1.849074 S    
C56   C58   1.380300 A    
N4    Ni1   1.867681 S    
N21   H33   1.044899 S    
C50   N22   1.432851 S    
C4    N4    1.325007 A    
C6    H4    1.073460 S    
C40   C42   1.410144 A    
N25   H41   1.039835 S    
N28   H48   1.045446 S    
C33   C35   1.406928 A    
N23   H37   1.045187 S    
H15   C35   1.080917 S    
C58   C60   1.394129 A    
C14   C20   1.385800 A    
N22   H36   1.042873 S    
C3    N3    1.340334 A    
N14   Ni3   1.849762 S    
N2    N16   1.372249 A    
C8    N8    1.341371 A    
C30   C41   1.479531 S    
N1    Ni1   1.838081 S    
C10   N10   1.334938 A    
N2    Ni2   1.838082 S    
N26   H43   1.044717 S    
C57   C59   1.409085 A    
N27   H45   1.044811 S    
C49   C51   1.404604 A    
C20   C47   1.451458 S    
C55   N25   1.432626 S    
C6    C22   1.399861 A    
C52   C54   1.412894 A    
C33   N19   1.438114 S    
C14   H12   1.080922 S    
N24   H39   1.045433 S    
N7    Ni4   1.848478 S    
C11   H9    1.074508 S    
N17   H29   1.044999 S    
C3    N27   1.433244 S    
N27   H46   1.045228 S    
C11   C23   1.386753 A    
C2    H2    1.080469 S    
C7    H5    1.078913 S    
H16   C36   1.080694 S    
C4    C20   1.376186 A    
C38   H22   1.079359 S    
C9    H7    1.067300 S    
C45   C47   1.399035 A    
N20   O4    1.301567 A    
N21   H34   1.045310 S    
C5    C21   1.390985 A    
C8    C24   1.401118 A    
C26   N18   1.427008 S    
C30   C32   1.404272 A    
C17   C60   1.475940 S    
N25   H42   1.045339 S    
C15   N15   1.341066 A    
N28   H47   1.046303 S    
C4    N28   1.435933 S    
C1    H1    1.076083 S    
C24   C39   1.472339 S    
N11   Ni1   1.867452 S    
N22   H35   1.044988 S    
