data_mof_unit_56965.cif
_audit_creation_date              2012-12-11T15:55:52-0500
_audit_creation_method            fapswitch 2.2
_symmetry_space_group_name_H-M    P1
_symmetry_Int_Tables_number       1
_space_group_crystal_system       triclinic
_cell_length_a                    11.059697
_cell_length_b                    11.089987
_cell_length_c                    18.727483
_cell_angle_alpha                 90.715155
_cell_angle_beta                  91.139616
_cell_angle_gamma                 59.173432
_cell_volume                      1972.05488491

loop_
_atom_site_label
_atom_site_type_symbol
_atom_type_description
_atom_site_fract_x
_atom_site_fract_y
_atom_site_fract_z
_atom_type_partial_charge
C1    C     C_R   0.361888 0.761754 0.394425 0.541384
C2    C     C_R   0.261453 0.445291 0.194286 -0.163291
C3    C     C_R   0.244956 0.447259 0.268238 -0.041451
C4    C     C_R   0.384318 0.354788 0.386999 0.541061
C5    C     C_R   0.815024 0.693922 0.341006 -0.080947
C6    C     C_R   0.844927 0.624096 0.275957 -0.097676
C7    C     C_R   0.984150 0.542665 0.254038 -0.104801
C8    C     C_R   0.095499 0.539216 0.294099 0.004941
C9    C     C_R   0.362279 0.343948 0.309346 0.001211
C10   C     C_R   0.864875 0.331886 0.183348 0.024206
C11   C     C_R   0.959382 0.238127 0.233850 0.014813
C12   C     C_R   0.640055 0.118636 0.170465 0.029245
C13   C     C_R   0.928475 0.250730 0.304645 -0.011136
C14   C     C_R   0.695221 0.441177 0.277166 -0.155658
C15   C     C_R   0.726762 0.427433 0.204108 -0.184761
C16   C     C_R   0.771861 0.381417 0.402112 0.551440
C17   C     C_3   0.111568 0.179920 0.248365 -0.275850
C18   C     C_3   0.076312 0.198087 0.327591 -0.292638
C19   C     C_R   0.802276 0.360415 0.327900 0.039575
C20   C     C_R   0.372362 0.815226 0.170374 0.002710
C21   C     C_R   0.456584 0.841043 0.218046 -0.010965
C22   C     C_R   0.447374 0.829865 0.291262 0.007671
C23   C     C_R   0.372643 0.330677 0.159186 0.005216
C24   C     C_R   0.303160 0.730152 0.270577 -0.165698
C25   C     C_R   0.311856 0.741080 0.197108 -0.160602
C26   C     C_3   0.470816 0.965868 0.229588 -0.277060
C27   C     C_3   0.450230 0.959434 0.308332 -0.284419
C28   C     C_R   0.342603 0.772484 0.603236 0.549152
C29   C     C_R   0.360514 0.786755 0.318574 0.008377
C30   C     C_R   0.297673 0.305141 0.807659 0.020662
C31   C     C_R   0.399176 0.189949 0.769279 0.044061
C32   C     C_R   0.409719 0.194241 0.696865 0.019140
C33   C     C_R   0.199571 0.422778 0.694528 -0.166495
C34   C     C_R   0.482652 0.239515 0.273326 -0.150907
C35   C     C_R   0.189950 0.418164 0.769070 -0.170476
C36   C     C_3   0.554538 0.103820 0.781540 -0.262039
C37   C     C_3   0.567424 0.105737 0.701690 -0.261885
C38   C     C_R   0.319776 0.317693 0.659469 0.018834
C39   C     C_R   0.806293 0.335505 0.837408 0.012908
C40   C     C_R   0.369037 0.348772 0.594690 0.551026
C41   C     C_R   0.751112 0.466161 0.803684 0.022984
C42   C     C_R   0.743718 0.474515 0.730535 0.045671
C43   C     C_R   0.818694 0.230243 0.720769 -0.170074
C44   C     C_R   0.827799 0.219870 0.795500 -0.162327
C45   C     C_R   0.494543 0.230032 0.199042 -0.021210
C46   C     C_3   0.790233 0.577740 0.808405 -0.265185
C47   C     C_3   0.786247 0.581809 0.727940 -0.270365
C48   C     C_R   0.786772 0.356237 0.687732 0.015536
C49   C     C_R   0.290275 0.865757 0.820865 0.004594
C50   C     C_R   0.176209 0.881630 0.780248 -0.010404
C51   C     C_R   0.185098 0.868670 0.707124 0.083083
C52   C     C_R   0.759597 0.379055 0.611549 0.550228
C53   C     C_R   0.405759 0.861152 0.710208 -0.161772
C54   C     C_R   0.400663 0.866779 0.784581 -0.146819
C55   C     C_3   0.095108 0.808123 0.784956 -0.236401
C56   C     C_R   0.056007 0.634043 0.351807 -0.089928
C57   C     C_3   0.104239 0.794517 0.704138 0.151692
C58   C     C_R   0.306019 0.844755 0.671547 -0.005084
C59   C     C_R   0.910462 0.316153 0.111049 0.544583
C60   C     C_R   0.332883 0.295260 0.090466 0.540523
C61   C     C_R   0.310963 0.895626 0.104444 0.534856
C62   C     C_R   0.879250 0.311167 0.905912 0.549632
C63   C     C_R   0.292799 0.285801 0.883900 0.548964
C64   C     C_R   0.919445 0.898089 0.139552 -0.073700
C65   C     C_R   0.272580 0.898922 0.896531 0.549533
C66   C     C_R   0.896609 0.998625 0.190846 -0.077264
C67   C     C_R   0.919357 0.704286 0.377426 -0.122454
C68   C     C_R   0.759548 0.108040 0.205147 -0.105122
C69   C     C_3   0.936768 0.803163 0.622890 -0.017411
C70   C     C_3   0.836742 0.900287 0.565070 -0.352756
C71   C     C_R   0.668652 0.005800 0.122739 -0.083145
C72   C     C_R   0.805467 0.901499 0.105653 -0.141253
Cr1   Cr    Cr6+3 0.601740 0.606840 0.505840 0.998513
Cr2   Cr    Cr6+3 0.291500 0.601560 0.495070 0.978490
Cr3   Cr    Cr6+3 0.606780 0.291630 0.499130 0.996331
Cr4   Cr    Cr6+3 0.062440 0.063060 0.008240 1.019336
Cr5   Cr    Cr6+3 0.062950 0.375000 0.998920 0.994082
Cr6   Cr    Cr6+3 0.374550 0.061770 0.992470 0.991293
H1    H     H_    0.571925 0.160585 0.303821 0.144990
H2    H     H_    0.090605 0.280237 0.354249 0.154057
H3    H     H_    0.248530 0.680753 0.289471 0.140587
H4    H     H_    0.822747 0.817104 0.069648 0.099470
H5    H     H_    0.257019 0.706385 0.161913 0.123930
H6    H     H_    0.387937 0.061357 0.202127 0.157289
H7    H     H_    0.581213 0.935091 0.221892 0.146151
H8    H     H_    0.540579 0.945014 0.341292 0.129550
H9    H     H_    0.349519 0.046426 0.327933 0.143501
H10   H     H_    0.120739 0.513691 0.665748 0.099986
H11   H     H_    0.104314 0.505514 0.796344 0.111414
H12   H     H_    0.711395 0.741485 0.362716 0.137461
H13   H     H_    0.590433 0.997584 0.802691 0.132367
H14   H     H_    0.596733 0.162579 0.810858 0.142936
H15   H     H_    0.621161 0.162094 0.685933 0.171865
H16   H     H_    0.893846 0.770036 0.424299 0.089548
H17   H     H_    0.607789 0.000655 0.676938 0.126998
H18   H     H_    0.842669 0.139201 0.688897 0.188404
H19   H     H_    0.865705 0.118487 0.819664 0.141530
H20   H     H_    0.897159 0.542219 0.829596 0.168913
H21   H     H_    0.706535 0.675855 0.833285 0.121501
H22   H     H_    0.703676 0.683145 0.705737 0.134540
H23   H     H_    0.760246 0.632214 0.243062 0.132532
H24   H     H_    0.891621 0.539779 0.704083 0.133167
H25   H     H_    0.492806 0.858143 0.683519 0.120956
H26   H     H_    0.483722 0.870683 0.813650 0.130033
H27   H     H_    0.986424 0.877178 0.804461 0.151080
H28   H     H_    0.024672 0.813383 0.128448 0.113422
H29   H     H_    0.155644 0.705681 0.813008 0.094759
H30   H     H_    0.169798 0.683980 0.686023 0.118188
H31   H     H_    0.985595 0.989225 0.220727 0.128039
H32   H     H_    0.745750 0.180382 0.247271 0.128303
H33   H     H_    0.124794 0.662460 0.375849 0.183590
H34   H     H_    0.004055 0.483827 0.205037 0.140561
H35   H     H_    0.591800 0.979741 0.105650 0.170579
H36   H     H_    0.174752 0.525056 0.162540 0.121882
H37   H     H_    0.883374 0.759150 0.653602 0.119571
H38   H     H_    0.028774 0.716642 0.594882 0.150170
H39   H     H_    0.896141 0.923633 0.525931 0.143926
H40   H     H_    0.784897 0.849463 0.537134 0.077169
H41   H     H_    0.754655 0.000943 0.588248 0.176675
H42   H     H_    0.590665 0.518162 0.294330 0.137444
H43   H     H_    0.647106 0.494432 0.165339 0.125325
H44   H     H_    0.151223 0.247086 0.228935 0.138500
H45   H     H_    0.172429 0.068540 0.231681 0.152862
H46   H     H_    0.121208 0.097090 0.356845 0.138366
O1    O     O_R   0.748670 0.497520 0.427970 -0.518510
O2    O     O_R   0.417470 0.174910 0.067830 -0.539217
O3    O     O_R   0.375160 0.946380 0.070880 -0.516632
O4    O     O_R   0.476470 0.723930 0.429450 -0.503669
O5    O     O_R   0.160500 0.919670 0.926690 -0.517048
O6    O     O_R   0.933140 0.190380 0.936050 -0.504141
O7    O     O_R   0.909010 0.403210 0.925030 -0.529078
O8    O     O_R   0.179590 0.361290 0.918480 -0.508963
O9    O     O_R   0.391360 0.170840 0.907510 -0.521643
O10   O     O_R   0.350950 0.942600 0.922260 -0.512447
O11   O     O_3   0.166650 0.166610 0.999880 -0.247134
O12   O     O_R   0.300170 0.471020 0.567120 -0.519026
O13   O     O_R   0.264730 0.744140 0.416740 -0.555509
O14   O     O_R   0.309440 0.472410 0.418220 -0.522354
O15   O     O_R   0.501630 0.260530 0.414310 -0.528730
O16   O     O_R   0.727920 0.305730 0.428950 -0.505607
O17   O     O_R   0.738670 0.496020 0.588600 -0.519590
O18   O     O_R   0.467190 0.722540 0.578350 -0.504342
O19   O     O_R   0.254720 0.742640 0.577370 -0.519712
O20   O     O_3   0.972921 0.881105 0.669519 -0.572778
O21   O     O_R   0.491630 0.259030 0.574940 -0.531263
O22   O     O_R   0.718640 0.304340 0.577850 -0.508981
O23   O     O_3   0.500010 0.500010 0.500020 -0.249053
O24   O     O_R   0.186620 0.923750 0.087000 -0.524564
O25   O     O_R   0.957350 0.194160 0.084660 -0.485612
O26   O     O_R   0.935120 0.407280 0.085350 -0.535327
O27   O     O_R   0.203800 0.365060 0.067090 -0.509289

loop_
_geom_bond_atom_site_label_1
_geom_bond_atom_site_label_2
_ccdc_geom_bond_type
C66   C68   A    
C46   H21   S    
C69   H38   S    
C23   C45   A    
C22   C29   A    
C11   C13   A    
C41   C42   A    
C62   O6    A    
C1    O4    A    
C5    C67   A    
Cr5   O27   S    
C7    C8    A    
C39   C41   A    
C56   C67   A    
Cr1   O17   S    
C53   C54   A    
Cr3   O21   S    
C69   O20   S    
Cr2   O14   S    
C71   H35   S    
C26   C27   S    
C49   C65   S    
C13   C18   S    
Cr1   O23   S    
C63   O9    A    
C54   H26   S    
C36   C37   S    
C61   O24   A    
C53   H25   S    
Cr3   O16   S    
C26   H7    S    
C30   C31   A    
C20   C25   A    
C70   H39   S    
C49   C54   A    
C7    H34   S    
C37   H17   S    
Cr4   O11   S    
Cr5   O7    S    
C6    H23   S    
C51   C58   A    
C20   C61   S    
C24   C29   A    
Cr4   O6    S    
C17   H45   S    
C11   C17   S    
Cr2   O12   S    
C67   H16   S    
C52   O22   A    
C41   C46   S    
C51   C57   S    
C32   C38   A    
Cr6   O11   S    
C56   H33   S    
C65   O10   A    
C36   H14   S    
C46   H20   S    
C16   O1    A    
C47   H24   S    
C21   C22   A    
C8    C56   A    
C16   O16   A    
Cr6   O3    S    
C14   C19   A    
C52   O17   A    
C21   C26   S    
C50   C51   A    
Cr1   O18   S    
C59   O25   A    
Cr3   O22   S    
C23   C60   S    
Cr2   O13   S    
C13   C19   A    
Cr2   O23   S    
C24   C25   A    
C3    C8    S    
C28   O19   A    
C42   C48   A    
Cr3   O23   S    
C63   O8    A    
C47   H22   S    
C55   H29   S    
Cr5   O8    S    
C64   C66   A    
C27   H8    S    
C24   H3    S    
C3    C9    A    
C34   H1    S    
C12   C68   A    
C44   H19   S    
C31   C32   A    
C70   H41   S    
Cr4   O5    S    
C1    C29   S    
C17   C18   S    
C37   H15   S    
C61   O3    A    
C34   C45   A    
C68   H32   S    
C32   C37   S    
C27   H9    S    
Cr6   O10   S    
C6    C7    A    
C40   O21   A    
C36   H13   S    
C12   C71   A    
C55   H27   S    
C14   H42   S    
C22   C27   S    
C55   C57   S    
C43   C44   A    
C9    C34   A    
Cr5   O11   S    
Cr2   O19   S    
C28   O18   A    
Cr6   O2    S    
C35   H11   S    
C1    O13   A    
C43   C48   A    
C59   O26   A    
C39   C62   S    
C46   C47   S    
C69   H37   S    
C26   H6    S    
C15   H43   S    
C57   O20   S    
C31   C36   S    
C62   O7    A    
C33   H10   S    
C5    H12   S    
C12   C45   S    
Cr5   O26   S    
C65   O5    A    
C53   C58   A    
C64   H28   S    
C39   C44   A    
C28   C58   S    
Cr1   O4    S    
C30   C35   A    
C50   C55   S    
C10   C15   A    
C60   O2    A    
C2    C3    A    
C71   C72   A    
Cr3   O15   S    
C4    O15   A    
C38   C40   S    
C2    H36   S    
C5    C6    A    
Cr4   O25   S    
C70   H40   S    
C16   C19   S    
Cr1   O1    S    
C33   C35   A    
C10   C59   S    
C42   C47   S    
C64   C72   A    
C66   H31   S    
C69   C70   S    
Cr6   O9    S    
C10   C11   A    
C4    O14   A    
C17   H44   S    
C48   C52   S    
C57   H30   S    
C20   C21   A    
Cr4   O24   S    
C18   H2    S    
C49   C50   A    
C2    C23   A    
C25   H5    S    
C43   H18   S    
C14   C15   A    
C33   C38   A    
C40   O12   A    
C4    C9    S    
C30   C63   S    
C60   O27   A    
C72   H4    S    
C18   H46   S    
