data_mof_unit_42156.cif
_audit_creation_date              2012-12-11T16:12:59-0500
_audit_creation_method            fapswitch 2.2
_symmetry_space_group_name_H-M    P1
_symmetry_Int_Tables_number       1
_space_group_crystal_system       triclinic
_cell_length_a                    23.476475
_cell_length_b                    13.551659
_cell_length_c                    28.477444
_cell_angle_alpha                 90.169119
_cell_angle_beta                  90.159666
_cell_angle_gamma                 89.817666
_cell_volume                      9059.84136838

loop_
_atom_site_label
_atom_site_type_symbol
_atom_type_description
_atom_site_fract_x
_atom_site_fract_y
_atom_site_fract_z
_atom_type_partial_charge
C1    C     C_R   0.285131 0.003993 0.816698 0.556809
C2    C     C_3   0.493060 0.730324 0.971993 -0.005229
C3    C     C_R   0.203615 0.030199 0.524426 0.046540
C4    C     C_R   0.291366 0.518114 0.526919 -0.008402
C5    C     C_R   0.710259 0.509422 0.470889 -0.017036
C6    C     C_R   0.808736 0.078202 0.520666 -0.019940
C7    C     C_R   0.201148 0.037105 0.474693 -0.020945
C8    C     C_R   0.250422 0.578057 0.550164 0.039969
C9    C     C_R   0.751687 0.568145 0.447809 0.036367
C10   C     C_R   0.758347 0.094113 0.547261 0.040091
C11   C     C_R   0.247409 0.079910 0.450159 0.036613
C12   C     C_R   0.247664 0.564687 0.452205 0.019453
C13   C     C_3   0.007431 0.230238 0.027662 -0.005389
C14   C     C_R   0.757763 0.546616 0.545164 0.021677
C15   C     C_R   0.750554 0.079188 0.449733 0.014659
C16   C     C_R   0.251744 0.068541 0.548078 0.018645
C17   C     C_1   0.240840 0.555642 0.402356 0.002477
C18   C     C_1   0.763088 0.542201 0.595295 0.005833
C19   C     C_1   0.742380 0.064494 0.400444 0.001211
C20   C     C_1   0.259608 0.056359 0.597658 -0.000553
C21   C     C_1   0.257260 0.599977 0.599266 -0.070647
C22   C     C_1   0.744160 0.594879 0.399316 -0.069542
C23   C     C_1   0.762090 0.110370 0.597007 -0.061346
C24   C     C_3   0.993061 0.230313 0.971992 -0.005353
C25   C     C_1   0.241883 0.100905 0.400833 -0.067614
C26   C     C_1   0.231283 0.539762 0.361691 0.024781
C27   C     C_1   0.770970 0.532183 0.636601 0.027666
C28   C     C_1   0.732175 0.043880 0.360447 0.024234
C29   C     C_1   0.269097 0.039059 0.638164 0.019283
C30   C     C_R   0.284740 0.006728 0.683812 0.536721
C31   C     C_R   0.715541 0.007838 0.315732 0.545208
C32   C     C_R   0.784917 0.505998 0.683500 0.535434
C33   C     C_R   0.215450 0.507357 0.316028 0.543923
C34   C     C_R   0.419209 0.821757 0.678808 0.559492
C35   C     C_1   0.517897 0.840231 0.097356 0.003272
C36   C     C_R   0.553617 0.825481 0.315225 0.542704
C37   C     C_R   0.918580 0.321727 0.678921 0.561981
C38   C     C_R   0.053347 0.325491 0.315076 0.542320
C39   C     C_R   0.274254 0.673586 0.683082 0.535688
C40   C     C_R   0.725825 0.673806 0.316865 0.543800
C41   C     C_R   0.774419 0.173992 0.682938 0.538452
C42   C     C_R   0.225810 0.173758 0.316880 0.545173
C43   C     C_3   0.441513 0.900313 0.979687 -0.081678
C44   C     C_3   0.558084 0.900491 0.020594 -0.081735
C45   C     C_3   0.941517 0.400301 0.979689 -0.081629
C46   C     C_1   0.482006 0.840494 0.902701 0.002363
C47   C     C_3   0.058094 0.400478 0.020588 -0.081667
C48   C     C_3   0.552113 0.900093 0.964451 -0.012166
C49   C     C_3   0.447493 0.899736 0.035828 -0.012031
C50   C     C_3   0.052115 0.400081 0.964446 -0.012242
C51   C     C_3   0.947503 0.399722 0.035829 -0.012110
C52   C     C_1   0.530714 0.833207 0.137914 0.034656
C53   C     C_1   0.469229 0.833443 0.862121 0.033089
C54   C     C_1   0.030722 0.333205 0.137911 0.035186
C55   C     C_1   0.969228 0.333441 0.862120 0.033700
C56   C     C_3   0.449470 0.014156 0.051415 -0.249311
C57   C     C_1   0.017910 0.340226 0.097353 0.003304
C58   C     C_3   0.454431 0.040729 0.104436 -0.298259
C59   C     C_3   0.511354 0.088945 0.116968 -0.418362
C60   C     C_3   0.549547 0.014557 0.949277 -0.249622
C61   C     C_3   0.544409 0.041288 0.896354 -0.297928
C62   C     C_3   0.487208 0.089209 0.884008 -0.417308
C63   C     C_3   0.949481 0.514142 0.051416 -0.249458
C64   C     C_3   0.954442 0.540718 0.104436 -0.298220
C65   C     C_3   0.011365 0.588938 0.116967 -0.418225
C66   C     C_3   0.049548 0.514546 0.949273 -0.249806
C67   C     C_3   0.044408 0.541281 0.896351 -0.297860
C68   C     C_1   0.982005 0.340488 0.902701 0.002279
C69   C     C_3   0.987205 0.589205 0.884010 -0.417133
C70   C     C_2   0.462486 0.643507 0.543077 0.256744
C71   C     C_2   0.498876 0.648445 0.442073 0.270577
C72   C     C_2   0.011298 0.172070 0.552907 0.257225
C73   C     C_2   0.023251 0.157897 0.448630 0.248859
C74   C     C_3   0.160835 0.688766 0.547724 -0.247514
C75   C     C_3   0.102000 0.640620 0.542569 -0.296427
C76   C     C_3   0.055163 0.707163 0.562243 -0.448537
C77   C     C_3   0.843510 0.668223 0.446488 -0.244897
C78   C     C_3   0.895464 0.700403 0.475764 -0.321225
C79   C     C_1   0.264377 0.627645 0.859179 0.004102
C80   C     C_3   0.939029 0.754627 0.445771 -0.438399
C81   C     C_3   0.651339 0.121137 0.554993 -0.245502
C82   C     C_3   0.594735 0.130886 0.528022 -0.314402
C83   C     C_3   0.545310 0.150633 0.561499 -0.446059
C84   C     C_3   0.346452 0.155323 0.446391 -0.239396
C85   C     C_3   0.396496 0.195719 0.475507 -0.310355
C86   C     C_3   0.443814 0.234783 0.444006 -0.442028
C87   C     C_2   0.334397 0.455373 0.450818 0.200718
C88   C     C_2   0.672972 0.431842 0.545785 0.211334
C89   C     C_2   0.856665 0.057201 0.441700 0.210039
C90   C     C_1   0.735764 0.627220 0.140854 0.003963
C91   C     C_2   0.157042 0.980720 0.551139 0.267177
C92   C     C_3   0.333050 0.456971 0.556172 -0.243507
C93   C     C_3   0.302885 0.368729 0.578680 -0.308966
C94   C     C_3   0.343718 0.309487 0.609530 -0.448774
C95   C     C_3   0.662972 0.459673 0.442575 -0.259179
C96   C     C_3   0.676409 0.350213 0.434011 -0.313380
C97   C     C_3   0.629035 0.300571 0.405822 -0.449640
C98   C     C_3   0.865994 0.062756 0.545203 -0.261153
C99   C     C_3   0.882161 0.952978 0.545438 -0.302791
C100  C     C_3   0.940658 0.935639 0.567402 -0.439208
C101  C     C_1   0.764378 0.127650 0.859181 0.004116
C102  C     C_3   0.149487 0.999839 0.447484 -0.255605
C103  C     C_3   0.159898 0.894755 0.429329 -0.316994
C104  C     C_3   0.105883 0.850891 0.408038 -0.438263
C105  C     C_3   0.606085 0.861333 0.933908 -0.263888
C106  C     C_3   0.652432 0.783964 0.946998 -0.329568
C107  C     C_3   0.699883 0.785444 0.910043 -0.438531
C108  C     C_3   0.393729 0.860629 0.066236 -0.263798
C109  C     C_3   0.347780 0.783114 0.052872 -0.329134
C110  C     C_3   0.300424 0.784047 0.089918 -0.438921
C111  C     C_3   0.106084 0.361320 0.933899 -0.263959
C112  C     C_R   0.714862 0.003835 0.183258 0.554411
C113  C     C_1   0.235762 0.127224 0.140852 0.003903
C114  C     C_3   0.152427 0.283936 0.946979 -0.329731
C115  C     C_3   0.199891 0.285458 0.910035 -0.438175
C116  C     C_3   0.893743 0.360613 0.066241 -0.263875
C117  C     C_3   0.847799 0.283083 0.052884 -0.329310
C118  C     C_3   0.800434 0.284044 0.089922 -0.438558
C119  C     C_2   0.618693 0.891281 0.038726 0.161608
C120  C     C_2   0.380946 0.890911 0.961531 0.161457
C121  C     C_2   0.118705 0.391254 0.038713 0.161720
C122  C     C_2   0.880948 0.390890 0.961539 0.161504
C123  C     C_2   0.434536 0.684505 0.960789 0.363895
C124  C     C_R   0.291017 0.504068 0.969010 0.035848
C125  C     C_2   0.566175 0.684646 0.038700 0.364030
C126  C     C_2   0.934536 0.184498 0.960795 0.363869
C127  C     C_2   0.066192 0.184643 0.038694 0.364014
C128  C     C_2   0.533952 0.664607 0.943963 0.235420
C129  C     C_2   0.466864 0.664239 0.055455 0.235283
C130  C     C_2   0.033942 0.164587 0.943955 0.235452
C131  C     C_2   0.966893 0.164213 0.055456 0.235319
C132  C     C_2   0.331070 0.447584 0.938287 0.223037
C133  C     C_2   0.669937 0.446638 0.061339 0.222772
C134  C     C_2   0.831086 0.947612 0.938289 0.223086
C135  C     C_R   0.709513 0.503653 0.030757 0.036910
C136  C     C_2   0.169919 0.946667 0.061333 0.222712
C137  C     C_3   0.334398 0.422880 0.041151 -0.219634
C138  C     C_3   0.345452 0.427433 0.094262 -0.309143
C139  C     C_3   0.398160 0.367210 0.107677 -0.432634
C140  C     C_3   0.666414 0.422605 0.958366 -0.219268
C141  C     C_3   0.655057 0.427606 0.905316 -0.308260
C142  C     C_3   0.602645 0.367146 0.891775 -0.430816
C143  C     C_3   0.834401 0.922878 0.041150 -0.219923
C144  C     C_3   0.845421 0.927357 0.094266 -0.308936
C145  C     C_3   0.898118 0.867111 0.107685 -0.431994
C146  C     C_R   0.791022 0.004075 0.969012 0.035818
C147  C     C_3   0.166406 0.922620 0.958361 -0.219522
C148  C     C_3   0.155057 0.927607 0.905310 -0.308029
C149  C     C_3   0.102648 0.867142 0.891766 -0.430195
C150  C     C_R   0.209503 0.003670 0.030753 0.036894
C151  C     C_R   0.290104 0.492528 0.019050 0.029746
C152  C     C_R   0.710291 0.492533 0.980680 0.030108
C153  C     C_R   0.790106 0.992527 0.019051 0.029713
C154  C     C_R   0.210283 0.992547 0.980675 0.030082
C155  C     C_R   0.209880 0.609072 0.021720 -0.151506
C156  C     C_R   0.785133 0.503989 0.816700 0.554600
C157  C     C_R   0.789716 0.609881 0.978312 -0.152602
C158  C     C_R   0.709882 0.109071 0.021722 -0.151482
C159  C     C_R   0.289710 0.109890 0.978309 -0.152582
C160  C     C_R   0.212635 0.621818 0.973642 -0.136349
C161  C     C_R   0.787068 0.622230 0.026433 -0.137008
C162  C     C_R   0.712635 0.121816 0.973643 -0.136336
C163  C     C_R   0.287063 0.122237 0.026430 -0.136982
C164  C     C_R   0.253325 0.571727 0.947353 -0.008431
C165  C     C_R   0.746863 0.571461 0.052586 -0.007899
C166  C     C_R   0.753328 0.071730 0.947354 -0.008440
C167  C     C_R   0.214862 0.503833 0.183257 0.552498
C168  C     C_R   0.246855 0.071471 0.052583 -0.007885
C169  C     C_R   0.248361 0.547113 0.045007 0.017151
C170  C     C_R   0.751560 0.547723 0.954885 0.017532
C171  C     C_R   0.748362 0.047112 0.045008 0.017130
C172  C     C_R   0.251553 0.047735 0.954881 0.017508
C173  C     C_R   0.445992 0.824408 0.816425 0.571411
C174  C     C_R   0.554011 0.824390 0.183580 0.558645
C175  C     C_R   0.945992 0.324408 0.816425 0.572803
C176  C     C_R   0.054013 0.324390 0.183579 0.559812
C177  C     C_1   0.239698 0.538781 0.094898 -0.057967
C178  C     C_3   0.492743 0.842363 0.953595 0.000440
C179  C     C_1   0.760231 0.539493 0.905019 -0.057925
C180  C     C_1   0.739699 0.038783 0.094899 -0.058027
C181  C     C_1   0.260226 0.039504 0.905016 -0.057991
C182  C     C_1   0.258264 0.597916 0.898572 -0.066466
C183  C     C_1   0.741914 0.597403 0.101419 -0.066416
C184  C     C_1   0.758266 0.097921 0.898574 -0.066558
C185  C     C_1   0.241908 0.097409 0.101417 -0.066474
C186  C     C_1   0.229674 0.528681 0.136077 -0.009182
C187  C     C_1   0.770297 0.529279 0.863851 -0.009575
C188  C     C_1   0.729675 0.028683 0.136078 -0.008856
C189  C     C_3   0.507154 0.842219 0.046471 0.000332
C190  C     C_1   0.270294 0.029288 0.863849 -0.009306
C191  C     C_1   0.434191 0.828341 0.630472 -0.019117
C192  C     C_1   0.522968 0.834201 0.358168 -0.018565
C193  C     C_1   0.932381 0.328563 0.630331 -0.014988
C194  C     C_1   0.022476 0.334083 0.357963 -0.017886
C195  C     C_R   0.467610 0.737636 0.516473 0.050119
C196  C     C_R   0.481239 0.739236 0.467875 0.049183
C197  C     C_R   0.987466 0.248486 0.520829 0.027441
C198  C     C_R   0.998294 0.246492 0.471866 0.043716
C199  C     C_R   0.468972 0.918333 0.467598 -0.128880
C200  C     C_3   0.992744 0.342352 0.953594 0.000423
C201  C     C_R   0.457547 0.917116 0.515443 -0.122858
C202  C     C_R   0.952469 0.407586 0.464026 -0.126892
C203  C     C_R   0.937967 0.405921 0.511386 -0.122143
C204  C     C_R   0.457410 0.828062 0.539974 -0.015071
C205  C     C_R   0.481248 0.830519 0.443860 -0.018211
C206  C     C_R   0.955961 0.327936 0.539889 -0.018553
C207  C     C_R   0.982841 0.328992 0.444291 -0.013462
C208  C     C_1   0.501613 0.835912 0.396410 -0.078788
C209  C     C_1   0.445113 0.830401 0.589340 -0.084676
C210  C     C_1   0.001501 0.335261 0.396377 -0.073474
C211  C     C_3   0.007166 0.342207 0.046469 0.000355
C212  C     C_1   0.942903 0.330928 0.589122 -0.080115
C213  C     C_1   0.264425 0.627836 0.638823 -0.024810
C214  C     C_1   0.736465 0.625952 0.360423 -0.020070
C215  C     C_1   0.766463 0.133242 0.637478 -0.010425
C216  C     C_1   0.235536 0.128458 0.361187 -0.015973
C217  C     C_R   0.206920 0.626545 0.524667 0.004870
C218  C     C_R   0.797892 0.610028 0.472733 0.002512
C219  C     C_R   0.704510 0.102626 0.525309 0.007653
C220  C     C_R   0.296305 0.114011 0.474193 0.007691
C221  C     C_R   0.274337 0.673433 0.814852 0.559843
C222  C     C_3   0.507416 0.730248 0.027665 -0.005273
C223  C     C_R   0.725721 0.673327 0.185185 0.555844
C224  C     C_R   0.774338 0.173436 0.814853 0.558720
C225  C     C_R   0.225720 0.173328 0.185185 0.555119
C226  C     C_R   0.206501 0.619273 0.475894 -0.136204
C227  C     C_R   0.799549 0.599281 0.521515 -0.129085
C228  C     C_R   0.701621 0.093514 0.476481 -0.128589
C229  C     C_R   0.297324 0.108112 0.523239 -0.129921
C230  C     C_R   0.290541 0.512830 0.477028 0.052664
C231  C     C_R   0.714143 0.496621 0.520374 0.045514
C232  C     C_R   0.804671 0.071474 0.471018 0.031192
Cr1   Cr    Cr6+3 0.250680 0.837130 0.748990 1.037097
Cr2   Cr    Cr6+3 0.623910 0.707720 0.250330 1.052249
Cr3   Cr    Cr6+3 0.876090 0.207720 0.749670 1.047646
Cr4   Cr    Cr6+3 0.123910 0.207720 0.250330 1.053064
Cr5   Cr    Cr6+3 0.749320 0.837130 0.251010 1.043969
Cr6   Cr    Cr6+3 0.750680 0.337130 0.748990 1.041627
Cr7   Cr    Cr6+3 0.249320 0.337130 0.251010 1.044588
Cr8   Cr    Cr6+3 0.378160 0.960100 0.750430 1.024772
Cr9   Cr    Cr6+3 0.621840 0.960100 0.249570 1.025973
Cr10  Cr    Cr6+3 0.878160 0.460100 0.750430 1.028238
Cr11  Cr    Cr6+3 0.121840 0.460100 0.249570 1.027908
Cr12  Cr    Cr6+3 0.376090 0.707720 0.749670 1.046167
H1    H     H_    0.182966 0.671912 0.956794 0.116953
H2    H     H_    0.833173 0.632575 0.542129 0.104413
H3    H     H_    0.942272 0.966635 0.603530 0.162694
H4    H     H_    0.949320 0.855136 0.569184 0.136478
H5    H     H_    0.849809 0.911097 0.565618 0.165809
H6    H     H_    0.882841 0.923853 0.509011 0.182913
H7    H     H_    0.899368 0.106963 0.527891 0.134937
H8    H     H_    0.865783 0.089876 0.581968 0.152647
H9    H     H_    0.072004 0.845949 0.435080 0.165142
H10   H     H_    0.090542 0.897227 0.378451 0.174925
H11   H     H_    0.115018 0.775482 0.394619 0.141046
H12   H     H_    0.193869 0.895620 0.402223 0.174126
H13   H     H_    0.661099 0.096834 0.458420 0.107815
H14   H     H_    0.174403 0.846827 0.458576 0.148687
H15   H     H_    0.110661 0.002218 0.469360 0.201567
H16   H     H_    0.139327 0.049232 0.417549 0.158467
H17   H     H_    0.718240 0.860465 0.906495 0.166147
H18   H     H_    0.734971 0.735871 0.920524 0.184556
H19   H     H_    0.683197 0.760853 0.875405 0.144759
H20   H     H_    0.673495 0.798161 0.980905 0.188929
H21   H     H_    0.636420 0.707873 0.946899 0.164637
H22   H     H_    0.590497 0.838714 0.898793 0.127948
H23   H     H_    0.632989 0.926601 0.926062 0.157581
H24   H     H_    0.334079 0.132678 0.542958 0.106463
H25   H     H_    0.317291 0.758940 0.124373 0.142745
H26   H     H_    0.281792 0.859003 0.093968 0.165765
H27   H     H_    0.265499 0.734634 0.079181 0.185591
H28   H     H_    0.326557 0.797493 0.019066 0.188983
H29   H     H_    0.364194 0.707108 0.052595 0.164551
H30   H     H_    0.409440 0.837955 0.101268 0.126911
H31   H     H_    0.366487 0.925746 0.074314 0.157377
H32   H     H_    0.218248 0.360483 0.906510 0.166210
H33   H     H_    0.234975 0.235874 0.920511 0.184464
H34   H     H_    0.183216 0.260906 0.875387 0.146029
H35   H     H_    0.446494 0.976734 0.968096 0.102241
H36   H     H_    0.173476 0.298081 0.980896 0.188945
H37   H     H_    0.136413 0.207846 0.946852 0.164627
H38   H     H_    0.090494 0.338715 0.898783 0.128508
H39   H     H_    0.132990 0.426589 0.926059 0.157667
H40   H     H_    0.817294 0.258976 0.124386 0.143958
H41   H     H_    0.781796 0.359000 0.093952 0.165836
H42   H     H_    0.765515 0.234614 0.079190 0.185512
H43   H     H_    0.826585 0.297426 0.019071 0.188992
H44   H     H_    0.864217 0.207079 0.052628 0.164551
H45   H     H_    0.909456 0.337948 0.101273 0.127386
H46   H     H_    0.552715 0.976845 0.032462 0.102157
H47   H     H_    0.866498 0.425729 0.074315 0.157451
H48   H     H_    0.651273 0.935172 0.022051 0.125426
H49   H     H_    0.348144 0.934599 0.978373 0.125793
H50   H     H_    0.151286 0.435131 0.022031 0.125423
H51   H     H_    0.848145 0.434567 0.978387 0.125814
H52   H     H_    0.398945 0.696424 0.983425 0.122867
H53   H     H_    0.601690 0.696722 0.016079 0.123046
H54   H     H_    0.898960 0.196341 0.983456 0.122799
H55   H     H_    0.101682 0.196546 0.016024 0.122960
H56   H     H_    0.550331 0.687915 0.910309 0.104116
H57   H     H_    0.946494 0.476721 0.968097 0.102240
H58   H     H_    0.450356 0.687358 0.089189 0.103391
H59   H     H_    0.050317 0.187897 0.910300 0.104747
H60   H     H_    0.950382 0.187332 0.089189 0.104023
H61   H     H_    0.347719 0.481033 0.906628 0.166416
H62   H     H_    0.653232 0.479710 0.093204 0.165443
H63   H     H_    0.847735 0.981076 0.906634 0.166578
H64   H     H_    0.153208 0.979749 0.093194 0.165547
H65   H     H_    0.392971 0.289040 0.096606 0.141732
H66   H     H_    0.436795 0.398099 0.090853 0.211022
H67   H     H_    0.404131 0.369481 0.146359 0.151771
H68   H     H_    0.052729 0.476832 0.032459 0.102133
H69   H     H_    0.352220 0.505129 0.105551 0.181318
H70   H     H_    0.308937 0.394418 0.113153 0.189651
H71   H     H_    0.322242 0.346061 0.032157 0.176335
H72   H     H_    0.375971 0.438644 0.024193 0.225608
H73   H     H_    0.608372 0.288903 0.902419 0.141139
H74   H     H_    0.563910 0.397558 0.908895 0.211566
H75   H     H_    0.596456 0.369785 0.853127 0.153259
H76   H     H_    0.647785 0.505362 0.894433 0.182669
H77   H     H_    0.691661 0.395005 0.886138 0.189766
H78   H     H_    0.679203 0.345848 0.966919 0.176270
H79   H     H_    0.177310 0.648700 0.041121 0.158413
H80   H     H_    0.624807 0.437704 0.975541 0.225850
H81   H     H_    0.892939 0.788960 0.096580 0.141506
H82   H     H_    0.936766 0.898032 0.090895 0.210997
H83   H     H_    0.904060 0.869312 0.146371 0.153347
H84   H     H_    0.852187 0.005036 0.105583 0.181900
H85   H     H_    0.808892 0.894323 0.113131 0.189639
H86   H     H_    0.822265 0.846063 0.032130 0.176392
H87   H     H_    0.875981 0.938689 0.024212 0.225591
H88   H     H_    0.108375 0.788901 0.902414 0.140950
H89   H     H_    0.063909 0.897556 0.908881 0.211604
H90   H     H_    0.821954 0.649929 0.959003 0.158042
H91   H     H_    0.096465 0.869773 0.853117 0.154569
H92   H     H_    0.147786 0.005360 0.894422 0.183245
H93   H     H_    0.191664 0.895003 0.886138 0.189768
H94   H     H_    0.179191 0.845863 0.966920 0.176284
H95   H     H_    0.124797 0.937726 0.975532 0.225830
H96   H     H_    0.677312 0.148699 0.041123 0.158418
H97   H     H_    0.816419 0.672555 0.043429 0.116740
H98   H     H_    0.321949 0.149935 0.959001 0.158041
H99   H     H_    0.547478 0.038332 0.109789 0.177414
H100  H     H_    0.517132 0.157887 0.096541 0.158072
H101  H     H_    0.511933 0.107900 0.154927 0.150259
H102  H     H_    0.420336 0.094841 0.113255 0.143721
H103  H     H_    0.447365 0.977243 0.127892 0.152689
H104  H     H_    0.479619 0.060150 0.032357 0.125501
H105  H     H_    0.408933 0.048242 0.038935 0.110907
H106  H     H_    0.451372 0.038346 0.890988 0.176774
H107  H     H_    0.481033 0.158016 0.904701 0.159129
H108  H     H_    0.682965 0.171907 0.956795 0.116925
H109  H     H_    0.486520 0.108341 0.846124 0.152275
H110  H     H_    0.578192 0.095638 0.887722 0.144017
H111  H     H_    0.551830 0.977928 0.872669 0.154210
H112  H     H_    0.519173 0.060349 0.968512 0.125625
H113  H     H_    0.589919 0.048780 0.961863 0.110875
H114  H     H_    0.047489 0.538327 0.109787 0.177281
H115  H     H_    0.017140 0.657880 0.096540 0.158147
H116  H     H_    0.011945 0.607893 0.154926 0.150723
H117  H     H_    0.920346 0.594830 0.113255 0.143964
H118  H     H_    0.947377 0.477235 0.127893 0.153046
H119  H     H_    0.316416 0.172556 0.043427 0.116724
H120  H     H_    0.979630 0.560134 0.032357 0.125531
H121  H     H_    0.908944 0.548229 0.038936 0.110940
H122  H     H_    0.951370 0.538341 0.890990 0.176626
H123  H     H_    0.981033 0.658009 0.904704 0.159182
H124  H     H_    0.986515 0.608340 0.846125 0.152847
H125  H     H_    0.078190 0.595631 0.887719 0.144279
H126  H     H_    0.051826 0.477924 0.872664 0.154729
H127  H     H_    0.019175 0.560335 0.968510 0.125654
H128  H     H_    0.089921 0.548768 0.961858 0.110911
H129  H     H_    0.471088 0.641754 0.580515 0.111057
H130  H     H_    0.470192 0.988375 0.449372 0.116494
H131  H     H_    0.487137 0.638925 0.405455 0.103190
H132  H     H_    0.989220 0.153027 0.585031 0.105684
H133  H     H_    0.051648 0.165835 0.418911 0.108761
H134  H     H_    0.062696 0.721990 0.600132 0.171634
H135  H     H_    0.053883 0.778238 0.542907 0.153474
H136  H     H_    0.013233 0.670336 0.558158 0.140658
H137  H     H_    0.092322 0.625812 0.504988 0.162866
H138  H     H_    0.101722 0.569170 0.561655 0.178658
H139  H     H_    0.169182 0.701897 0.585568 0.168700
H140  H     H_    0.160424 0.762207 0.530758 0.125311
H141  H     H_    0.449183 0.985972 0.533594 0.110831
H142  H     H_    0.955223 0.705509 0.417475 0.152653
H143  H     H_    0.919548 0.821503 0.429883 0.205246
H144  H     H_    0.975476 0.777758 0.468133 0.144623
H145  H     H_    0.881664 0.750755 0.504341 0.157832
H146  H     H_    0.916432 0.634714 0.491489 0.153476
H147  H     H_    0.859310 0.621445 0.417091 0.148538
H148  H     H_    0.823245 0.735072 0.431122 0.175770
H149  H     H_    0.540617 0.088509 0.586544 0.160841
H150  H     H_    0.552508 0.220172 0.581368 0.173482
H151  H     H_    0.505190 0.158098 0.541142 0.134602
H152  H     H_    0.940230 0.470453 0.442793 0.119374
H153  H     H_    0.597276 0.193255 0.502854 0.159751
H154  H     H_    0.585760 0.061489 0.508468 0.169121
H155  H     H_    0.647289 0.059466 0.580434 0.149919
H156  H     H_    0.657893 0.190336 0.575340 0.196835
H157  H     H_    0.461008 0.174569 0.421558 0.144295
H158  H     H_    0.427478 0.295096 0.421302 0.193276
H159  H     H_    0.478974 0.264295 0.466056 0.149405
H160  H     H_    0.381367 0.256873 0.498395 0.167294
H161  H     H_    0.414604 0.136123 0.497655 0.144952
H162  H     H_    0.362738 0.095771 0.423016 0.141977
H163  H     H_    0.913971 0.466884 0.526189 0.117994
H164  H     H_    0.330469 0.216011 0.423770 0.210767
H165  H     H_    0.378590 0.456259 0.461796 0.143565
H166  H     H_    0.631198 0.416340 0.531515 0.115974
H167  H     H_    0.896607 0.090795 0.451736 0.148917
H168  H     H_    0.130587 0.925365 0.534568 0.088347
H169  H     H_    0.379880 0.280757 0.588401 0.145116
H170  H     H_    0.360497 0.356487 0.638408 0.165544
H171  H     H_    0.320823 0.246097 0.625167 0.156994
H172  H     H_    0.266683 0.394349 0.600647 0.180204
H173  H     H_    0.285735 0.319857 0.550622 0.179580
H174  H     H_    0.173507 0.656870 0.455998 0.107344
H175  H     H_    0.369066 0.427897 0.535440 0.163234
H176  H     H_    0.352745 0.504139 0.583735 0.174278
H177  H     H_    0.588434 0.302725 0.425751 0.154616
H178  H     H_    0.622988 0.338318 0.371591 0.166441
H179  H     H_    0.640522 0.222414 0.398864 0.145507
H180  H     H_    0.717019 0.343468 0.414244 0.176807
H181  H     H_    0.681555 0.310914 0.467922 0.171517
H182  H     H_    0.621382 0.468645 0.460369 0.182346
H183  H     H_    0.656336 0.495551 0.408044 0.169636
H184  H     H_    0.974192 0.970259 0.545619 0.212330
O1    O     O_R   0.237900 0.735050 0.799950 -0.515971
O2    O     O_R   0.566580 0.739640 0.301090 -0.510867
O3    O     O_R   0.933420 0.239640 0.698910 -0.508625
O4    O     O_R   0.066580 0.239640 0.301090 -0.510746
O5    O     O_R   0.323550 0.666510 0.701520 -0.517922
O6    O     O_R   0.676450 0.666510 0.298480 -0.499453
O7    O     O_R   0.823550 0.166510 0.701520 -0.523926
O8    O     O_R   0.176450 0.166510 0.298480 -0.504132
O9    O     O_3   0.334980 0.834990 0.749700 -0.271413
O10   O     O_3   0.665020 0.834990 0.250300 -0.249236
O11   O     O_3   0.834980 0.334990 0.749700 -0.273622
O12   O     O_R   0.762100 0.735050 0.200050 -0.518432
O13   O     O_3   0.165020 0.334990 0.250300 -0.249207
O14   O     O_R   0.256160 0.936210 0.796950 -0.497237
O15   O     O_R   0.743840 0.936210 0.203050 -0.500141
O16   O     O_R   0.756160 0.436210 0.796950 -0.499795
O17   O     O_R   0.243840 0.436210 0.203050 -0.502306
O18   O     O_R   0.333710 0.029860 0.801630 -0.500660
O19   O     O_R   0.666290 0.029860 0.198370 -0.502469
O20   O     O_R   0.833710 0.529860 0.801630 -0.500661
O21   O     O_R   0.166290 0.529860 0.198370 -0.502568
O22   O     O_R   0.425340 0.901920 0.798280 -0.497064
O23   O     O_R   0.737900 0.235050 0.799950 -0.517674
O24   O     O_R   0.574660 0.901920 0.201720 -0.503120
O25   O     O_R   0.925340 0.401920 0.798280 -0.497264
O26   O     O_R   0.074660 0.401920 0.201720 -0.503327
O27   O     O_R   0.433530 0.738890 0.801610 -0.477642
O28   O     O_R   0.566470 0.738890 0.198390 -0.483891
O29   O     O_R   0.933530 0.238890 0.801610 -0.476394
O30   O     O_R   0.066470 0.238890 0.198390 -0.482172
O31   O     O_R   0.323650 0.665810 0.796720 -0.477081
O32   O     O_R   0.676350 0.665810 0.203280 -0.478501
O33   O     O_R   0.823650 0.165810 0.796720 -0.477096
O34   O     O_R   0.262100 0.235050 0.200050 -0.519687
O35   O     O_R   0.176350 0.165810 0.203280 -0.478359
O36   O     O_R   0.237790 0.735800 0.697250 -0.504401
O37   O     O_R   0.762210 0.735800 0.302750 -0.504189
O38   O     O_R   0.737790 0.235800 0.697250 -0.489296
O39   O     O_R   0.262210 0.235800 0.302750 -0.494516
O40   O     O_R   0.256050 0.936910 0.701750 -0.480030
O41   O     O_R   0.743950 0.936910 0.298250 -0.476592
O42   O     O_R   0.756050 0.436910 0.701750 -0.474718
O43   O     O_R   0.243950 0.436910 0.298250 -0.473187
O44   O     O_R   0.333600 0.030610 0.698930 -0.528425
O45   O     O_R   0.425240 0.902610 0.703070 -0.496202
O46   O     O_R   0.666400 0.030610 0.301070 -0.522034
O47   O     O_R   0.833600 0.530610 0.698930 -0.526757
O48   O     O_R   0.166400 0.530610 0.301070 -0.520376
O49   O     O_2   0.446317 0.567873 0.524007 -0.526480
O50   O     O_2   0.529094 0.586216 0.460600 -0.501659
O51   O     O_2   0.057087 0.132778 0.544867 -0.464558
O52   O     O_2   0.009944 0.074951 0.461012 -0.536833
O53   O     O_2   0.321703 0.406956 0.416156 -0.528903
O54   O     O_2   0.685741 0.392179 0.582797 -0.515991
O55   O     O_2   0.855735 0.006320 0.406259 -0.509807
O56   O     O_R   0.574760 0.902610 0.296930 -0.499471
O57   O     O_2   0.146884 0.002118 0.591946 -0.470038
O58   O     O_2   0.632020 0.841277 0.072601 -0.502293
O59   O     O_2   0.367871 0.840992 0.927470 -0.503268
O60   O     O_2   0.132033 0.341256 0.072589 -0.502140
O61   O     O_2   0.867870 0.340976 0.927477 -0.503261
O62   O     O_2   0.425662 0.637060 0.924867 -0.477458
O63   O     O_2   0.575312 0.637198 0.074474 -0.477539
O64   O     O_2   0.925638 0.137157 0.924846 -0.477237
O65   O     O_2   0.075365 0.137428 0.074531 -0.477317
O66   O     O_2   0.543468 0.579644 0.956042 -0.499463
O67   O     O_R   0.925240 0.402610 0.703070 -0.493709
O68   O     O_2   0.457792 0.579274 0.043072 -0.499139
O69   O     O_2   0.043450 0.079620 0.956030 -0.499448
O70   O     O_2   0.957836 0.079241 0.043076 -0.499068
O71   O     O_2   0.343690 0.361904 0.946482 -0.559348
O72   O     O_2   0.657783 0.360947 0.052778 -0.560307
O73   O     O_2   0.843715 0.861934 0.946479 -0.559239
O74   O     O_2   0.157765 0.860974 0.052776 -0.560247
O75   O     O_R   0.074760 0.402610 0.296930 -0.498172
O76   O     O_R   0.433420 0.739640 0.698910 -0.510451

loop_
_geom_bond_atom_site_label_1
_geom_bond_atom_site_label_2
_ccdc_geom_bond_type
C9    C218  A    
C63   H121  S    
C93   H172  S    
Cr8   O45   S    
C130  H59   S    
C62   H109  S    
C74   H139  S    
C132  H61   S    
C39   O36   A    
C72   H132  S    
C114  C115  S    
C136  O74   D    
C23   C215  T    
C125  C222  S    
C45   C200  S    
C58   H102  S    
Cr6   O38   S    
C41   O38   A    
C127  O65   D    
C96   H181  S    
C98   H7    S    
Cr9   O19   S    
Cr10  O20   S    
C106  C107  S    
C65   H115  S    
C143  C144  S    
C123  O62   D    
C199  C205  A    
C108  C109  S    
C54   C176  S    
Cr12  O27   S    
Cr9   O56   S    
C202  H152  S    
C41   O7    A    
C176  O26   A    
C70   C195  S    
C131  O70   D    
C207  C210  S    
C143  H87   S    
C5    C231  A    
C31   O41   A    
C49   C108  S    
C140  C152  S    
C174  O28   A    
Cr9   O10   S    
C43   C120  S    
C1    C190  S    
C91   H168  S    
C225  O35   A    
C103  H12   S    
C140  H80   S    
C197  C206  A    
C138  H70   S    
C229  H24   S    
C162  H108  S    
C128  H56   S    
C134  C146  S    
C78   H145  S    
Cr11  O48   S    
C159  C172  A    
C30   O44   A    
C165  C183  S    
C166  C184  S    
C140  C141  S    
C44   C119  S    
C63   H120  S    
C2    C123  S    
C95   H183  S    
C177  C186  T    
C47   H68   S    
C84   H162  S    
C75   C76   S    
C152  C170  A    
C181  C190  T    
C155  C169  A    
C113  C225  S    
C48   C105  S    
C82   H154  S    
C150  C168  A    
Cr12  O31   S    
C112  O15   A    
C83   H151  S    
C107  H17   S    
C1    O14   A    
C117  H44   S    
C141  H76   S    
C101  C184  T    
C66   H128  S    
C91   O57   D    
C147  H95   S    
C156  O20   A    
C111  H38   S    
C40   O6    A    
C6    C98   S    
C156  C187  S    
C59   H100  S    
C175  O25   A    
C106  H21   S    
C69   H124  S    
C119  O58   D    
C81   H156  S    
C144  C145  S    
C137  H71   S    
C3    C7    A    
C51   C116  S    
C79   C182  T    
C92   H176  S    
C90   C223  S    
C36   O56   A    
C71   O50   D    
C227  H2    S    
C61   H111  S    
C139  H66   S    
C46   C53   T    
C39   O5    A    
C102  H16   S    
Cr3   O29   S    
Cr5   O41   S    
C100  H3    S    
Cr11  O13   S    
C223  O12   A    
C104  H9    S    
Cr10  O11   S    
C13   C127  S    
C206  C212  S    
C43   H35   S    
C90   C183  T    
C24   C200  S    
C98   C99   S    
C40   C214  S    
C133  C135  S    
C109  C110  S    
C72   O51   D    
C161  C165  A    
Cr12  O76   S    
Cr10  O25   S    
C146  C166  A    
C57   C211  S    
C43   C178  S    
C6    C232  A    
C132  O71   D    
C147  C148  S    
C99   H5    S    
C108  H31   S    
C48   C178  S    
C53   C173  S    
Cr12  O5    S    
C204  C209  S    
C5    C9    A    
C71   H131  S    
C29   C30   S    
C220  C229  A    
C84   H164  S    
Cr11  O75   S    
C62   H106  S    
C34   O76   A    
C41   C215  S    
C175  O29   A    
C78   C80   S    
C47   C121  S    
C155  H79   S    
C11   C25   S    
C60   H113  S    
Cr4   O13   S    
C83   H149  S    
C120  O59   D    
C33   O48   A    
C118  H41   S    
C8    C217  A    
C84   C220  S    
C223  O32   A    
C76   H135  S    
C172  C181  S    
C145  H81   S    
C45   H57   S    
C219  C228  A    
C107  H18   S    
Cr2   O10   S    
C66   C67   S    
C67   H125  S    
C86   H159  S    
C24   C126  S    
C69   H123  S    
C97   H177  S    
C169  C177  S    
C10   C219  A    
C47   C50   S    
C85   H161  S    
C39   C213  S    
C142  H74   S    
C122  O61   D    
C164  C182  S    
C138  C139  S    
C110  H26   S    
C161  H97   S    
C189  C222  S    
C77   H147  S    
C7    C102  S    
C42   O39   A    
C195  C196  A    
Cr1   O14   S    
C174  O24   A    
C94   H171  S    
C194  C210  T    
C136  H64   S    
C26   C33   S    
C12   C226  A    
C85   H160  S    
C113  C185  T    
C73   C198  S    
C64   H117  S    
C19   C28   T    
Cr3   O3    S    
C191  C209  T    
Cr4   O4    S    
C101  C224  S    
C124  C151  A    
C163  H119  S    
C202  C207  A    
C30   O40   A    
C103  H14   S    
C21   C213  T    
C70   H129  S    
C52   C174  S    
C103  C104  S    
C115  H34   S    
C198  C207  A    
C36   C192  S    
C111  H39   S    
C74   H140  S    
C42   O8    A    
C129  C222  S    
C87   O53   D    
Cr5   O10   S    
C105  H23   S    
C58   H103  S    
C217  C226  A    
C134  O73   D    
C151  C169  A    
C170  C179  S    
C1    O18   A    
C163  C168  A    
C117  C118  S    
C98   H8    S    
Cr1   O40   S    
C65   H114  S    
C89   O55   D    
C50   C111  S    
C130  O69   D    
C56   C58   S    
C145  H83   S    
C197  C198  A    
C138  H69   S    
C80   H143  S    
C102  C103  S    
C133  H62   S    
C80   H142  S    
C127  H55   S    
C63   C64   S    
C24   C130  S    
C139  H67   S    
Cr4   O8    S    
C203  H163  S    
Cr4   O30   S    
C2    C178  S    
C4    C92   S    
C97   H179  S    
Cr2   O32   S    
C224  O23   A    
C3    C16   A    
C144  H85   S    
C54   C57   T    
C125  O63   D    
C225  O34   A    
C13   C211  S    
C93   H173  S    
C160  H1    S    
C55   C68   T    
Cr11  O21   S    
Cr1   O1    S    
C77   C78   S    
C15   C19   S    
C78   H146  S    
C104  H11   S    
Cr4   O35   S    
Cr5   O37   S    
C160  C164  A    
C94   H169  S    
C108  H30   S    
C129  O68   D    
C143  C153  S    
C179  C187  T    
C81   C219  S    
C86   H157  S    
C2    C222  S    
C3    C91   S    
C46   C178  S    
C180  C188  T    
C73   O52   D    
C5    C95   S    
C162  C166  A    
C115  H32   S    
Cr3   O11   S    
C60   H112  S    
C12   C17   S    
Cr7   O17   S    
C117  H43   S    
C144  H84   S    
C75   H138  S    
C76   H134  S    
Cr12  O9    S    
C35   C189  S    
C141  H77   S    
Cr7   O34   S    
Cr8   O22   S    
C42   C216  S    
C38   O75   A    
Cr5   O12   S    
Cr9   O24   S    
Cr6   O11   S    
C79   C221  S    
C129  H58   S    
C203  C206  A    
C59   H99   S    
C32   O47   A    
Cr9   O46   S    
C56   H104  S    
C51   C63   S    
C84   C85   S    
Cr1   O36   S    
Cr2   O28   S    
C202  C203  A    
C173  O22   A    
C9    C22   S    
C193  C212  T    
C195  C204  A    
C65   H116  S    
C58   C59   S    
C85   C86   S    
C167  C186  S    
C38   C194  S    
C60   C61   S    
C119  H48   S    
Cr8   O9    S    
C80   H144  S    
C157  C170  A    
C100  H184  S    
C125  H53   S    
C114  H37   S    
C61   H110  S    
C139  H65   S    
C81   H155  S    
C13   C131  S    
C34   O45   A    
C148  H93   S    
C224  O33   A    
C221  O1    A    
Cr8   O44   S    
C221  O31   A    
C37   O67   A    
C36   O2    A    
C17   C26   T    
Cr8   O18   S    
C157  C161  A    
C218  C227  A    
C70   O49   D    
C59   H101  S    
Cr6   O23   S    
Cr1   O9    S    
C27   C32   S    
C14   C18   S    
Cr2   O6    S    
C28   C31   S    
C6    C10   A    
C87   H165  S    
C12   C230  A    
C45   C122  S    
C87   C230  S    
C126  O64   D    
C105  C106  S    
C15   C228  A    
C64   C65   S    
C121  O60   D    
C62   H107  S    
Cr5   O15   S    
C33   O43   A    
Cr6   O16   S    
C146  C153  A    
C82   H153  S    
C92   C93   S    
Cr6   O42   S    
C111  C114  S    
C201  H141  S    
C89   C232  S    
C56   H105  S    
C77   C218  S    
C118  H42   S    
Cr7   O13   S    
C66   H127  S    
C76   H136  S    
C88   C231  S    
C82   C83   S    
C35   C52   T    
C199  C201  A    
C199  H130  S    
C40   O37   A    
C109  H29   S    
C135  C152  A    
C37   C193  S    
C124  C164  A    
C2    C128  S    
C44   C48   S    
C93   C94   S    
C37   O3    A    
C69   H122  S    
C16   C229  A    
C38   O4    A    
C95   C96   S    
C4    C8    A    
C137  H72   S    
C81   C82   S    
C116  C117  S    
C7    C11   A    
C124  C132  S    
C44   H46   S    
C100  H4    S    
C142  H75   S    
C92   H175  S    
C34   C191  S    
C226  H174  S    
C120  H49   S    
C109  H28   S    
C73   H133  S    
C158  H96   S    
C110  H27   S    
C44   C189  S    
Cr11  O26   S    
C158  C171  A    
C49   C189  S    
C45   C51   S    
C116  H45   S    
C143  H86   S    
C104  H10   S    
C102  H15   S    
C47   C211  S    
C149  H89   S    
C196  C205  A    
C147  C154  S    
Cr7   O43   S    
C64   H118  S    
C16   C20   S    
C115  H33   S    
C72   C197  S    
C112  O19   A    
C121  H50   S    
C192  C208  T    
C149  H88   S    
C61   C62   S    
C99   H6    S    
C123  H52   S    
C106  H20   S    
C48   C60   S    
C20   C29   T    
C135  C165  A    
C95   H182  S    
C74   C75   S    
C131  H60   S    
C148  C149  S    
C50   C200  S    
C228  H13   S    
C43   C49   S    
Cr3   O7    S    
C105  H22   S    
C83   H150  S    
C157  H90   S    
C13   C24   S    
C67   C69   S    
C4    C230  A    
C118  H40   S    
C96   H180  S    
C51   C211  S    
C134  H63   S    
C173  O27   A    
C147  H94   S    
C99   C100  S    
C96   C97   S    
C153  C171  A    
C8    C21   S    
C14   C231  A    
C154  C172  A    
C145  H82   S    
C159  H98   S    
C50   C66   S    
C55   C175  S    
C67   H126  S    
C22   C214  T    
C133  O72   D    
C201  C204  A    
C159  C163  A    
C171  C180  S    
Cr3   O33   S    
C148  H92   S    
C128  O66   D    
C97   H178  S    
C205  C208  S    
C168  C185  S    
C155  C160  A    
C142  H73   S    
C140  H78   S    
C25   C216  T    
C88   O54   D    
C18   C27   T    
Cr10  O67   S    
C112  C188  S    
C110  H25   S    
C136  C150  S    
C126  H54   S    
C77   H148  S    
C114  H36   S    
C10   C23   S    
C49   C56   S    
C137  C138  S    
C116  H47   S    
Cr10  O47   S    
C68   C200  S    
C31   O46   A    
C32   O42   A    
C149  H91   S    
C14   C227  A    
C94   H170  S    
C141  C142  S    
C167  O21   A    
C71   C196  S    
C86   H158  S    
C74   C217  S    
C15   C232  A    
Cr7   O39   S    
C156  O16   A    
Cr2   O2    S    
C167  O17   A    
C89   H167  S    
C158  C162  A    
C176  O30   A    
C150  C154  A    
C137  C151  S    
C107  H19   S    
C122  H51   S    
C11   C220  A    
C75   H137  S    
C88   H166  S    
