data_mof_unit_10764.cif
_audit_creation_date              2012-12-10T19:44:25-0500
_audit_creation_method            fapswitch 2.2
_symmetry_space_group_name_H-M    P1
_symmetry_Int_Tables_number       1
_space_group_crystal_system       triclinic
_cell_length_a                    10.830486
_cell_length_b                    12.300833
_cell_length_c                    13.199242
_cell_angle_alpha                 116.575435
_cell_angle_beta                  77.609445
_cell_angle_gamma                 101.105736
_cell_volume                      1526.6106747

loop_
_atom_site_label
_atom_site_type_symbol
_atom_type_description
_atom_site_fract_x
_atom_site_fract_y
_atom_site_fract_z
_atom_type_partial_charge
C1    C     C_R   0.514799 0.854860 0.286692 0.765397
C2    C     C_R   0.667107 0.758480 0.753295 -0.137859
C3    C     C_R   0.040484 0.944377 0.556997 -0.244456
C4    C     C_R   0.129640 0.999188 0.495320 -0.084270
C5    C     C_R   0.089501 0.055214 0.436793 -0.000547
C6    C     C_R   0.960129 0.057278 0.444430 -0.244182
C7    C     C_R   0.870498 0.001320 0.505474 -0.079169
C8    C     C_R   0.910933 0.943408 0.562533 0.025863
C9    C     C_R   0.185638 0.234310 0.392666 -0.167103
C10   C     C_R   0.273793 0.286122 0.327666 -0.157269
C11   C     C_R   0.355617 0.213371 0.234382 -0.111728
C12   C     C_R   0.737012 0.000986 0.502819 0.783654
C13   C     C_R   0.347813 0.088235 0.204523 -0.116394
C14   C     C_R   0.259198 0.035825 0.268712 -0.097192
C15   C     C_R   0.178841 0.108987 0.364537 0.126469
C16   C     C_R   0.313732 0.283661 0.013734 -0.207006
C17   C     C_R   0.454265 0.227813 0.833923 -0.043265
C18   C     C_R   0.638041 0.808258 0.096123 -0.193510
C19   C     C_R   0.685061 0.723531 0.989313 -0.165283
C20   C     C_R   0.631964 0.602169 0.949010 -0.204136
C21   C     C_R   0.526561 0.563033 0.014184 0.085231
C22   C     C_R   0.475850 0.651187 0.121917 0.082087
C23   C     C_R   0.480958 0.145021 0.713221 0.789611
C24   C     C_R   0.471162 0.439161 0.977084 0.079432
C25   C     C_R   0.367379 0.405821 0.047968 0.164002
C26   C     C_R   0.314890 0.495159 0.150170 -0.251939
C27   C     C_R   0.365745 0.616416 0.184921 -0.208740
C28   C     C_R   0.513366 0.347465 0.870331 -0.254394
C29   C     C_R   0.357231 0.194816 0.907125 -0.207058
C30   C     C_R   0.537231 0.772289 0.164881 -0.103824
C31   C     C_R   0.709189 0.351484 0.336275 -0.318254
C32   C     C_R   0.331277 0.763942 0.648748 0.025417
C33   C     C_R   0.306413 0.678543 0.694273 -0.262786
C34   C     C_R   0.263058 0.999107 0.497378 0.786517
C35   C     C_R   0.377444 0.578736 0.648544 0.182541
C36   C     C_R   0.466227 0.557625 0.545880 -0.027436
C37   C     C_R   0.494855 0.654119 0.508755 0.252127
C38   C     C_R   0.532975 0.450209 0.481394 -0.037651
C39   C     C_R   0.637016 0.450707 0.395251 0.181850
C40   C     C_R   0.668281 0.549603 0.367391 -0.283697
C41   C     C_R   0.597049 0.647427 0.420914 -0.150855
C42   C     C_R   0.499713 0.339874 0.494752 0.032813
C43   C     C_R   0.677111 0.250320 0.360778 0.073301
C44   C     C_R   0.653509 0.880521 0.782593 0.205670
C45   C     C_R   0.733327 0.941563 0.720845 -0.097440
C46   C     C_R   0.823786 0.879917 0.627939 0.032459
C47   C     C_R   0.837598 0.758273 0.601130 -0.161315
C48   C     C_R   0.761261 0.698076 0.664833 0.192028
Cu1   Cu    Cu3+1 0.529370 0.098270 0.475420 0.935354
Cu2   Cu    Cu3+1 0.470630 0.901730 0.524580 0.922061
H1    H     H_    0.605075 0.710554 0.799800 0.160486
H2    H     H_    0.425214 0.254017 0.185384 0.144063
H3    H     H_    0.411071 0.031977 0.132187 0.129493
H4    H     H_    0.254852 0.938922 0.245315 0.095116
H5    H     H_    0.309771 0.102413 0.879194 0.140026
H6    H     H_    0.232532 0.471517 0.202667 0.139669
H7    H     H_    0.234955 0.257742 0.067717 0.140505
H8    H     H_    0.588356 0.366867 0.810608 0.141362
H9    H     H_    0.686099 0.900482 0.127929 0.147344
H10   H     H_    0.676931 0.541830 0.866974 0.130092
H11   H     H_    0.766166 0.751328 0.938665 0.148556
H12   H     H_    0.316799 0.682715 0.261666 0.164862
H13   H     H_    0.733294 0.173950 0.316978 0.116038
H14   H     H_    0.747542 0.550526 0.301590 0.148558
H15   H     H_    0.790081 0.352400 0.271904 0.133969
H16   H     H_    0.413575 0.324361 0.546640 0.155287
H17   H     H_    0.279308 0.843222 0.688744 0.131399
H18   H     H_    0.236277 0.694654 0.770209 0.146136
H19   H     H_    0.627930 0.717592 0.392057 0.207563
H20   H     H_    0.724507 0.036525 0.744512 0.120705
H21   H     H_    0.909424 0.711161 0.531588 0.137484
H22   H     H_    0.071910 0.903252 0.603293 0.153900
H23   H     H_    0.929402 0.099110 0.398408 0.153345
H24   H     H_    0.124504 0.292137 0.466118 0.129640
H25   H     H_    0.279970 0.383022 0.350610 0.136138
N1    N     N_R   0.573890 0.246290 0.438210 -0.178919
N2    N     N_R   0.426890 0.754320 0.561170 -0.201137
O1    O     O_R   0.536940 0.972510 0.318130 -0.578664
O2    O     O_R   0.487330 0.806530 0.359650 -0.599702
O3    O     O_R   0.705160 0.082990 0.479250 -0.588086
O4    O     O_R   0.655550 0.917010 0.520760 -0.589353
O5    O     O_R   0.512670 0.193470 0.640350 -0.583371
O6    O     O_R   0.463060 0.027490 0.681870 -0.593670
O7    O     O_R   0.344450 0.082990 0.479240 -0.572431
O8    O     O_R   0.294840 0.917010 0.520750 -0.597105
C49   C     C_3   0.555920 0.946423 0.880521 -0.897557
H26   H     H_    0.503343 0.887451 0.923088 0.228575
H27   H     H_    0.603094 0.029154 0.945040 0.226434
H28   H     H_    0.486216 0.974182 0.848708 0.253428
C50   C     C_3   0.369153 0.513684 0.723889 -0.890068
H29   H     H_    0.291352 0.437244 0.704596 0.230364
H30   H     H_    0.461353 0.481877 0.715891 0.229440
H31   H     H_    0.347637 0.577086 0.815789 0.236352
C51   C     C_3   0.783667 0.572094 0.642493 -0.888801
H32   H     H_    0.829231 0.577915 0.712726 0.220686
H33   H     H_    0.692340 0.512609 0.639423 0.238870
H34   H     H_    0.846840 0.529133 0.560182 0.237855

loop_
_geom_bond_atom_site_label_1
_geom_bond_atom_site_label_2
_ccdc_geom_bond_type
C23   O5    A    
C17   C29   A    
C19   C20   A    
Cu2   O2    S    
C43   H13   S    
C7    C8    A    
C45   C46   A    
C26   C27   A    
C17   C23   S    
C31   C43   A    
C6    H23   S    
Cu1   O7    S    
C36   C37   A    
C38   C42   A    
C5    C6    A    
C49   H27   S    
C16   C25   A    
Cu1   O1    S    
C18   C19   A    
C11   H2    S    
Cu2   O8    S    
C32   N2    A    
C35   C36   A    
C2    C44   A    
C18   C30   A    
C20   H10   S    
C9    C10   A    
C21   C22   A    
C37   C41   A    
C1    O1    A    
C34   O7    A    
C44   C49   S    
Cu2   O6    S    
C13   H3    S    
C7    C12   S    
C4    C34   S    
C24   C25   A    
C3    C8    A    
C10   C11   A    
C39   C40   A    
C49   H26   S    
C29   H5    S    
C51   H34   S    
C2    C48   A    
C25   C26   A    
C37   N2    A    
C34   O8    A    
Cu1   O5    S    
C27   H12   S    
C10   H25   S    
C50   H30   S    
C47   C48   A    
Cu1   N1    S    
C51   H33   S    
C47   H21   S    
C23   O6    A    
C32   H17   S    
C40   C41   A    
C14   H4    S    
C48   C51   S    
C22   C27   A    
C1    O2    A    
C9    H24   S    
C3    C4    A    
Cu2   N2    S    
C44   C45   A    
C50   H31   S    
C41   H19   S    
C43   N1    A    
C31   H15   S    
C46   C47   A    
C22   C30   A    
C45   H20   S    
C17   C28   A    
C24   C28   A    
C4    C5    A    
C49   H28   S    
C26   H6    S    
C6    C7    A    
C28   H8    S    
C42   N1    A    
C40   H14   S    
Cu1   O3    S    
C32   C33   A    
C36   C38   A    
C3    H22   S    
C16   C29   A    
C11   C13   A    
C50   H29   S    
C38   C39   A    
C19   H11   S    
C12   O3    A    
C1    C30   S    
C33   C35   A    
C31   C39   A    
C12   O4    A    
C16   H7    S    
C9    C15   A    
C51   H32   S    
C8    C46   S    
C5    C15   S    
C2    H1    S    
C35   C50   S    
C18   H9    S    
C20   C21   A    
C33   H18   S    
Cu1   Cu2   S    
C21   C24   A    
C42   H16   S    
C14   C15   A    
C13   C14   A    
Cu2   O4    S    
