data_mof_unit_14002.cif
_audit_creation_date              2013-03-05T15:49:19-0500
_audit_creation_method            fapswitch 2.2
_symmetry_space_group_name_H-M    P1
_symmetry_Int_Tables_number       1
_space_group_crystal_system       triclinic
_cell_length_a                    10.673616
_cell_length_b                    12.012097
_cell_length_c                    12.860171
_cell_angle_alpha                 93.789319
_cell_angle_beta                  90.60107
_cell_angle_gamma                 85.420385
_cell_volume                      1639.9549621

loop_
_atom_site_label
_atom_site_type_symbol
_atom_site_description
_atom_site_fract_x
_atom_site_fract_y
_atom_site_fract_z
_atom_type_partial_charge
O1    O     O_R   0.506170 0.421690 0.658830 -0.579166
O2    O     O_R   0.491330 0.609320 0.646410 -0.555852
C1    C     C_R   0.498065 0.522728 0.700254 0.969785
O3    O     O_R   0.690660 0.406170 0.506210 -0.653451
O4    O     O_R   0.675810 0.593790 0.493790 -0.594956
C2    C     C_R   0.740608 0.497415 0.491984 0.883257
Zn1   Zn    Zn3+2 0.509910 0.374720 0.508290 0.995986
Zn2   Zn    Zn3+2 0.490090 0.625280 0.491710 1.046568
O5    O     O_R   0.508670 0.390680 0.353590 -0.635619
O6    O     O_R   0.493830 0.578310 0.341170 -0.635787
O7    O     O_R   0.324190 0.406210 0.506210 -0.625189
O8    O     O_R   0.309340 0.593830 0.493790 -0.614057
C3    C     C_R   0.501799 0.477365 0.299686 0.891151
C4    C     C_R   0.260838 0.501998 0.512620 0.930042
H1    H     H_    0.875266 0.668689 0.459175 0.209264
C5    C     C_R   0.912335 0.284184 0.487540 -0.208108
H2    H     H_    0.832062 0.267508 0.438740 0.190227
C6    C     C_R   0.979917 0.192646 0.527487 -0.258894
H3    H     H_    0.945916 0.110349 0.513679 0.201965
C7    C     C_R   0.084012 0.208097 0.591959 0.253329
C8    C     C_R   0.130526 0.315403 0.604252 0.213247
C9    C     C_R   0.070912 0.404895 0.549146 -0.046331
C10   C     C_R   0.950963 0.393375 0.507486 0.068727
C11   C     C_R   0.875735 0.492439 0.486821 -0.108814
C12   C     C_R   0.929704 0.593623 0.480390 -0.144524
H4    H     H_    0.096336 0.676492 0.486420 0.196085
C13   C     C_R   0.055376 0.598850 0.498856 -0.123755
C14   C     C_R   0.127550 0.504027 0.528636 -0.044970
C15   C     C_R   0.504943 0.462121 0.188469 -0.102097
C16   C     C_R   0.492234 0.537840 0.811912 -0.190740
C17   C     C_R   0.394998 0.626463 0.967934 -0.115122
C18   C     C_R   0.408338 0.621643 0.860081 0.299327
C19   C     C_R   0.564147 0.460933 0.869883 -0.088891
C20   C     C_R   0.535092 0.452980 0.974460 0.020553
C21   C     C_R   0.456905 0.541524 0.024813 0.037040
C22   C     C_R   0.444647 0.544823 0.131922 -0.207979
C23   C     C_R   0.570258 0.368770 0.139254 -0.251866
C24   C     C_R   0.583792 0.361576 0.031694 0.320140
H5    H     H_    0.390547 0.613606 0.172842 0.168725
H6    H     H_    0.610929 0.301781 0.184473 0.193661
N1    N     N_R   0.523130 0.207800 0.519340 -0.106807
N2    N     N_R   0.476870 0.792180 0.480660 -0.179186
C25   C     C_R   0.375724 0.956774 0.406538 -0.106506
C26   C     C_R   0.388756 0.839679 0.415316 0.041464
C27   C     C_R   0.552357 0.857953 0.541001 0.398977
C28   C     C_R   0.543435 0.975826 0.534227 -0.024933
C29   C     C_R   0.454407 0.025602 0.466006 -0.003983
C30   C     C_R   0.446400 0.143465 0.460383 0.028266
C31   C     C_R   0.609115 0.161031 0.585407 0.066383
C32   C     C_R   0.620526 0.045354 0.594562 -0.169610
H7    H     H_    0.379378 0.184926 0.409188 0.130521
H8    H     H_    0.669176 0.213831 0.631235 0.155738
H9    H     H_    0.689631 0.011441 0.648533 0.218194
N3    N     N_R   0.637229 0.258214 0.981962 0.205196
O9    O     O_R   0.731898 0.203026 0.024797 -0.349905
O10   O     O_R   0.577712 0.209504 0.905020 -0.316813
N4    N     N_R   0.335329 0.700417 0.799809 0.228966
O11   O     O_R   0.346093 0.807260 0.816476 -0.281182
O12   O     O_R   0.250910 0.666119 0.734162 -0.337275
C33   C     C_1   0.677049 0.401944 0.824404 0.290851
N5    N     N_1   0.767170 0.355783 0.788136 -0.141480
C34   C     C_1   0.280599 0.005326 0.337793 0.194506
N6    N     N_1   0.204651 0.044038 0.283085 -0.143792
C35   C     C_1   0.305199 0.770031 0.356920 0.274427
N7    N     N_1   0.236698 0.715702 0.309995 -0.223343
N8    N     N_R   0.637884 0.807500 0.613660 0.213804
O13   O     O_R   0.601512 0.801228 0.709115 -0.317669
O14   O     O_R   0.757634 0.800273 0.594267 -0.411041
N9    N     N_R   0.138274 0.115361 0.646568 0.241773
O15   O     O_R   0.149351 0.015579 0.599971 -0.359817
O16   O     O_R   0.154628 0.126229 0.747026 -0.251810
N10   N     N_R   0.228881 0.336049 0.678719 0.232655
O17   O     O_R   0.325183 0.263667 0.687422 -0.305469
O18   O     O_R   0.220608 0.426687 0.740246 -0.364833
C36   C     C_1   0.311113 0.714632 0.018029 0.290596
N11   N     N_1   0.244270 0.784954 0.057903 -0.119771

loop_
_geom_bond_atom_site_label_1
_geom_bond_atom_site_label_2
_geom_bond_distance
_ccdc_geom_bond_type
N8    O14   1.299820 A    
N10   O18   1.300581 A    
C21   C22   1.382672 A    
C36   N11   1.157447 T    
C27   C28   1.419871 A    
C26   C35   1.442698 S    
Zn1   O7    1.988420 S    
C15   C22   1.383288 A    
H4    C13   1.082971 S    
C23   C24   1.388562 A    
C3    C15   1.430296 S    
Zn2   N2    2.012825 S    
C6    H3    1.083150 S    
C23   H6    1.083926 S    
O4    C2    1.299232 A    
O7    C4    1.285436 A    
N4    O12   1.300663 A    
C20   C21   1.423233 A    
N9    O16   1.301200 A    
O5    C3    1.285420 A    
N3    O9    1.301376 A    
C30   H7    1.081579 S    
C17   C18   1.392707 A    
C5    H2    1.080552 S    
C10   C11   1.419902 A    
N8    O13   1.300083 A    
C9    C14   1.418731 A    
C8    C9    1.429928 A    
N2    C26   1.370160 A    
C18   N4    1.438739 S    
O3    Zn1   1.996064 S    
N1    C31   1.358005 A    
N3    O10   1.301789 A    
C32   H9    1.081854 S    
C8    N10   1.438676 S    
C11   C12   1.393563 A    
O3    C2    1.280963 A    
C33   N5    1.157727 T    
O1    C1    1.289583 A    
N2    C27   1.372252 A    
C20   C24   1.423064 A    
C1    C16   1.436793 S    
C25   C26   1.414180 A    
C34   N6    1.157348 T    
C17   C36   1.452195 S    
C29   C30   1.418122 A    
C24   N3    1.437190 S    
Zn2   O8    1.996062 S    
C31   H8    1.080822 S    
C2    C11   1.440809 S    
C19   C20   1.394442 A    
Zn2   O6    1.980293 S    
O8    C4    1.293282 A    
C19   C33   1.456022 S    
C17   C21   1.411911 A    
C7    N9    1.435757 S    
C12   C13   1.365435 A    
C27   N8    1.429111 S    
Zn1   O5    2.011060 S    
C28   C29   1.411137 A    
C16   C19   1.401494 A    
O1    Zn1   1.980292 S    
C22   H5    1.079683 S    
O2    Zn2   2.011062 S    
N10   O17   1.301069 A    
O6    C3    1.288853 A    
O4    Zn2   1.988419 S    
C5    C10   1.412724 A    
C28   C32   1.409724 A    
C35   N7    1.157380 T    
O2    C1    1.284048 A    
C16   C18   1.408620 A    
N4    O11   1.301127 A    
N1    C30   1.361398 A    
C6    C7    1.396293 A    
Zn1   N1    2.013063 S    
N9    O15   1.301383 A    
H1    C12   1.081965 S    
C7    C8    1.416516 A    
C5    C6    1.390513 A    
C31   C32   1.397769 A    
C15   C23   1.390903 A    
C13   C14   1.396011 A    
C9    C10   1.396223 A    
C4    C14   1.437689 S    
C25   C29   1.409802 A    
C25   C34   1.451682 S    
