data_mof_unit_60875.cif
_audit_creation_date              2012-12-10T17:08:41-0500
_audit_creation_method            fapswitch 2.2
_symmetry_space_group_name_H-M    P1
_symmetry_Int_Tables_number       1
_space_group_crystal_system       triclinic
_cell_length_a                    37.101645
_cell_length_b                    30.209067
_cell_length_c                    21.551592
_cell_angle_alpha                 90.000595
_cell_angle_beta                  54.34132
_cell_angle_gamma                 90.000633
_cell_volume                      19626.16391

loop_
_atom_site_label
_atom_site_type_symbol
_atom_type_description
_atom_site_fract_x
_atom_site_fract_y
_atom_site_fract_z
_atom_type_partial_charge
C1    C     C_R   0.914413 0.499989 0.585588 0.836666
C2    C     C_R   0.342713 0.479751 0.108292 -0.248023
C3    C     C_R   0.973490 0.842776 0.069113 -0.240441
C4    C     C_R   0.500000 0.365903 1.000000 -0.058986
C5    C     C_R   1.000000 0.865903 0.999999 -0.058977
C6    C     C_R   0.472742 0.296472 0.069489 0.108524
C7    C     C_R   0.527257 0.296472 0.930510 0.108526
C8    C     C_R   0.972730 0.796473 0.069485 0.108513
C9    C     C_R   0.027270 0.796472 0.930513 0.108516
C10   C     C_R   0.500000 0.273203 1.000000 0.060939
C11   C     C_R   1.000000 0.773204 0.999999 0.060932
C12   C     C_R   0.445158 0.273031 0.138007 -0.206753
C13   C     C_R   0.157286 0.979747 0.891705 -0.248031
C14   C     C_R   0.554842 0.273030 0.861992 -0.206769
C15   C     C_R   0.945133 0.773031 0.137999 -0.206770
C16   C     C_R   0.054867 0.773031 0.861999 -0.206755
C17   C     C_R   0.944388 0.726793 0.137774 -0.205473
C18   C     C_R   0.055612 0.726792 0.862223 -0.205471
C19   C     C_R   0.444413 0.226792 0.137784 -0.205459
C20   C     C_R   0.555587 0.226791 0.862216 -0.205466
C21   C     C_R   0.971713 0.703353 0.069181 0.110534
C22   C     C_R   0.028286 0.703353 0.930817 0.110546
C23   C     C_R   0.471726 0.203352 0.069187 0.110584
C24   C     C_R   0.842713 0.979747 0.108295 -0.248032
C25   C     C_R   0.528274 0.203352 0.930813 0.110579
C26   C     C_3   0.018203 0.544189 0.194605 -0.417430
C27   C     C_3   0.982287 0.544343 0.804932 -0.417737
C28   C     C_3   0.517196 0.044499 0.195559 -0.418062
C29   C     C_3   0.482481 0.044403 0.804747 -0.417864
C30   C     C_R   1.000000 0.726623 0.999999 0.060799
C31   C     C_R   0.500000 0.226622 1.000000 0.060797
C32   C     C_R   0.971378 0.657052 0.068469 -0.239742
C33   C     C_R   0.028622 0.657052 0.931529 -0.239691
C34   C     C_R   0.471391 0.157051 0.068475 -0.239653
C35   C     C_R   0.634177 0.498879 0.865182 -0.048377
C36   C     C_R   0.528610 0.157051 0.931525 -0.239692
C37   C     C_R   0.000000 0.633963 0.999999 -0.058216
C38   C     C_R   0.500000 0.133963 0.000000 -0.058218
C39   C     C_R   0.537118 0.656799 0.986396 -0.079942
C40   C     C_R   0.462881 0.656798 0.013606 -0.079942
C41   C     C_R   0.037116 0.156799 0.986403 -0.079946
C42   C     C_R   0.962883 0.156799 0.013600 -0.079947
C43   C     C_R   0.500000 0.633772 0.000001 -0.144104
C44   C     C_R   1.000000 0.133772 0.000001 -0.144109
C45   C     C_R   0.462921 0.703466 0.013277 0.068750
C46   C     C_R   0.365823 0.498879 0.134817 -0.048377
C47   C     C_R   0.537079 0.703467 0.986724 0.068749
C48   C     C_R   0.962922 0.203467 0.013272 0.068748
C49   C     C_R   0.037077 0.203468 0.986732 0.068745
C50   C     C_R   0.500000 0.726616 0.000001 0.023778
C51   C     C_R   1.000000 0.226616 0.000002 0.023773
C52   C     C_R   0.426695 0.727701 0.025732 -0.201690
C53   C     C_R   0.573305 0.727702 0.974269 -0.201687
C54   C     C_R   0.926698 0.227701 0.025721 -0.201705
C55   C     C_R   0.073301 0.227702 0.974284 -0.201703
C56   C     C_R   0.926791 0.273708 0.026203 -0.221226
C57   C     C_R   0.134177 0.998880 0.865183 -0.048371
C58   C     C_R   0.073208 0.273709 0.973803 -0.221202
C59   C     C_R   0.426788 0.773707 0.026214 -0.221202
C60   C     C_R   0.573211 0.773709 0.973787 -0.221213
C61   C     C_R   0.963119 0.296719 0.013600 0.111037
C62   C     C_R   0.036880 0.296720 0.986405 0.111022
C63   C     C_R   0.463117 0.796719 0.013605 0.111025
C64   C     C_R   0.536882 0.796720 0.986396 0.111031
C65   C     C_3   0.031325 0.462404 0.253974 -0.463179
C66   C     C_3   0.968255 0.462750 0.746412 -0.463986
C67   C     C_3   0.532170 0.963110 0.253197 -0.464805
C68   C     C_R   0.865823 0.998879 0.134817 -0.048367
C69   C     C_3   0.468102 0.962879 0.746553 -0.464266
C70   C     C_R   0.999999 0.273311 0.000003 0.080775
C71   C     C_R   0.500000 0.773310 0.000000 0.080780
C72   C     C_R   0.963200 0.342894 0.014095 -0.250801
C73   C     C_R   0.036799 0.342895 0.985909 -0.250756
C74   C     C_R   0.463199 0.842894 0.014100 -0.250763
C75   C     C_R   0.536801 0.842894 0.985900 -0.250789
C76   C     C_R   1.000000 0.366002 0.000002 -0.069802
C77   C     C_R   0.500000 0.866001 0.000000 -0.069725
C78   C     C_3   0.953313 0.492079 0.334200 0.334496
C79   C     C_R   0.657476 0.517602 0.791940 -0.240758
C80   C     C_3   0.046608 0.491512 0.665890 0.334594
C81   C     C_3   0.453477 0.990929 0.334009 0.334742
C82   C     C_3   0.546579 0.991302 0.665925 0.334662
C83   C     C_3   0.001238 0.500057 0.309636 -0.026525
C84   C     C_3   0.998782 0.500056 0.690345 -0.026548
C85   C     C_3   0.501194 0.000052 0.309676 -0.026566
C86   C     C_3   0.498791 0.000055 0.690338 -0.026546
C87   C     C_3   0.999939 0.499413 0.189208 0.007808
C88   C     C_3   0.000062 0.499369 0.810792 0.007734
C89   C     C_3   0.499936 0.999322 0.189207 0.007678
C90   C     C_R   0.342525 0.517608 0.208055 -0.240730
C91   C     C_3   0.500063 0.999352 0.810792 0.007730
C92   C     C_3   0.030014 0.461666 0.183734 -0.403869
C93   C     C_3   0.969584 0.461950 0.816633 -0.403514
C94   C     C_3   0.530832 0.962252 0.182984 -0.403096
C95   C     C_3   0.469427 0.962063 0.816778 -0.403331
C96   C     C_R   0.576673 0.632152 0.969030 0.092991
C97   C     C_R   0.577631 0.614596 0.028359 -0.099552
C98   C     C_R   0.615992 0.593920 0.012039 -0.136409
C99   C     C_R   0.653820 0.591504 0.936726 -0.097436
C100  C     C_R   0.653199 0.609372 0.877542 -0.136270
C101  C     C_R   0.157475 0.017612 0.791948 -0.240705
C102  C     C_R   0.614628 0.629226 0.893414 -0.181404
C103  C     C_R   0.423326 0.632151 0.030971 0.092993
C104  C     C_R   0.422369 0.614593 0.971642 -0.099553
C105  C     C_R   0.384008 0.593915 0.987961 -0.136398
C106  C     C_R   0.346179 0.591502 0.063274 -0.097427
C107  C     C_R   0.346799 0.609372 0.122458 -0.136293
C108  C     C_R   0.385370 0.629227 0.106586 -0.181409
C109  C     C_R   0.076670 0.132153 0.969042 0.093005
C110  C     C_R   0.077624 0.114595 0.028375 -0.099545
C111  C     C_R   0.115983 0.093917 0.012061 -0.136395
C112  C     C_R   0.085587 0.499989 0.414411 0.837326
C113  C     C_R   0.842525 0.017612 0.208052 -0.240717
C114  C     C_R   0.153813 0.091502 0.936749 -0.097449
C115  C     C_R   0.153197 0.109373 0.877563 -0.136306
C116  C     C_R   0.114628 0.129228 0.893429 -0.181408
C117  C     C_R   0.923329 0.132151 0.030960 0.093005
C118  C     C_R   0.922375 0.114594 0.971627 -0.099542
C119  C     C_R   0.884015 0.093916 0.987941 -0.136403
C120  C     C_R   0.846186 0.091500 0.063253 -0.097454
C121  C     C_R   0.846802 0.109370 0.122440 -0.136296
C122  C     C_R   0.885372 0.129225 0.106573 -0.181412
C123  C     C_R   0.703800 0.518535 0.745848 0.095312
C124  C     C_R   0.296200 0.518542 0.254147 0.095310
C125  C     C_R   0.203800 0.018546 0.745857 0.095311
C126  C     C_R   0.796200 0.018545 0.254143 0.095314
C127  C     C_R   0.726997 0.499017 0.772436 0.061672
C128  C     C_R   0.273003 0.499018 0.227563 0.061720
C129  C     C_R   0.226996 0.999017 0.772437 0.061727
C130  C     C_R   0.773003 0.999017 0.227563 0.061694
C131  C     C_R   0.703631 0.479161 0.845352 0.098136
C132  C     C_R   0.414413 0.999989 0.585589 0.837199
C133  C     C_R   0.296369 0.479155 0.154652 0.098134
C134  C     C_R   0.203631 0.979151 0.845345 0.098163
C135  C     C_R   0.796369 0.979151 0.154655 0.098165
C136  C     C_R   0.727298 0.539074 0.674052 -0.226243
C137  C     C_R   0.272703 0.539088 0.325937 -0.226236
C138  C     C_R   0.227297 0.039096 0.674071 -0.226209
C139  C     C_R   0.772703 0.039095 0.325930 -0.226220
C140  C     C_R   0.773589 0.540356 0.628728 -0.192690
C141  C     C_R   0.226412 0.540370 0.371260 -0.192503
C142  C     C_R   0.273588 0.040378 0.628748 -0.192350
C143  C     C_R   0.585587 0.999989 0.414411 0.836776
C144  C     C_R   0.726412 0.040377 0.371253 -0.192473
C145  C     C_R   0.796967 0.520556 0.654180 0.099406
C146  C     C_R   0.203034 0.520564 0.345813 0.099345
C147  C     C_R   0.296966 0.020568 0.654192 0.099212
C148  C     C_R   0.703034 0.020568 0.345809 0.099249
C149  C     C_R   0.001326 0.500009 0.378591 0.848657
C150  C     C_R   0.998698 0.500011 0.621386 0.848754
C151  C     C_R   0.501274 0.000013 0.378640 0.848749
C152  C     C_R   0.498709 0.000012 0.621377 0.848688
C153  C     C_R   0.773612 0.499416 0.726098 0.057746
C154  C     C_3   0.952376 0.492760 0.263567 -0.399015
C155  C     C_R   0.226388 0.499417 0.273901 0.057660
C156  C     C_R   0.273611 0.999416 0.726100 0.057634
C157  C     C_R   0.726388 0.999416 0.273900 0.057693
C158  C     C_R   0.796846 0.478665 0.751694 0.110696
C159  C     C_R   0.203154 0.478659 0.248310 0.110582
C160  C     C_R   0.296845 0.978654 0.751687 0.110812
C161  C     C_R   0.703154 0.978654 0.248313 0.110884
C162  C     C_R   0.773329 0.458600 0.823871 -0.201386
C163  C     C_R   0.226671 0.458587 0.176139 -0.201157
C164  C     C_R   0.273328 0.958578 0.823854 -0.201373
C165  C     C_3   0.047554 0.492211 0.736516 -0.399246
C166  C     C_R   0.726671 0.958578 0.176145 -0.201524
C167  C     C_R   0.727010 0.459153 0.870655 -0.215961
C168  C     C_R   0.272990 0.459140 0.129354 -0.215963
C169  C     C_R   0.227009 0.959132 0.870639 -0.215961
C170  C     C_R   0.772990 0.959132 0.129360 -0.215956
C171  C     C_R   0.843303 0.521343 0.608959 -0.222355
C172  C     C_R   0.156697 0.521352 0.391032 -0.221768
C173  C     C_R   0.343303 0.021356 0.608973 -0.220893
C174  C     C_R   0.656697 0.021356 0.391028 -0.221280
C175  C     C_R   0.866222 0.499980 0.633835 -0.053122
C176  C     C_3   0.452525 0.991635 0.263389 -0.399502
C177  C     C_R   0.133778 0.499981 0.366163 -0.053152
C178  C     C_R   0.366222 0.999980 0.633837 -0.053030
C179  C     C_R   0.633778 0.999980 0.366163 -0.053021
C180  C     C_R   0.843199 0.478443 0.704579 -0.225474
C181  C     C_R   0.156801 0.478437 0.295425 -0.225072
C182  C     C_R   0.343198 0.978432 0.704571 -0.225919
C183  C     C_R   0.656801 0.978433 0.295428 -0.226183
C184  C     C_R   0.000000 0.585612 0.999999 0.808041
C185  C     C_R   0.500000 0.085612 0.000000 0.808222
C186  C     C_R   0.999883 0.499392 0.120262 0.805598
C187  C     C_3   0.547525 0.991995 0.736552 -0.399331
C188  C     C_R   0.000116 0.499348 0.879740 0.805662
C189  C     C_R   0.499885 0.999302 0.120257 0.805715
C190  C     C_R   0.500115 0.999331 0.879741 0.805670
C191  C     C_R   1.000000 0.414304 0.000001 0.806912
C192  C     C_R   0.500000 0.914304 1.000000 0.806720
C193  C     C_3   0.018331 0.545031 0.266068 0.492248
C194  C     C_3   0.982212 0.545219 0.733418 0.492768
C195  C     C_3   0.517225 0.045404 0.267117 0.493320
C196  C     C_3   0.482415 0.045286 0.733226 0.492990
C197  C     C_R   0.500000 0.414313 1.000000 0.803396
C198  C     C_R   0.657287 0.479757 0.891711 -0.248029
C199  C     C_R   1.000000 0.914313 1.000000 0.803396
C200  C     C_R   0.585666 0.499640 0.914152 0.822676
C201  C     C_R   0.414334 0.499640 0.085848 0.822673
C202  C     C_R   0.085666 0.999640 0.914152 0.822673
C203  C     C_R   0.914334 0.999640 0.085848 0.822671
C204  C     C_R   0.500000 0.585397 0.000000 0.842205
C205  C     C_R   1.000000 0.085397 0.000000 0.842200
C206  C     C_R   0.526497 0.342775 0.930883 -0.240443
C207  C     C_R   0.473502 0.342775 0.069116 -0.240435
C208  C     C_R   0.026510 0.842776 0.930885 -0.240437
Cu1   Cu    Cu3+1 0.000000 0.544430 0.500000 1.044517
Cu2   Cu    Cu3+1 0.500070 0.499950 0.062420 0.941202
Cu3   Cu    Cu3+1 0.999930 0.999950 0.937580 0.941204
Cu4   Cu    Cu3+1 0.000070 0.999950 0.062420 0.941194
Cu5   Cu    Cu3+1 0.500000 0.044430 0.500000 1.044450
Cu6   Cu    Cu3+1 1.000000 0.455520 0.500000 0.945543
Cu7   Cu    Cu3+1 0.500000 0.955520 0.500000 0.945855
Cu8   Cu    Cu3+1 0.955510 0.499950 0.044460 0.940616
Cu9   Cu    Cu3+1 0.044490 0.499950 0.955540 0.940721
Cu10  Cu    Cu3+1 0.455510 0.999950 0.044460 0.940707
Cu11  Cu    Cu3+1 0.544490 0.999950 0.955540 0.940639
Cu12  Cu    Cu3+1 0.499930 0.499950 0.937580 0.941192
F1    F     F_    0.060879 0.553659 0.244731 -0.671960
F2    F     F_    0.939780 0.554365 0.754609 -0.671486
F3    F     F_    0.559534 0.055078 0.246070 -0.671046
F4    F     F_    0.440023 0.054618 0.754378 -0.671358
F5    F     F_    0.924807 0.524139 0.385957 -0.698079
F6    F     F_    0.075497 0.523220 0.613723 -0.698429
F7    F     F_    0.424200 0.022274 0.386583 -0.698747
F8    F     F_    0.575607 0.022885 0.613622 -0.698531
H1    H     H_    0.938205 0.461040 0.260513 0.147213
H2    H     H_    0.981991 0.429242 0.820462 0.162094
H3    H     H_    0.570047 0.018815 0.730156 0.218619
H4    H     H_    0.548851 0.617274 0.087083 0.131707
H5    H     H_    0.616558 0.580207 0.057854 0.126082
H6    H     H_    0.683608 0.575794 0.924194 0.138070
H7    H     H_    0.682601 0.607765 0.819320 0.145678
H8    H     H_    0.614559 0.643148 0.847175 0.136166
H9    H     H_    0.451150 0.617269 0.912919 0.131710
H10   H     H_    0.383443 0.580201 0.942146 0.126093
H11   H     H_    0.316391 0.575792 0.075805 0.138091
H12   H     H_    0.317396 0.607768 0.180679 0.145660
H13   H     H_    0.518783 0.929400 0.178839 0.162090
H14   H     H_    0.385438 0.643150 0.152826 0.136164
H15   H     H_    0.048842 0.117272 0.087097 0.131699
H16   H     H_    0.116545 0.080202 0.057878 0.126069
H17   H     H_    0.183600 0.075791 0.924222 0.138032
H18   H     H_    0.182602 0.107767 0.819343 0.145626
H19   H     H_    0.114563 0.143151 0.847188 0.136148
H20   H     H_    0.951157 0.117272 0.912905 0.131699
H21   H     H_    0.883453 0.080202 0.942124 0.126062
H22   H     H_    0.816399 0.075790 0.075779 0.138016
H23   H     H_    0.817398 0.107765 0.180659 0.145636
H24   H     H_    0.481695 0.929301 0.820738 0.162087
H25   H     H_    0.885437 0.143149 0.152815 0.136146
H26   H     H_    0.639174 0.464929 0.948070 0.152185
H27   H     H_    0.360826 0.464919 0.051937 0.152184
H28   H     H_    0.139173 0.964912 0.948057 0.152173
H29   H     H_    0.860826 0.964912 0.051942 0.152173
H30   H     H_    0.639516 0.532729 0.771870 0.151839
H31   H     H_    0.360485 0.532740 0.228122 0.151837
H32   H     H_    0.139515 0.032747 0.771884 0.151831
H33   H     H_    0.061392 0.460354 0.739934 0.146956
H34   H     H_    0.860485 0.032746 0.228116 0.151829
H35   H     H_    0.709856 0.554407 0.653206 0.146722
H36   H     H_    0.290145 0.554426 0.346780 0.146718
H37   H     H_    0.209856 0.054437 0.653231 0.146705
H38   H     H_    0.790145 0.054436 0.346771 0.146706
H39   H     H_    0.791117 0.556597 0.573604 0.160289
H40   H     H_    0.208884 0.556616 0.426379 0.160241
H41   H     H_    0.291116 0.056628 0.573632 0.160186
H42   H     H_    0.708884 0.056627 0.426369 0.160221
H43   H     H_    0.861637 0.537678 0.553796 0.187871
H44   H     H_    0.439041 0.959634 0.259588 0.146676
H45   H     H_    0.138364 0.537693 0.446191 0.187816
H46   H     H_    0.361636 0.037702 0.553819 0.187708
H47   H     H_    0.638364 0.037700 0.446183 0.187763
H48   H     H_    0.861457 0.462296 0.723264 0.136958
H49   H     H_    0.138543 0.462284 0.276745 0.137274
H50   H     H_    0.361456 0.962275 0.723249 0.136860
H51   H     H_    0.638543 0.962277 0.276750 0.136662
H52   H     H_    0.790764 0.442714 0.844286 0.145895
H53   H     H_    0.209235 0.442696 0.155728 0.145989
H54   H     H_    0.290764 0.942683 0.844262 0.145855
H55   H     H_    0.561226 0.960081 0.740111 0.146843
H56   H     H_    0.709235 0.942684 0.155737 0.145797
H57   H     H_    0.996505 0.572499 0.303851 0.141111
H58   H     H_    0.004377 0.572428 0.695338 0.140747
H59   H     H_    0.494720 0.072346 0.305504 0.140367
H60   H     H_    0.504699 0.072401 0.695033 0.140612
H61   H     H_    0.709464 0.443736 0.926455 0.146378
H62   H     H_    0.290535 0.443718 0.073558 0.146389
H63   H     H_    0.209464 0.943707 0.926432 0.146366
H64   H     H_    0.790535 0.943707 0.073567 0.146364
H65   H     H_    0.547164 0.360897 0.877709 0.146608
H66   H     H_    0.020028 0.429683 0.283009 0.178773
H67   H     H_    0.452836 0.360897 0.122290 0.146614
H68   H     H_    0.047185 0.860898 0.877714 0.146611
H69   H     H_    0.952814 0.860898 0.122284 0.146608
H70   H     H_    0.423978 0.290471 0.191708 0.146919
H71   H     H_    0.576021 0.290470 0.808291 0.146918
H72   H     H_    0.923943 0.790471 0.191697 0.146952
H73   H     H_    0.076056 0.790470 0.808300 0.146944
H74   H     H_    0.922626 0.709352 0.191296 0.147691
H75   H     H_    0.077373 0.709352 0.808701 0.147637
H76   H     H_    0.422661 0.209352 0.191309 0.147576
H77   H     H_    0.979147 0.429909 0.717726 0.178729
H78   H     H_    0.577340 0.209351 0.808691 0.147608
H79   H     H_    0.949593 0.638892 0.121262 0.142787
H80   H     H_    0.050407 0.638891 0.878736 0.142754
H81   H     H_    0.449615 0.138891 0.121272 0.142698
H82   H     H_    0.550386 0.138890 0.878728 0.142718
H83   H     H_    0.397925 0.711439 0.035095 0.164022
H84   H     H_    0.602074 0.711441 0.964906 0.164022
H85   H     H_    0.897929 0.211439 0.035078 0.164018
H86   H     H_    0.102069 0.211441 0.964927 0.164020
H87   H     H_    0.898383 0.291324 0.036251 0.144998
H88   H     H_    0.521690 0.930149 0.281518 0.178668
H89   H     H_    0.101616 0.291326 0.963754 0.145014
H90   H     H_    0.398379 0.791323 0.036268 0.145003
H91   H     H_    0.601621 0.791326 0.963733 0.144995
H92   H     H_    0.934870 0.360860 0.024406 0.153271
H93   H     H_    0.065129 0.360862 0.975598 0.153297
H94   H     H_    0.434867 0.860860 0.024417 0.153279
H95   H     H_    0.565132 0.860861 0.975584 0.153264
H96   H     H_    0.997373 0.571828 0.197635 0.121520
H97   H     H_    0.003397 0.571755 0.801670 0.121541
H98   H     H_    0.495793 0.071669 0.199076 0.121573
H99   H     H_    0.478850 0.929993 0.718000 0.178705
H100  H     H_    0.503706 0.071724 0.801378 0.121554
H101  H     H_    0.052457 0.549542 0.142446 0.219299
H102  H     H_    0.948082 0.550042 0.857015 0.219136
H103  H     H_    0.551344 0.050564 0.143555 0.218946
H104  H     H_    0.448300 0.050243 0.856806 0.219052
H105  H     H_    0.066066 0.467192 0.235252 0.219520
H106  H     H_    0.933569 0.467968 0.765109 0.219475
H107  H     H_    0.566793 0.968765 0.234542 0.219430
H108  H     H_    0.433439 0.968250 0.765227 0.219449
H109  H     H_    0.064380 0.465360 0.131100 0.204591
H110  H     H_    0.017273 0.429098 0.180189 0.162097
H111  H     H_    0.935262 0.465985 0.869242 0.204730
H112  H     H_    0.565106 0.966650 0.130414 0.204888
H113  H     H_    0.435121 0.966240 0.869366 0.204805
H114  H     H_    0.941295 0.459309 0.362887 0.114563
H115  H     H_    0.058233 0.458594 0.637628 0.115148
H116  H     H_    0.442256 0.957866 0.361843 0.115738
H117  H     H_    0.558061 0.958335 0.637806 0.115360
H118  H     H_    0.930251 0.519899 0.269535 0.218214
H119  H     H_    0.069962 0.519125 0.730234 0.218502
H120  H     H_    0.429820 0.018307 0.269990 0.218804
O1    O     O_R   0.935120 0.537520 0.564840 -0.566640
O2    O     O_R   0.435120 0.499960 0.012170 -0.584621
O3    O     O_R   0.064880 0.999960 0.987830 -0.584623
O4    O     O_R   0.935120 0.999960 0.012170 -0.584622
O5    O     O_R   0.499950 0.564810 0.947310 -0.590211
O6    O     O_R   0.500050 0.564810 0.052690 -0.590208
O7    O     O_R   0.999950 0.064810 0.947310 -0.590211
O8    O     O_R   0.000050 0.064810 0.052690 -0.590213
O9    O     O_R   0.935080 0.462440 0.564870 -0.594431
O10   O     O_R   0.064920 0.462440 0.435130 -0.594255
O11   O     O_R   0.435080 0.962440 0.564870 -0.594030
O12   O     O_R   0.064880 0.537520 0.435160 -0.567083
O13   O     O_R   0.564920 0.962440 0.435130 -0.594148
O14   O     O_R   0.999990 0.537520 0.408860 -0.551269
O15   O     O_R   0.000010 0.537520 0.591140 -0.551204
O16   O     O_R   0.499990 0.037520 0.408860 -0.551107
O17   O     O_R   0.500010 0.037520 0.591140 -0.551166
O18   O     O_R   0.999950 0.462430 0.408890 -0.618902
O19   O     O_R   0.000050 0.462430 0.591110 -0.618829
O20   O     O_R   0.499950 0.962430 0.408890 -0.618772
O21   O     O_R   0.500050 0.962430 0.591110 -0.618826
O22   O     O_R   0.962420 0.564820 0.037570 -0.582836
O23   O     O_R   0.435120 0.037520 0.564840 -0.567337
O24   O     O_R   0.037580 0.564820 0.962430 -0.582844
O25   O     O_R   0.462420 0.064820 0.037570 -0.582787
O26   O     O_R   0.537580 0.064820 0.962430 -0.582782
O27   O     O_R   0.962440 0.499950 0.128690 -0.593110
O28   O     O_R   0.037560 0.499950 0.871310 -0.593071
O29   O     O_R   0.462440 0.999950 0.128690 -0.593039
O30   O     O_R   0.537560 0.999950 0.871310 -0.593065
O31   O     O_R   0.037530 0.500000 0.053640 -0.591005
O32   O     O_R   0.962470 0.500000 0.946360 -0.591041
O33   O     O_R   0.537530 0.000000 0.053640 -0.591078
O34   O     O_R   0.564880 0.037520 0.435160 -0.567049
O35   O     O_R   0.462470 0.000000 0.946360 -0.591053
O36   O     O_R   0.962440 0.435080 0.037530 -0.591271
O37   O     O_R   0.037560 0.435080 0.962470 -0.591241
O38   O     O_R   0.462440 0.935080 0.037530 -0.591300
O39   O     O_R   0.537560 0.935080 0.962470 -0.591317
O40   O     O_R   0.499930 0.435080 0.947280 -0.587472
O41   O     O_R   0.500070 0.435080 0.052720 -0.587469
O42   O     O_R   0.999930 0.935080 0.947280 -0.587465
O43   O     O_R   0.000070 0.935080 0.052720 -0.587469
O44   O     O_R   0.564810 0.499970 0.882380 -0.594316
O45   O     O_R   0.435190 0.499970 0.117620 -0.594310
O46   O     O_R   0.064810 0.999970 0.882380 -0.594305
O47   O     O_R   0.935190 0.999970 0.117620 -0.594308
O48   O     O_R   0.564880 0.499960 0.987830 -0.584622

loop_
_geom_bond_atom_site_label_1
_geom_bond_atom_site_label_2
_ccdc_geom_bond_type
C172  C177  A    
C61   C70   A    
C168  H62   S    
C96   C102  A    
C136  C140  A    
C172  H45   S    
C144  C148  A    
C102  H8    S    
Cu12  O44   S    
C120  H22   S    
C118  H20   S    
C121  H23   S    
C106  C107  A    
C28   C195  S    
C62   C70   A    
C150  O19   A    
C89   C94   S    
C158  C180  A    
C110  C111  A    
C40   C43   A    
C163  H53   S    
C49   C51   A    
C134  C169  A    
C57   C202  S    
C67   C94   S    
C132  O23   A    
C47   C53   A    
C187  H3    S    
C151  O20   A    
C42   C44   A    
C7    C206  A    
C41   C49   A    
C104  C105  A    
C91   C190  S    
C192  O38   A    
C114  C115  A    
C87   C186  S    
Cu5   Cu7   S    
C95   H113  S    
C67   C85   S    
C204  O6    A    
C81   C176  S    
C124  C137  A    
C34   H81   S    
C189  O29   A    
C3    C8    A    
C187  H55   S    
C85   C195  S    
C82   F8    S    
C17   C21   A    
Cu8   O32   S    
C54   H85   S    
C23   C31   A    
C140  C145  A    
C144  H42   S    
C85   C151  S    
C86   C152  S    
C149  O14   A    
C116  H19   S    
C140  H39   S    
C164  H54   S    
C29   H104  S    
C159  C181  A    
Cu2   O6    S    
Cu5   O34   S    
C196  F4    S    
C60   H91   S    
C63   C71   A    
C106  H11   S    
C55   H86   S    
Cu4   O8    S    
Cu10  O25   S    
C29   C91   S    
C39   C47   A    
C105  C106  A    
C69   H99   S    
C77   C192  S    
C69   C95   S    
C10   C31   A    
C95   H24   S    
C129  C156  A    
C42   C117  S    
C183  H51   S    
C63   C74   A    
C125  C138  A    
C178  C182  A    
C27   H102  S    
C107  H12   S    
C59   C63   A    
Cu7   O13   S    
C60   C64   A    
C78   H114  S    
Cu12  O2    S    
C184  O24   A    
Cu11  O26   S    
Cu8   O22   S    
C202  O46   A    
C79   C123  A    
C45   C50   A    
C44   C205  S    
C66   H106  S    
C127  C131  A    
Cu7   O21   S    
C25   C36   A    
Cu6   O10   S    
C137  H36   S    
C125  C129  A    
C190  O30   A    
Cu9   O37   S    
C17   H74   S    
C98   C99   A    
C19   H76   S    
Cu3   O42   S    
Cu11  O33   S    
C89   C176  S    
C207  H67   S    
C208  H68   S    
C132  C178  S    
C25   C31   A    
C32   H79   S    
C154  H118  S    
C122  H25   S    
C97   C98   A    
C182  H50   S    
C130  C157  A    
C186  O27   A    
C205  O7    A    
C114  H17   S    
C13   C57   A    
C115  C116  A    
C135  C170  A    
C153  C158  A    
C3    H69   S    
C59   H90   S    
C184  O22   A    
C86   C196  S    
C72   H92   S    
C46   C201  S    
C84   C194  S    
C185  O26   A    
C74   C77   A    
C75   H95   S    
C101  C125  A    
C107  C108  A    
Cu1   O15   S    
C62   C73   A    
C28   C89   S    
C143  C179  S    
C115  H18   S    
C198  H26   S    
C131  C167  A    
C41   C109  S    
C136  H35   S    
C78   C83   S    
C53   C60   A    
C47   C50   A    
Cu5   O17   S    
C190  O35   A    
C126  C139  A    
C155  C159  A    
C150  O15   A    
C156  C160  A    
C112  O10   A    
C133  C168  A    
C69   H108  S    
C197  O41   A    
C113  C126  A    
C45   C52   A    
C49   C55   A    
C83   C193  S    
C117  C122  A    
Cu5   O16   S    
C123  C127  A    
C191  O36   A    
C23   C34   A    
C18   H75   S    
Cu2   O41   S    
C56   C61   A    
C27   C194  S    
C42   C48   A    
C32   C37   A    
C67   H88   S    
C75   C77   A    
C92   H109  S    
C66   C93   S    
Cu12  O5    S    
C166  C170  A    
C80   H115  S    
C197  O40   A    
C154  H1    S    
Cu10  O38   S    
Cu5   O23   S    
C120  C121  A    
C91   C187  S    
C1    C175  S    
C20   H78   S    
C22   C30   A    
C18   C22   A    
C142  C147  A    
Cu4   O3    S    
C74   H94   S    
C94   H112  S    
C175  C180  A    
C138  H37   S    
C57   C101  A    
C194  F2    S    
C29   H100  S    
C58   H89   S    
C163  C168  A    
C117  C118  A    
C40   C103  S    
C173  C178  A    
C177  C181  A    
C35   C79   A    
C64   C75   A    
Cu2   O45   S    
C165  H33   S    
C113  H34   S    
Cu10  O29   S    
C91   C95   S    
C173  H46   S    
C67   H107  S    
C193  H57   S    
C88   C165  S    
C43   C204  S    
C195  H59   S    
C80   F6    S    
C196  H60   S    
C81   C85   S    
C93   H2    S    
C58   C62   A    
C7    C10   A    
C130  C135  A    
C112  O12   A    
C80   C84   S    
C2    H27   S    
C5    C199  S    
Cu3   O4    S    
C160  C164  A    
C94   H13   S    
C188  O28   A    
C119  H21   S    
C6    C12   A    
C170  H64   S    
C97   H4    S    
C20   C25   A    
C126  C130  A    
C1    O9    A    
C176  H120  S    
C64   C71   A    
C109  C116  A    
C171  H43   S    
C110  H15   S    
C146  C155  A    
C11   C30   A    
C169  H63   S    
C16   H73   S    
C72   C76   A    
C68   C113  A    
C124  C128  A    
C26   H96   S    
C78   F5    S    
C193  F1    S    
C87   C92   S    
C143  O13   A    
C186  O31   A    
C104  H9    S    
C90   H31   S    
Cu6   O19   S    
C40   C45   A    
C2    C133  A    
C141  H40   S    
C14   C20   A    
C131  C198  A    
C1    O1    A    
C138  C142  A    
C188  O32   A    
C99   H6    S    
C162  H52   S    
C78   C154  S    
C82   C86   S    
C28   H103  S    
C24   H29   S    
C33   C37   A    
C161  C183  A    
C50   C71   A    
C132  O11   A    
C174  H47   S    
Cu9   O24   S    
Cu3   O7    S    
C33   H80   S    
C147  C156  A    
C121  C122  A    
C141  C146  A    
C61   C72   A    
C15   H72   S    
C8    C15   A    
C73   C76   A    
C165  H119  S    
C29   C196  S    
C52   H83   S    
C157  C161  A    
C80   C165  S    
C200  O48   A    
C4    C207  A    
C15   C17   A    
C137  C141  A    
C12   H70   S    
Cu9   O31   S    
C204  O5    A    
C90   C124  A    
C3    C5    A    
C9    C208  A    
C6    C10   A    
C119  C120  A    
C147  C173  A    
Cu4   O43   S    
C46   C90   A    
C167  H61   S    
Cu1   O1    S    
C21   C30   A    
C82   C187  S    
Cu1   Cu6   S    
C27   H97   S    
C199  O42   A    
C36   C38   A    
C142  H41   S    
C109  C110  A    
C5    C208  A    
C13   H28   S    
C12   C19   A    
Cu12  O40   S    
C111  C114  A    
C148  C174  A    
Cu11  O39   S    
C24   C68   A    
C129  C134  A    
C185  O25   A    
C55   C58   A    
C108  H14   S    
C103  C104  A    
C89   C189  S    
Cu1   O14   S    
C100  H7    S    
Cu2   O48   S    
C26   C193  S    
Cu11  O30   S    
C152  O17   A    
C112  C177  S    
C83   C149  S    
C84   C150  S    
C65   C92   S    
C181  H49   S    
C145  C171  A    
C93   H111  S    
C111  H16   S    
C146  C172  A    
C13   C134  A    
C19   C23   A    
C166  H56   S    
Cu10  O35   S    
C127  C153  A    
Cu8   O36   S    
C2    C46   A    
C48   C54   A    
C151  O16   A    
C9    C16   A    
C66   H77   S    
C65   C83   S    
C101  H32   S    
C194  H58   S    
Cu2   Cu12  S    
C53   H84   S    
C118  C119  A    
C206  H65   S    
C189  O33   A    
C128  C155  A    
Cu6   O9    S    
C48   C51   A    
C28   H98   S    
Cu3   Cu4   S    
Cu1   O12   S    
C105  H10   S    
C103  C108  A    
C51   C70   A    
C92   H110  S    
C161  C166  A    
C192  O39   A    
C148  C157  A    
C145  C153  A    
C149  O18   A    
C68   C203  S    
C164  C169  A    
C160  C182  A    
Cu6   O18   S    
C35   C200  S    
C65   H66   S    
C179  C183  A    
C7    C14   A    
C21   C32   A    
C54   C56   A    
C87   C154  S    
C81   H116  S    
C36   H82   S    
Cu8   Cu9   S    
C205  O8    A    
C26   C87   S    
C39   C43   A    
C37   C184  S    
C171  C175  A    
C14   H71   S    
C143  O34   A    
C52   C59   A    
C139  C144  A    
C99   C100  A    
C96   C97   A    
C100  C102  A    
C152  O21   A    
C203  O47   A    
C9    C11   A    
C6    C207  A    
C82   H117  S    
C201  O45   A    
C201  O2    A    
C24   C135  A    
C4    C197  S    
C139  H38   S    
C191  O37   A    
C159  C163  A    
C26   H101  S    
C176  H44   S    
C22   C33   A    
C88   C93   S    
Cu7   O20   S    
C81   F7    S    
C34   C38   A    
C79   H30   S    
Cu3   O46   S    
C203  O4    A    
C56   H87   S    
C4    C206  A    
C73   H93   S    
C38   C185  S    
Cu9   O28   S    
C123  C136  A    
C180  H48   S    
C76   C191  S    
C128  C133  A    
Cu8   O27   S    
C195  F3    S    
Cu10  Cu11  S    
C98   H5    S    
C8    C11   A    
Cu7   O11   S    
C174  C179  A    
C41   C44   A    
C199  O43   A    
C27   C88   S    
C39   C96   S    
C200  O44   A    
C158  C162  A    
C66   C84   S    
C162  C167  A    
C88   C188  S    
C35   C198  A    
C16   C18   A    
C202  O3    A    
C65   H105  S    
C69   C86   S    
Cu4   O47   S    
