data_mof_unit_49468.cif
_audit_creation_date              2012-12-10T21:00:45-0500
_audit_creation_method            fapswitch 2.2
_symmetry_space_group_name_H-M    P1
_symmetry_Int_Tables_number       1
_space_group_crystal_system       triclinic
_cell_length_a                    18.136118
_cell_length_b                    18.172705
_cell_length_c                    18.336721
_cell_angle_alpha                 120.120459
_cell_angle_beta                  90.02051
_cell_angle_gamma                 120.038108
_cell_volume                      4262.33505393

loop_
_atom_site_label
_atom_site_type_symbol
_atom_type_description
_atom_site_fract_x
_atom_site_fract_y
_atom_site_fract_z
_atom_type_partial_charge
C1    C     C_R   0.109527 0.220379 0.609333 0.828483
C2    C     C_R   0.888967 0.779614 0.390458 0.860557
C3    C     C_3   0.979841 0.426949 0.413797 -0.146037
C4    C     C_3   0.019668 0.572625 0.586326 -0.140182
C5    C     C_3   0.445571 0.965505 0.924365 -0.170541
C6    C     C_3   0.554723 0.034550 0.075690 -0.170354
C7    C     C_3   0.550239 0.037916 0.957994 -0.180828
C8    C     C_3   0.450084 0.962132 0.042086 -0.183178
C9    C     C_3   0.549482 0.102676 0.052651 0.060212
C10   C     C_3   0.450747 0.897350 0.947404 0.060327
C11   C     C_3   0.445563 0.031776 0.019808 -0.143847
C12   C     C_3   0.554689 0.968230 0.980252 -0.142667
C13   C     C_3   0.413508 0.440812 0.448571 -0.137561
C14   C     C_3   0.586698 0.559247 0.551620 -0.135805
C15   C     C_3   0.473894 0.401790 0.439817 -0.177837
C16   C     C_3   0.526309 0.598262 0.560392 -0.174541
C17   C     C_3   0.550910 0.500041 0.449598 0.068234
C18   C     C_3   0.449261 0.499997 0.550576 0.064491
C19   C     C_3   0.491495 0.539131 0.457609 -0.182630
C20   C     C_3   0.508718 0.460940 0.542628 -0.187825
C21   C     C_R   0.339331 0.233499 0.680132 -0.232052
C22   C     C_R   0.662358 0.798489 0.328653 -0.166666
C23   C     C_R   0.392963 0.781097 0.888252 0.758404
C24   C     C_R   0.607076 0.218911 0.111772 0.758961
C25   C     C_R   0.255171 0.173035 0.614568 0.239184
C26   C     C_R   0.746501 0.856542 0.393414 0.245381
C27   C     C_R   0.175024 0.113768 0.627426 0.127124
C28   C     C_R   0.825476 0.886258 0.368973 0.091263
C29   C     C_R   0.181556 0.118728 0.706403 -0.193189
C30   C     C_R   0.817562 0.853462 0.279990 -0.130104
C31   C     C_R   0.265835 0.178625 0.770436 -0.116152
C32   C     C_R   0.733402 0.795097 0.216554 -0.118411
C33   C     C_R   0.344588 0.235492 0.757114 -0.140499
C34   C     C_R   0.655984 0.767979 0.240915 -0.188715
C35   C     C_R   0.027929 0.945344 0.510306 0.140881
C36   C     C_R   0.970623 0.054118 0.487628 0.141220
C37   C     C_R   0.945346 0.892024 0.445747 -0.126576
C38   C     C_R   0.053547 0.107890 0.552686 -0.118632
C39   C     C_R   0.916260 0.945095 0.433561 -0.096708
C40   C     C_R   0.083648 0.054712 0.563520 -0.073080
C41   C     C_R   0.629340 0.534317 0.761388 -0.153651
C42   C     C_R   0.376278 0.473714 0.243075 -0.143180
C43   C     C_R   0.585548 0.500181 0.811845 -0.174912
C44   C     C_R   0.420507 0.505818 0.191717 -0.167141
C45   C     C_R   0.111365 0.501293 0.890198 0.778174
C46   C     C_R   0.889075 0.499144 0.110207 0.789028
C47   C     C_R   0.583576 0.569867 0.892804 0.151673
C48   C     C_R   0.417732 0.433187 0.109065 0.151571
C49   C     C_R   0.627218 0.674402 0.923610 -0.095213
C50   C     C_R   0.370001 0.328190 0.078075 -0.094838
C51   C     C_R   0.670183 0.707990 0.872531 -0.128284
C52   C     C_R   0.326946 0.296700 0.130248 -0.131407
C53   C     C_R   0.671192 0.637978 0.791450 -0.097274
C54   C     C_R   0.329963 0.369383 0.212623 -0.090893
C55   C     C_R   0.588521 0.532616 0.002711 -0.275566
C56   C     C_R   0.411653 0.467261 0.997104 -0.265154
C57   C     C_R   0.550340 0.499249 0.055477 -0.043071
C58   C     C_R   0.449892 0.500927 0.944533 -0.045951
C59   C     C_R   0.461052 0.466106 0.052962 -0.029104
C60   C     C_R   0.539409 0.534594 0.947372 -0.028727
C61   C     C_R   0.189349 0.829254 0.007411 -0.114951
C62   C     C_R   0.821101 0.174450 0.998954 -0.123915
C63   C     C_R   0.155578 0.748816 0.018382 -0.174946
C64   C     C_R   0.854826 0.249370 0.981081 -0.164694
C65   C     C_R   0.066656 0.658732 0.967520 0.118399
C66   C     C_R   0.938425 0.346440 0.037872 0.075248
C67   C     C_R   0.392420 0.500038 0.607650 0.768205
C68   C     C_R   0.607607 0.499949 0.392380 0.771446
C69   C     C_R   0.011081 0.650372 0.905666 0.259721
C70   C     C_R   0.988960 0.368112 0.113558 0.278119
C71   C     C_R   0.045830 0.732231 0.895784 -0.209439
C72   C     C_R   0.954298 0.291298 0.129947 -0.134658
C73   C     C_R   0.134664 0.820887 0.946103 -0.140309
C74   C     C_R   0.870712 0.195399 0.073256 -0.159726
C75   C     C_R   0.977065 0.570855 0.033489 -0.235036
C76   C     C_R   0.023212 0.429520 0.966730 -0.274614
C77   C     C_R   0.945385 0.497722 0.053516 -0.049395
C78   C     C_R   0.055485 0.503190 0.947279 -0.063031
C79   C     C_R   0.969008 0.426196 0.019809 -0.011138
C80   C     C_R   0.032353 0.575230 0.981447 0.027363
C81   C     C_R   0.394036 0.499372 0.887930 0.814373
C82   C     C_R   0.606020 0.500660 0.112070 0.817986
C83   C     C_R   0.108854 0.500142 0.607696 0.769971
C84   C     C_R   0.891003 0.499718 0.392314 0.771963
C85   C     C_3   0.076359 0.521830 0.480618 -0.185347
C86   C     C_3   0.923167 0.477771 0.519461 -0.181003
C87   C     C_3   0.044175 0.594036 0.515024 -0.175181
C88   C     C_3   0.955374 0.405595 0.485103 -0.176217
C89   C     C_3   0.948514 0.499228 0.449020 0.061583
C90   C     C_3   0.051051 0.500389 0.551057 0.062153
H1    H     H_    0.079759 0.671331 0.526330 0.129924
H2    H     H_    0.919687 0.328329 0.473814 0.124731
H3    H     H_    0.409786 0.282433 0.807164 0.139327
H4    H     H_    0.590822 0.722946 0.191623 0.143826
H5    H     H_    0.400948 0.279729 0.671583 0.121864
H6    H     H_    0.601482 0.777236 0.346282 0.134748
H7    H     H_    0.121006 0.077298 0.719009 0.127574
H8    H     H_    0.876923 0.872755 0.259701 0.133256
H9    H     H_    0.270051 0.181871 0.830988 0.127025
H10   H     H_    0.728171 0.770572 0.148300 0.134017
H11   H     H_    0.705004 0.664273 0.752318 0.114160
H12   H     H_    0.295809 0.344670 0.252463 0.114299
H13   H     H_    0.631223 0.480552 0.699218 0.119235
H14   H     H_    0.377410 0.529591 0.306190 0.118466
H15   H     H_    0.553912 0.419977 0.788382 0.115913
H16   H     H_    0.455959 0.586716 0.215720 0.113972
H17   H     H_    0.627298 0.729326 0.986670 0.109857
H18   H     H_    0.366544 0.271190 0.013889 0.107958
H19   H     H_    0.140041 0.539907 0.465380 0.130776
H20   H     H_    0.859451 0.459663 0.534630 0.127726
H21   H     H_    0.703061 0.788373 0.896000 0.114727
H22   H     H_    0.290695 0.215854 0.106536 0.115199
H23   H     H_    0.657025 0.556973 0.004122 0.171722
H24   H     H_    0.343154 0.442892 0.995728 0.173650
H25   H     H_    0.161059 0.883379 0.937790 0.126955
H26   H     H_    0.844475 0.137073 0.086824 0.127152
H27   H     H_    0.257852 0.898413 0.046765 0.122201
H28   H     H_    0.756301 0.100114 0.955251 0.124127
H29   H     H_    0.198700 0.756461 0.066377 0.116979
H30   H     H_    0.815184 0.232453 0.923652 0.127073
H31   H     H_    0.004063 0.726771 0.848520 0.125347
H32   H     H_    0.992379 0.305659 0.186621 0.124385
H33   H     H_    0.960085 0.626619 0.059694 0.167323
H34   H     H_    0.040250 0.373816 0.940695 0.176368
H35   H     H_    0.962544 0.366752 0.342249 0.134592
H36   H     H_    0.036627 0.632385 0.657960 0.141078
H37   H     H_    0.592055 0.070460 0.924067 0.123152
H38   H     H_    0.408801 0.929633 0.076279 0.119447
H39   H     H_    0.400128 0.935835 0.861411 0.127475
H40   H     H_    0.600176 0.064241 0.138648 0.127002
H41   H     H_    0.401006 0.058724 0.036557 0.132344
H42   H     H_    0.599227 0.941254 0.963502 0.132072
H43   H     H_    0.453381 0.321245 0.389350 0.130383
H44   H     H_    0.546854 0.678832 0.610812 0.130644
H45   H     H_    0.341475 0.392223 0.407419 0.135522
H46   H     H_    0.658725 0.607836 0.592803 0.135060
H47   H     H_    0.486613 0.572378 0.422592 0.125562
H48   H     H_    0.513869 0.428033 0.577938 0.125483
O1    O     O_3   0.251620 0.500000 0.748430 -0.478152
O2    O     O_3   0.748380 0.500000 0.251570 -0.479099
O3    O     O_R   0.134680 0.560740 0.864590 -0.635175
O4    O     O_R   0.865320 0.439260 0.135410 -0.634211
O5    O     O_R   0.306670 0.439270 0.571150 -0.650424
O6    O     O_R   0.693330 0.560730 0.428850 -0.657632
O7    O     O_R   0.135450 0.268370 0.694460 -0.643830
O8    O     O_R   0.864550 0.731630 0.305540 -0.650592
O9    O     O_R   0.429670 0.731610 0.863510 -0.647606
O10   O     O_R   0.570330 0.268390 0.136490 -0.647688
O11   O     O_R   0.134680 0.268390 0.572240 -0.634753
O12   O     O_R   0.865320 0.731610 0.427760 -0.629826
O13   O     O_R   0.306670 0.731630 0.863510 -0.632440
O14   O     O_R   0.693330 0.268370 0.136490 -0.632345
O15   O     O_R   0.135450 0.439270 0.865360 -0.649859
O16   O     O_R   0.864550 0.560730 0.134640 -0.652460
O17   O     O_R   0.429670 0.560710 0.692610 -0.632944
O18   O     O_R   0.570330 0.439290 0.307390 -0.632607
O19   O     O_R   0.308540 0.439240 0.865360 -0.641414
O20   O     O_R   0.691460 0.560760 0.134640 -0.645759
O21   O     O_R   0.133580 0.439310 0.571150 -0.646712
O22   O     O_R   0.866420 0.560690 0.428850 -0.636599
O23   O     O_R   0.430770 0.560690 0.864590 -0.642771
O24   O     O_R   0.569230 0.439310 0.135410 -0.641709
O25   O     O_R   0.133580 0.560760 0.692610 -0.644198
O26   O     O_R   0.866420 0.439240 0.307390 -0.646687
Zn1   Zn    Zn3+2 0.207400 0.586780 0.791530 0.965433
Zn2   Zn    Zn3+2 0.792600 0.413220 0.208470 0.965999
Zn3   Zn    Zn3+2 0.208510 0.413230 0.792630 0.962112
Zn4   Zn    Zn3+2 0.791490 0.586770 0.207370 0.957865
Zn5   Zn    Zn3+2 0.383150 0.586740 0.791530 0.965043
Zn6   Zn    Zn3+2 0.616850 0.413260 0.208470 0.965827
Zn7   Zn    Zn3+2 0.207400 0.413250 0.618010 0.950802
Zn8   Zn    Zn3+2 0.792600 0.586750 0.381990 0.960412
N1    N     N_2   0.251785 0.179016 0.540128 -0.304173
H49   H     H_    0.306377 0.247419 0.552236 0.216736
C91   C     C_3   0.231570 0.088224 0.455481 -0.814201
H50   H     H_    0.234803 0.103014 0.403303 0.239634
H51   H     H_    0.162263 0.019649 0.433915 0.262777
H52   H     H_    0.281528 0.071236 0.460731 0.231208
N2    N     N_2   0.750772 0.885859 0.482398 -0.318002
H53   H     H_    0.813812 0.945397 0.530729 0.229434
C92   C     C_3   0.702101 0.800111 0.490876 -0.812233
H54   H     H_    0.709093 0.831163 0.562216 0.239255
H55   H     H_    0.730017 0.753212 0.467024 0.256255
H56   H     H_    0.628969 0.749149 0.452049 0.231752
N3    N     N_2   0.053793 0.887383 0.519948 -0.284279
H57   H     H_    0.082327 0.915872 0.584660 0.227823
C93   C     C_3   0.100750 0.855392 0.461238 -0.809846
H58   H     H_    0.102815 0.795962 0.462445 0.231083
H59   H     H_    0.171269 0.923284 0.484462 0.242712
H60   H     H_    0.065352 0.820210 0.391193 0.236100
N4    N     N_2   0.937342 0.108635 0.482544 -0.301600
H61   H     H_    0.952462 0.173441 0.543322 0.205172
C94   C     C_3   0.952128 0.127385 0.414143 -0.727390
H62   H     H_    0.919699 0.165219 0.413472 0.215980
H63   H     H_    0.922071 0.053554 0.347057 0.231826
H64   H     H_    0.025318 0.179241 0.427216 0.264161
N5    N     N_2   0.920307 0.560869 0.854254 -0.320030
H65   H     H_    0.876778 0.577959 0.843546 0.216821
C95   C     C_3   0.910960 0.475816 0.771934 -0.774096
H66   H     H_    0.935883 0.500370 0.727327 0.234988
H67   H     H_    0.838585 0.408788 0.736788 0.228206
H68   H     H_    0.949144 0.449521 0.786027 0.248469
N6    N     N_2   0.074548 0.465323 0.172518 -0.327326
H69   H     H_    0.106977 0.506701 0.146327 0.226526
C96   C     C_3   0.077219 0.530246 0.262218 -0.785925
H70   H     H_    0.147205 0.601675 0.303529 0.226487
H71   H     H_    0.056944 0.488467 0.294393 0.244526
H72   H     H_    0.031661 0.553789 0.260530 0.244371

loop_
_geom_bond_atom_site_label_1
_geom_bond_atom_site_label_2
_ccdc_geom_bond_type
C2    O12   A    
C69   N5    S    
N6    H69   S    
C63   C65   A    
O2    Zn4   S    
C2    O8    A    
C87   H1    S    
C3    C85   S    
C36   N4    S    
C13   H45   S    
C1    O7    A    
C76   C79   A    
C6    H40   S    
C16   H44   S    
O19   Zn3   S    
C6    C9    S    
C84   O22   A    
O20   Zn4   S    
O26   Zn2   S    
C49   H17   S    
C4    C87   S    
C96   H70   S    
C66   C79   S    
N6    C96   S    
O1    Zn1   S    
C82   O24   A    
O21   Zn7   S    
C13   C18   S    
C75   H33   S    
C67   O17   A    
O25   Zn1   S    
C76   C78   A    
C86   H20   S    
C5    C11   S    
C85   H19   S    
C29   H7    S    
C6    C12   S    
C82   O20   A    
C93   H59   S    
C86   C88   S    
O6    Zn8   S    
N3    C93   S    
C27   C29   A    
C52   H22   S    
C58   C60   A    
C92   H54   S    
C91   H51   S    
C18   C20   S    
N5    C95   S    
C43   H15   S    
C20   H48   S    
C69   C71   A    
C93   H60   S    
C62   C64   A    
C24   O14   A    
C17   C19   S    
C47   C60   S    
C8    H38   S    
O12   Zn8   S    
C88   H2    S    
C53   H11   S    
C28   C30   A    
C49   C51   A    
C95   H68   S    
O10   Zn6   S    
C31   C33   A    
O1    Zn7   S    
C45   C78   S    
C31   H9    S    
C12   H42   S    
C75   C80   A    
C42   H14   S    
C84   O26   A    
C19   H47   S    
O23   Zn5   S    
N1    C91   S    
C67   O5    A    
C95   H66   S    
O2    Zn8   S    
C65   C80   S    
N1    H49   S    
C55   C60   A    
O15   Zn3   S    
C50   H18   S    
C41   C43   A    
C14   C17   S    
O16   Zn4   S    
C15   C20   S    
C45   O15   A    
C42   C44   A    
C46   O16   A    
O2    Zn6   S    
C52   C54   A    
C91   H52   S    
C4    C90   S    
C96   H71   S    
O2    Zn2   S    
C7    C12   S    
C22   C34   A    
C81   O19   A    
C13   C19   S    
C85   C87   S    
C61   H27   S    
N4    H61   S    
C76   H34   S    
C14   C20   S    
C72   C74   A    
C24   O10   A    
C92   H55   S    
C5    C7    S    
C6    C8    S    
C55   H23   S    
C28   C39   S    
C94   H63   S    
C18   C67   S    
C26   N2    S    
C23   O9    A    
C32   H10   S    
C33   H3    S    
C51   C53   A    
C64   C66   A    
C38   C40   A    
N4    C94   S    
C25   N1    S    
O4    Zn2   S    
C63   H29   S    
O17   Zn5   S    
C50   C52   A    
C91   H50   S    
O24   Zn6   S    
C27   C40   S    
C35   N3    S    
C94   H64   S    
C74   H26   S    
C61   C63   A    
O22   Zn8   S    
C77   C79   A    
C83   O21   A    
O1    Zn3   S    
O8    Zn4   S    
C9    C11   S    
C41   C53   A    
C10   C12   S    
C83   O25   A    
C45   O3    A    
C1    C38   S    
C16   C18   S    
C88   C90   S    
C68   O6    A    
C55   C57   A    
C14   C16   S    
C5    H39   S    
C58   C81   S    
C25   C27   A    
C84   C89   S    
C36   C38   A    
O18   Zn6   S    
C4    C86   S    
C35   C37   A    
C48   C59   S    
C71   C73   A    
O7    Zn3   S    
C96   H72   S    
C70   N6    S    
C7    C9    S    
C83   C90   S    
C21   C25   A    
C17   C68   S    
C51   H21   S    
C92   H56   S    
C72   H32   S    
C3    C88   S    
O11   Zn7   S    
C22   H6    S    
C54   H12   S    
C36   C39   A    
C81   O23   A    
C34   H4    S    
C1    O11   A    
C68   O18   A    
C86   C89   S    
C11   H41   S    
C46   C77   S    
O14   Zn2   S    
C85   C90   S    
C3    H35   S    
C9    C24   S    
C15   C17   S    
C15   H43   S    
C44   H16   S    
C10   C23   S    
C47   C49   A    
C21   H5    S    
C30   H8    S    
C26   C28   A    
C64   H30   S    
C56   C59   A    
C4    H36   S    
C3    C89   S    
C61   C73   A    
O3    Zn1   S    
C13   C15   S    
C35   C40   A    
O5    Zn7   S    
C5    C10   S    
C29   C31   A    
C44   C48   A    
O13   Zn1   S    
C73   H25   S    
C42   C54   A    
C30   C32   A    
C2    C37   S    
N3    H57   S    
C66   C70   A    
C14   H46   S    
C8    C11   S    
C65   C69   A    
C48   C50   A    
C46   O4    A    
C56   C58   A    
O1    Zn5   S    
C78   C80   A    
N5    H65   S    
C62   H28   S    
C57   C59   A    
C23   O13   A    
N2    H53   S    
C41   H13   S    
C37   C39   A    
C21   C33   A    
C93   H58   S    
C8    C10   S    
C94   H62   S    
C22   C26   A    
C75   C77   A    
C71   H31   S    
C95   H67   S    
C87   C89   S    
C56   H24   S    
C57   C82   S    
C62   C74   A    
C70   C72   A    
C7    H37   S    
C43   C47   A    
O9    Zn5   S    
C32   C34   A    
N2    C92   S    
C16   C19   S    
