data_mof_unit_43798.cif
_audit_creation_date              2012-12-10T18:49:21-0500
_audit_creation_method            fapswitch 2.2
_symmetry_space_group_name_H-M    P1
_symmetry_Int_Tables_number       1
_space_group_crystal_system       triclinic
_cell_length_a                    9.847962
_cell_length_b                    10.680756
_cell_length_c                    13.653931
_cell_angle_alpha                 89.739299
_cell_angle_beta                  82.869151
_cell_angle_gamma                 90.253598
_cell_volume                      1425.02949129

loop_
_atom_site_label
_atom_site_type_symbol
_atom_type_description
_atom_site_fract_x
_atom_site_fract_y
_atom_site_fract_z
_atom_type_partial_charge
C1    C     C_R   0.501201 0.739776 0.496033 0.957805
C2    C     C_R   0.498712 0.260147 0.504052 0.970470
C3    C     C_R   0.497689 0.127589 0.504784 -0.219998
C4    C     C_R   0.501886 0.872204 0.494925 -0.219276
C5    C     C_R   0.475456 0.501466 0.685657 0.935553
C6    C     C_R   0.524581 0.499284 0.314327 0.924120
C7    C     C_R   0.937605 0.418149 0.442394 -0.031501
C8    C     C_R   0.062394 0.581843 0.557615 -0.051295
C9    C     C_R   0.081432 0.418157 0.442436 0.011164
C10   C     C_R   0.918563 0.581785 0.557616 0.002021
C11   C     C_1   0.543644 0.499302 0.210834 -0.101391
C12   C     C_1   0.456501 0.503091 0.789141 -0.134416
C13   C     C_2   0.559412 0.500525 0.019152 0.115909
C14   C     C_2   0.440806 0.504089 0.980803 0.111764
C15   C     C_1   0.444350 0.503915 0.876703 0.003723
C16   C     C_1   0.555840 0.499711 0.123261 0.018652
C17   C     C_R   0.600344 0.940588 0.432768 0.397748
C18   C     C_R   0.398510 0.059059 0.566395 0.479373
C19   C     C_R   0.597547 0.069113 0.439395 -0.325593
C20   C     C_R   0.401824 0.930585 0.560044 -0.315352
H1    H     H_    0.890770 0.352695 0.396324 0.131347
H2    H     H_    0.109230 0.647315 0.603670 0.134717
H3    H     H_    0.143489 0.352635 0.396440 0.138383
H4    H     H_    0.856508 0.647308 0.603614 0.133925
H5    H     H_    0.671409 0.124581 0.391934 0.202187
H6    H     H_    0.328058 0.874973 0.607460 0.202679
N1    N     N_R   0.142790 0.500030 0.500020 -0.083391
N2    N     N_R   0.857210 0.499970 0.499980 -0.077881
O1    O     O_R   0.385380 0.683250 0.500010 -0.632213
O2    O     O_R   0.614620 0.316750 0.499990 -0.633968
O3    O     O_R   0.614710 0.683220 0.500000 -0.572612
O4    O     O_R   0.385290 0.316780 0.500000 -0.572433
O5    O     O_R   0.368830 0.499990 0.640350 -0.602597
O6    O     O_R   0.631170 0.500010 0.359650 -0.585408
O7    O     O_R   0.598160 0.499960 0.640350 -0.616861
O8    O     O_R   0.401840 0.500040 0.359650 -0.622976
Zn1   Zn    Zn3+2 0.346870 0.500020 0.500000 1.013566
Zn2   Zn    Zn3+2 0.653130 0.499980 0.500000 1.024625
N3    N     N_3   0.311517 0.507324 0.042354 -0.444171
H7    H     H_    0.259877 0.587787 0.024046 0.206555
H8    H     H_    0.254037 0.429882 0.024817 0.197456
N4    N     N_3   0.688692 0.497229 0.957591 -0.441880
H9    H     H_    0.740146 0.416568 0.975702 0.202194
H10   H     H_    0.746353 0.574462 0.975307 0.207232
S1    S     S_3+6 0.722458 0.870592 0.343117 0.052238
O9    O     O_2   0.653256 0.773263 0.287315 -0.281981
O10   O     O_2   0.787113 0.967042 0.271205 -0.286851
O11   O     O_3   0.845663 0.801833 0.399021 -0.512028
H11   H     H_    0.879767 0.868264 0.440223 0.345110
S2    S     S_3+6 0.275088 0.128445 0.655328 0.031474
O12   O     O_2   0.167022 0.191001 0.603922 -0.292213
O13   O     O_2   0.208424 0.030758 0.725283 -0.299388
O14   O     O_3   0.351891 0.235230 0.719987 -0.575377
H12   H     H_    0.277387 0.270186 0.767255 0.381063

loop_
_geom_bond_atom_site_label_1
_geom_bond_atom_site_label_2
_ccdc_geom_bond_type
S2    O13   D    
O3    Zn2   S    
C3    C19   A    
C11   C16   T    
C8    H2    S    
C12   C15   T    
N2    Zn2   S    
C2    O2    A    
C1    C4    S    
C1    O1    A    
S2    O12   D    
N3    H8    S    
O6    Zn2   S    
C13   C14   D    
C6    C11   S    
C18   S2    S    
N4    H10   S    
N1    Zn1   S    
C4    C17   A    
C5    O7    A    
C8    C10   A    
O8    Zn1   S    
C17   C19   A    
C6    O8    A    
C13   N4    S    
C2    C3    S    
C18   C20   A    
C5    O5    A    
S1    O10   D    
C19   H5    S    
O5    Zn1   S    
S1    O11   S    
S2    O14   S    
O4    Zn1   S    
N4    H9    S    
O1    Zn1   S    
C4    C20   A    
S1    O9    D    
C1    O3    A    
O7    Zn2   S    
C9    N1    A    
C3    C18   A    
C2    O4    A    
C13   C16   S    
C10   N2    A    
N3    H7    S    
C7    C9    A    
C8    N1    A    
C14   C15   S    
O11   H11   S    
O2    Zn2   S    
C10   H4    S    
C14   N3    S    
C7    H1    S    
C9    H3    S    
C7    N2    A    
C6    O6    A    
O14   H12   S    
C17   S1    S    
C20   H6    S    
C5    C12   S    
