data_mof_unit_41055.cif
_audit_creation_date              2012-10-26T19:30:10-0400
_audit_creation_method            fapswitch 2.2
_symmetry_space_group_name_H-M    P1
_symmetry_Int_Tables_number       1
_space_group_crystal_system       triclinic
_cell_length_a                    15.844578
_cell_length_b                    10.651097
_cell_length_c                    9.457107
_cell_angle_alpha                 90.201589
_cell_angle_beta                  90.738109
_cell_angle_gamma                 89.934267
_cell_volume                      1595.85831028

loop_
_atom_site_label
_atom_site_type_symbol
_atom_type_description
_atom_site_fract_x
_atom_site_fract_y
_atom_site_fract_z
_atom_type_partial_charge
C1    C     C_R   0.503090 0.260018 0.499613 0.532884
C2    C     C_3   0.494152 0.385972 0.948761 -0.045429
C3    C     C_3   0.436878 0.565016 0.948106 -0.041298
C4    C     C_3   0.563111 0.434567 0.052123 -0.039311
C5    C     C_3   0.567848 0.547538 0.952988 0.377030
C6    C     C_3   0.432237 0.451992 0.047147 0.380787
C7    C     C_R   0.340089 0.500268 0.499176 0.540628
C8    C     C_R   0.659936 0.499987 0.500869 0.539666
C9    C     C_3   0.973627 0.419922 0.602417 -0.155122
C10   C     C_3   0.026106 0.589387 0.407282 -0.135754
C11   C     C_3   0.028425 0.391336 0.471773 0.308530
C12   C     C_R   0.497116 0.740448 0.500365 0.536211
C13   C     C_3   0.971268 0.617627 0.538227 0.305472
C14   C     C_1   0.250475 0.502185 0.497665 -0.024962
C15   C     C_1   0.749612 0.500272 0.503101 -0.021394
C16   C     C_3   0.029017 0.537214 0.634435 0.007416
C17   C     C_3   0.971379 0.471986 0.375790 0.011685
C18   C     C_3   0.083388 0.506653 0.503922 0.031106
C19   C     C_3   0.916910 0.501869 0.505401 0.016499
C20   C     C_1   0.174962 0.504324 0.499054 -0.021167
C21   C     C_1   0.825175 0.500796 0.504838 -0.028592
C22   C     C_3   0.549495 0.040330 0.608463 0.026080
C23   C     C_3   0.578829 0.952977 0.487143 -0.114108
C24   C     C_3   0.451965 0.962030 0.391364 0.020745
C25   C     C_3   0.007398 0.177581 0.454962 -0.137435
C26   C     C_3   0.990909 0.827819 0.593268 -0.132027
C27   C     C_3   0.934858 0.436648 0.230642 -0.265942
C28   C     C_3   0.004222 0.410562 0.124316 -0.431244
C29   C     C_3   0.058962 0.567763 0.785573 -0.273877
C30   C     C_3   0.140437 0.644397 0.792178 -0.447638
C31   C     C_3   0.610308 0.093037 0.721535 -0.263382
C32   C     C_3   0.676948 0.997536 0.768219 -0.446163
C33   C     C_3   0.391819 0.913766 0.275697 -0.266078
C34   C     C_3   0.422626 0.048669 0.512302 -0.136599
C35   C     C_3   0.349784 0.019965 0.192669 -0.433319
C36   C     C_3   0.415834 0.927425 0.752139 -0.264357
C37   C     C_3   0.469954 0.885884 0.876624 -0.436396
C38   C     C_3   0.577770 0.085768 0.244833 -0.258851
C39   C     C_3   0.619247 0.979098 0.163751 -0.463302
C40   C     C_3   0.697457 0.636529 0.001655 -0.139307
C41   C     C_3   0.305817 0.353115 0.999091 -0.137072
C42   C     C_3   0.495969 0.877683 0.501417 0.021919
C43   C     C_3   0.504910 0.123614 0.498531 0.016611
C44   C     C_3   0.467308 0.963891 0.622821 0.025094
C45   C     C_3   0.534009 0.038115 0.377524 0.030893
C46   C     C_3   0.505959 0.613492 0.051335 -0.049135
Cu1   Cu    Cu3+1 0.500020 0.499990 0.643150 0.965377
Cu2   Cu    Cu3+1 0.499980 0.500010 0.356850 0.966796
H1    H     H_    0.950367 0.351752 0.681404 0.090577
H2    H     H_    0.000721 0.159057 0.569829 0.106526
H3    H     H_    0.032465 0.090909 0.405421 0.130751
H4    H     H_    0.045216 0.823280 0.519900 0.096937
H5    H     H_    0.012927 0.825983 0.704968 0.126796
H6    H     H_    0.959461 0.919658 0.576231 0.122052
H7    H     H_    0.044786 0.494698 0.112025 0.146674
H8    H     H_    0.043774 0.330064 0.159119 0.194037
H9    H     H_    0.975063 0.386906 0.020243 0.119289
H10   H     H_    0.894330 0.352286 0.240525 0.133223
H11   H     H_    0.894893 0.515258 0.191446 0.137113
H12   H     H_    0.048597 0.658531 0.328737 0.096931
H13   H     H_    0.195732 0.582290 0.775822 0.151400
H14   H     H_    0.140825 0.719293 0.711129 0.140730
H15   H     H_    0.147386 0.688176 0.898410 0.130587
H16   H     H_    0.007891 0.619145 0.840663 0.155695
H17   H     H_    0.070277 0.478299 0.842597 0.134511
H18   H     H_    0.647222 0.911479 0.810174 0.174952
H19   H     H_    0.718073 0.971880 0.678522 0.157246
H20   H     H_    0.717854 0.039738 0.851736 0.126142
H21   H     H_    0.643767 0.175281 0.677096 0.150020
H22   H     H_    0.574226 0.126208 0.813959 0.140721
H23   H     H_    0.641886 0.909019 0.475364 0.111098
H24   H     H_    0.315776 0.084525 0.264697 0.172851
H25   H     H_    0.397030 0.073694 0.132477 0.157765
H26   H     H_    0.303536 0.979719 0.115896 0.125712
H27   H     H_    0.427030 0.852737 0.202600 0.148990
H28   H     H_    0.342067 0.856193 0.325747 0.139197
H29   H     H_    0.515981 0.813156 0.844751 0.202657
H30   H     H_    0.503394 0.967368 0.923523 0.140466
H31   H     H_    0.427998 0.846601 0.957936 0.115382
H32   H     H_    0.377528 0.009378 0.786187 0.128470
H33   H     H_    0.371649 0.850720 0.721710 0.141632
H34   H     H_    0.358964 0.091277 0.522628 0.107143
H35   H     H_    0.672484 0.938656 0.226011 0.146468
H36   H     H_    0.572846 0.904290 0.139669 0.150265
H37   H     H_    0.644330 0.015921 0.063529 0.132413
H38   H     H_    0.531749 0.135041 0.175374 0.155079
H39   H     H_    0.627333 0.154339 0.276678 0.140445
H40   H     H_    0.719757 0.553778 0.063083 0.111894
H41   H     H_    0.669242 0.707861 0.073011 0.104723
H42   H     H_    0.753530 0.679930 0.952692 0.145734
H43   H     H_    0.335443 0.271753 0.944884 0.101025
H44   H     H_    0.288133 0.427058 0.921380 0.111954
H45   H     H_    0.383649 0.618367 0.899926 0.093960
H46   H     H_    0.246715 0.319224 0.047604 0.142645
H47   H     H_    0.615796 0.380187 0.100515 0.087633
H48   H     H_    0.514014 0.707239 0.099608 0.085155
H49   H     H_    0.487800 0.290815 0.902053 0.088416
H50   H     H_    0.944682 0.197044 0.405529 0.108061
N1    N     N_3   0.500060 0.499970 0.858290 -0.238834
N2    N     N_3   0.499940 0.500030 0.141710 -0.237601
O1    O     O_R   0.500040 0.316850 0.620870 -0.519384
O2    O     O_3   0.930922 0.732503 0.569508 -0.559672
O3    O     O_3   0.640580 0.600790 0.893186 -0.540791
O4    O     O_3   0.358967 0.400555 0.107126 -0.535445
O5    O     O_R   0.499960 0.683150 0.379130 -0.520285
O6    O     O_R   0.500000 0.316860 0.379090 -0.490231
O7    O     O_R   0.500000 0.683140 0.620910 -0.488219
O8    O     O_R   0.379090 0.499980 0.620870 -0.522902
O9    O     O_R   0.620910 0.500020 0.379130 -0.522398
O10   O     O_R   0.379060 0.499990 0.379090 -0.435487
O11   O     O_R   0.620940 0.500010 0.620910 -0.437667
O12   O     O_3   0.065173 0.275655 0.432851 -0.563394

loop_
_geom_bond_atom_site_label_1
_geom_bond_atom_site_label_2
_ccdc_geom_bond_type
Cu2   O10   S    
C5    O3    S    
C11   C18   S    
Cu1   O1    S    
C24   C42   S    
C2    C4    S    
C3    C6    S    
C28   H8    S    
C35   H26   S    
C28   H9    S    
C37   H31   S    
C23   C42   S    
C38   H38   S    
C23   C45   S    
C24   C45   S    
C36   C37   S    
C19   C21   S    
C9    C16   S    
C39   H36   S    
C12   O5    A    
C10   C17   S    
Cu1   N1    S    
C25   H2    S    
C38   C45   S    
C12   C42   S    
C25   O12   S    
C17   C19   S    
C1    C43   S    
C7    C14   S    
C22   C44   S    
Cu2   O5    S    
C2    H49   S    
C6    O4    S    
C40   H41   S    
C1    O6    A    
C32   H20   S    
Cu2   O9    S    
C29   H16   S    
C30   H15   S    
C2    C6    S    
C42   C44   S    
C26   H6    S    
C28   H7    S    
C9    C19   S    
C31   H22   S    
Cu2   N2    S    
Cu2   O6    S    
C22   C31   S    
C13   C19   S    
C17   C27   S    
Cu1   Cu2   S    
C14   C20   T    
C34   C44   S    
C36   H32   S    
C8    O11   A    
C16   C29   S    
C37   H29   S    
C27   H10   S    
C24   C34   S    
C6    N2    S    
C10   H12   S    
C25   H3    S    
C29   C30   S    
C26   H4    S    
C4    H47   S    
C9    C11   S    
C33   H28   S    
C41   H46   S    
C31   H21   S    
C36   H33   S    
C9    H1    S    
C3    H45   S    
C30   H13   S    
C43   C45   S    
C32   H19   S    
C29   H17   S    
C41   H43   S    
C35   H24   S    
C8    C15   S    
Cu1   O7    S    
C4    N2    S    
C36   C44   S    
C33   H27   S    
C39   H37   S    
C26   H5    S    
C1    O1    A    
C32   H18   S    
C5    C46   S    
C46   N2    S    
C35   H25   S    
C11   O12   S    
C22   C23   S    
C31   C32   S    
C34   C43   S    
C4    C5    S    
C10   C13   S    
C11   C17   S    
C2    N1    S    
C12   O7    A    
C41   O4    S    
C5    N1    S    
C37   H30   S    
C3    C46   S    
C24   C33   S    
C7    O10   A    
C38   H39   S    
C40   H40   S    
C30   H14   S    
C39   H35   S    
C27   H11   S    
C8    O9    A    
C26   O2    S    
C40   O3    S    
C38   C39   S    
C10   C18   S    
Cu1   O11   S    
C33   C35   S    
C18   C20   S    
C3    N1    S    
C25   H50   S    
C15   C21   T    
C41   H44   S    
C46   H48   S    
C23   H23   S    
C16   C18   S    
Cu1   O8    S    
C13   C16   S    
C27   C28   S    
C7    O8    A    
C34   H34   S    
C40   H42   S    
C13   O2    S    
C22   C43   S    
