data_mof_unit_25060.cif
_audit_creation_date              2012-12-10T18:36:15-0500
_audit_creation_method            fapswitch 2.2
_symmetry_space_group_name_H-M    P1
_symmetry_Int_Tables_number       1
_space_group_crystal_system       triclinic
_cell_length_a                    14.937438
_cell_length_b                    15.388575
_cell_length_c                    19.184623
_cell_angle_alpha                 89.858592
_cell_angle_beta                  104.836293
_cell_angle_gamma                 81.193322
_cell_volume                      4208.60379027

loop_
_atom_site_label
_atom_site_type_symbol
_atom_type_description
_atom_site_fract_x
_atom_site_fract_y
_atom_site_fract_z
_atom_type_partial_charge
C1    C     C_R   0.440826 0.662130 0.489276 0.927207
C2    C     C_R   0.549641 0.184109 0.536908 0.357860
C3    C     C_R   0.437868 0.901970 0.484150 -0.036663
C4    C     C_R   0.559184 0.098458 0.510993 -0.044538
C5    C     C_R   0.356338 0.933872 0.507710 -0.046884
C6    C     C_R   0.641140 0.066740 0.487857 -0.017494
C7    C     C_R   0.507943 0.955780 0.489162 0.053740
C8    C     C_R   0.488577 0.044991 0.504693 0.007899
C9    C     C_R   0.397484 0.079580 0.509367 -0.156824
C10   C     C_R   0.598714 0.921401 0.483704 -0.181625
C11   C     C_R   0.333873 0.024830 0.516381 0.428935
C12   C     C_R   0.559139 0.337829 0.510700 0.930941
C13   C     C_R   0.662517 0.976124 0.477154 0.366272
C14   C     C_R   0.849854 0.615038 0.624481 0.299937
C15   C     C_R   0.150416 0.383581 0.376530 0.367171
C16   C     C_R   0.500933 0.500438 0.634386 0.941292
C17   C     C_R   0.499224 0.499295 0.365605 0.954319
C18   C     C_R   0.758108 0.598354 0.600645 -0.065243
C19   C     C_R   0.241895 0.401070 0.399706 -0.009763
C20   C     C_R   0.792584 0.517718 0.503509 0.020488
C21   C     C_R   0.207637 0.482179 0.496704 0.004579
C22   C     C_R   0.886473 0.531499 0.524531 -0.044192
C23   C     C_R   0.402621 0.755002 0.485896 -0.156494
C24   C     C_R   0.113890 0.467913 0.476202 -0.058129
C25   C     C_R   0.911893 0.591166 0.580209 -0.103382
C26   C     C_R   0.088542 0.407767 0.420889 -0.123004
C27   C     C_R   0.954981 0.487692 0.491996 0.043606
C28   C     C_R   0.045471 0.511572 0.508937 0.062753
C29   C     C_R   0.062888 0.582868 0.553774 -0.231131
C30   C     C_R   0.937681 0.416081 0.447516 -0.229031
C31   C     C_R   0.997025 0.624300 0.587826 0.428750
C32   C     C_R   0.003720 0.374328 0.413796 0.456406
C33   C     C_R   0.417709 0.510556 0.730218 -0.247073
C34   C     C_R   0.596961 0.244870 0.513367 -0.158530
C35   C     C_R   0.584081 0.490585 0.270837 -0.213596
C36   C     C_R   0.417323 0.510537 0.802538 0.413828
C37   C     C_R   0.586108 0.488492 0.198931 0.408158
C38   C     C_R   0.503740 0.499407 0.855550 -0.210224
C39   C     C_R   0.500791 0.494140 0.145179 -0.216186
C40   C     C_R   0.589451 0.490023 0.835914 0.411411
C41   C     C_R   0.414531 0.500395 0.163813 0.412498
C42   C     C_R   0.587801 0.492093 0.763094 -0.202074
C43   C     C_R   0.414669 0.500508 0.236406 -0.183372
C44   C     C_R   0.502398 0.501402 0.710394 -0.172789
C45   C     C_R   0.300461 0.873488 0.521731 -0.045142
C46   C     C_R   0.498950 0.496612 0.289774 -0.177366
C47   C     C_R   0.501866 0.495194 0.070139 0.433650
C48   C     C_R   0.504245 0.497543 0.930890 0.423501
C49   C     C_R   0.698830 0.126909 0.476646 -0.050077
C50   C     C_R   0.327304 0.783927 0.515279 -0.241818
C51   C     C_R   0.673114 0.216237 0.484855 -0.235647
C52   C     C_R   0.448106 0.815544 0.460005 0.357170
H1    H     H_    0.712216 0.262882 0.468587 0.191829
H2    H     H_    0.708491 0.616766 0.632416 0.152610
H3    H     H_    0.771503 0.631372 0.764330 0.365576
H4    H     H_    0.153250 0.390519 0.187390 0.415618
H5    H     H_    0.125824 0.611327 0.559736 0.147161
H6    H     H_    0.874892 0.387370 0.441887 0.180659
H7    H     H_    0.242242 0.450358 0.886829 0.422997
H8    H     H_    0.765089 0.397365 0.108982 0.430030
H9    H     H_    0.845419 0.444077 0.900444 0.417802
H10   H     H_    0.158897 0.539999 0.096401 0.410759
H11   H     H_    0.653082 0.484715 0.747341 0.228891
H12   H     H_    0.289684 0.737335 0.533474 0.170823
H13   H     H_    0.348999 0.505211 0.251367 0.236253
H14   H     H_    0.157178 0.204233 0.545667 0.405638
H15   H     H_    0.783737 0.795133 0.499328 0.361852
H16   H     H_    0.386636 0.289942 0.637289 0.401394
H17   H     H_    0.525095 0.862265 0.298794 0.415602
H18   H     H_    0.239891 0.893608 0.542255 0.225476
H19   H     H_    0.760363 0.106973 0.457278 0.218839
H20   H     H_    0.375982 0.149576 0.509039 0.236458
H21   H     H_    0.620039 0.851530 0.483426 0.196384
H22   H     H_    0.351723 0.518697 0.689115 0.194577
H23   H     H_    0.649359 0.486717 0.312332 0.201710
H24   H     H_    0.141047 0.763963 0.598820 0.350706
H25   H     H_    0.920853 0.163130 0.412484 0.414936
H26   H     H_    0.234839 0.519840 0.542345 0.130200
H27   H     H_    0.765538 0.480299 0.457647 0.131541
H28   H     H_    0.291298 0.382541 0.367741 0.177182
N1    N     N_R   0.520456 0.568961 0.970316 -0.069880
N2    N     N_R   0.485688 0.423741 0.030715 -0.061354
N3    N     N_R   0.519347 0.567761 0.039226 -0.064214
N4    N     N_R   0.486875 0.424922 0.961804 -0.054474
N5    N     N_R   0.731690 0.552730 0.540620 -0.117118
N6    N     N_R   0.268310 0.447270 0.459380 -0.124643
O1    O     O_R   0.383120 0.605620 0.479520 -0.610486
O2    O     O_2   0.070952 0.721547 0.698470 -0.167256
O3    O     O_3   0.074155 0.777713 0.571782 -0.491484
O4    O     O_2   0.930264 0.274717 0.305106 -0.164837
O5    O     O_2   0.079534 0.210011 0.389576 -0.200378
O6    O     O_3   0.927720 0.221740 0.432503 -0.565162
O7    O     O_2   0.990468 0.594571 0.746552 -0.157006
O8    O     O_2   0.876908 0.731095 0.730631 -0.195602
O9    O     O_3   0.826102 0.586196 0.763548 -0.494808
O10   O     O_2   0.124994 0.264594 0.272977 -0.185315
O11   O     O_2   0.009872 0.400903 0.254482 -0.198003
O12   O     O_R   0.616880 0.394380 0.520480 -0.614555
O13   O     O_3   0.175014 0.408391 0.237711 -0.540831
O14   O     O_2   0.305476 0.600329 0.875676 -0.214594
O15   O     O_2   0.228129 0.547758 0.758498 -0.250009
O16   O     O_3   0.296247 0.433372 0.865936 -0.488317
O17   O     O_2   0.705787 0.563880 0.145623 -0.208600
O18   O     O_2   0.775057 0.454035 0.245056 -0.246904
O19   O     O_3   0.702618 0.398994 0.118267 -0.490875
O20   O     O_2   0.711828 0.556700 0.940764 -0.230750
O21   O     O_2   0.702251 0.400162 0.953704 -0.243824
O22   O     O_3   0.787230 0.447469 0.860940 -0.484536
O23   O     O_R   0.531890 0.639510 0.505590 -0.586318
O24   O     O_2   0.302007 0.576637 0.039470 -0.220766
O25   O     O_2   0.295494 0.422038 0.065368 -0.256949
O26   O     O_3   0.216473 0.541609 0.135600 -0.498887
O27   O     O_2   0.146120 0.045318 0.481991 -0.216233
O28   O     O_2   0.228322 0.041490 0.610386 -0.241169
O29   O     O_3   0.216993 0.183445 0.533132 -0.511088
O30   O     O_2   0.769715 0.967142 0.384316 -0.215981
O31   O     O_2   0.850826 0.948491 0.512639 -0.205647
O32   O     O_3   0.774375 0.818543 0.449434 -0.458780
O33   O     O_2   0.501591 0.125467 0.653611 -0.231236
O34   O     O_R   0.468110 0.360490 0.494410 -0.573225
O35   O     O_2   0.572873 0.259343 0.664970 -0.274238
O36   O     O_3   0.399882 0.271060 0.591132 -0.534189
O37   O     O_2   0.583292 0.733245 0.401271 -0.284201
O38   O     O_2   0.420447 0.739700 0.332023 -0.260594
O39   O     O_3   0.493762 0.882414 0.336884 -0.504036
O40   O     O_R   0.425590 0.483060 0.588820 -0.612031
O41   O     O_R   0.574410 0.516940 0.411180 -0.601157
O42   O     O_R   0.574360 0.516950 0.614890 -0.628758
O43   O     O_R   0.425640 0.483050 0.385110 -0.627830
O44   O     O_2   0.922898 0.788460 0.614669 -0.204343
S1    S     S_3+6 0.014918 0.729837 0.620920 0.139362
S2    S     S_3+6 0.767573 0.928338 0.455718 0.108431
S3    S     S_3+6 0.506766 0.208759 0.614732 0.057307
S4    S     S_3+6 0.488212 0.789723 0.381200 0.057034
S5    S     S_3+6 0.986868 0.267966 0.382442 0.111452
S6    S     S_3+6 0.889095 0.634214 0.717785 0.125787
S7    S     S_3+6 0.111389 0.361910 0.283747 0.108403
S8    S     S_3+6 0.308039 0.526142 0.825036 0.096136
S9    S     S_3+6 0.696269 0.477878 0.178082 0.101168
S10   S     S_3+6 0.699395 0.473566 0.900978 0.086600
S11   S     S_3+6 0.305552 0.509920 0.097867 0.082101
S12   S     S_3+6 0.227876 0.072927 0.536039 0.098232
Zn1   Zn    Zn3+2 0.400660 0.477370 0.482600 1.011974
Zn2   Zn    Zn3+2 0.599340 0.522630 0.517400 1.011907

loop_
_geom_bond_atom_site_label_1
_geom_bond_atom_site_label_2
_ccdc_geom_bond_type
O39   S4    S    
C25   C31   A    
C7    C10   A    
C30   C32   A    
H25   O6    S    
C26   C32   A    
C52   S4    S    
C14   C18   A    
C9    H20   S    
C4    C8    A    
O7    S6    D    
C7    C8    A    
C39   C41   A    
C48   N1    A    
C15   C19   A    
C35   H23   S    
C34   C51   A    
O33   S3    D    
O28   S12   D    
C28   C29   A    
C35   C37   A    
C24   C26   A    
C5    C11   A    
C3    C7    A    
C10   H21   S    
C30   H6    S    
O40   Zn1   S    
O21   S10   D    
C33   C36   A    
C50   H12   S    
O27   S12   D    
O16   S8    S    
C47   N2    A    
C1    O1    A    
H9    O22   S    
O31   S2    D    
C31   S1    S    
C1    O23   A    
C12   O34   A    
C8    C9    A    
C49   C51   A    
C22   C25   A    
C21   H26   S    
O8    S6    D    
C47   N3    A    
C16   C44   S    
C12   O12   A    
H24   O3    S    
C2    C34   A    
C40   C42   A    
O29   S12   S    
H17   O39   S    
C14   C25   A    
C27   C30   A    
C41   C43   A    
C16   O40   A    
O34   Zn1   S    
C42   C44   A    
N5    Zn2   S    
O11   S7    D    
C11   S12   S    
N6    Zn1   S    
C2    S3    S    
H14   O29   S    
O37   S4    D    
C17   O43   A    
C18   N5    A    
C17   C46   S    
C4    C6    A    
H16   O36   S    
O10   S7    D    
O22   S10   S    
O25   S11   D    
C17   O41   A    
C15   C26   A    
C3    C5    A    
C5    C45   A    
C48   N4    A    
O2    S1    D    
C51   H1    S    
O26   S11   S    
O24   S11   D    
C2    C4    A    
O36   S3    S    
C41   S11   S    
O17   S9    D    
O19   S9    S    
C16   O42   A    
O20   S10   D    
O30   S2    D    
C43   H13   S    
C20   N5    A    
O5    S5    D    
O42   Zn2   S    
O14   S8    D    
H3    O9    S    
C29   H5    S    
H15   O32   S    
C1    C23   S    
C19   N6    A    
N2    N4    A    
C22   C27   A    
C9    C11   A    
C37   S9    S    
O6    S5    S    
C33   C44   A    
C12   C34   S    
C39   C47   S    
C21   N6    A    
C20   H27   S    
O12   Zn2   S    
C45   H18   S    
H7    O16   S    
C38   C48   S    
C24   C28   A    
C20   C22   A    
C23   C50   A    
C10   C13   A    
N1    N3    A    
C32   S5    S    
O15   S8    D    
O43   Zn1   S    
O3    S1    S    
O18   S9    D    
O38   S4    D    
O1    Zn1   S    
C36   C38   A    
O44   S1    D    
C37   C39   A    
C3    C52   A    
C6    C13   A    
C38   C40   A    
O4    S5    D    
C23   C52   A    
C14   S6    S    
C45   C50   A    
C40   S10   S    
O9    S6    S    
C13   S2    S    
O23   Zn2   S    
O41   Zn2   S    
C6    C49   A    
C19   H28   S    
C43   C46   A    
O32   S2    S    
C18   H2    S    
C33   H22   S    
H10   O26   S    
C29   C31   A    
C49   H19   S    
C21   C24   A    
C27   C28   A    
O13   S7    S    
H4    O13   S    
O35   S3    D    
C35   C46   A    
C36   S8    S    
C42   H11   S    
H8    O19   S    
C15   S7    S    
