data_mof_unit_15666.cif
_audit_creation_date              2012-12-10T17:11:03-0500
_audit_creation_method            fapswitch 2.2
_symmetry_space_group_name_H-M    P1
_symmetry_Int_Tables_number       1
_space_group_crystal_system       triclinic
_cell_length_a                    11.660736
_cell_length_b                    13.004074
_cell_length_c                    13.451666
_cell_angle_alpha                 91.981613
_cell_angle_beta                  77.000556
_cell_angle_gamma                 99.941308
_cell_volume                      1957.63524847

loop_
_atom_site_label
_atom_site_type_symbol
_atom_type_description
_atom_site_fract_x
_atom_site_fract_y
_atom_site_fract_z
_atom_type_partial_charge
C1    C     C_R   0.521031 0.700938 0.501209 0.826731
C2    C     C_R   0.450486 0.467363 0.975847 0.069166
C3    C     C_R   0.480392 0.456900 0.868223 0.031598
C4    C     C_R   0.535885 0.456135 0.033181 0.071232
C5    C     C_R   0.656141 0.458819 0.982194 0.139340
C6    C     C_R   0.682566 0.438272 0.878176 -0.251383
C7    C     C_R   0.592638 0.427670 0.824060 -0.193423
C8    C     C_R   0.506708 0.440729 0.139616 0.030509
C9    C     C_R   0.716312 0.495985 0.141959 -0.223502
C10   C     C_R   0.399065 0.478561 0.809143 -0.115636
C11   C     C_R   0.467525 0.185726 0.495763 -0.043666
C12   C     C_R   0.436285 0.489464 0.696202 0.821307
C13   C     C_R   0.533285 0.814407 0.501404 -0.056112
C14   C     C_R   0.652164 0.985043 0.510838 -0.219345
C15   C     C_R   0.641418 0.876951 0.510089 -0.190528
C16   C     C_R   0.436084 0.860736 0.492675 -0.269153
C17   C     C_R   0.446238 0.968787 0.493051 0.178083
C18   C     C_R   0.555010 0.031384 0.502572 0.176424
C19   C     C_R   0.564884 0.139382 0.503871 -0.269887
C20   C     C_R   0.359909 0.123315 0.485485 -0.205419
C21   C     C_R   0.349295 0.015200 0.484227 -0.217640
C22   C     C_R   0.949096 0.600115 0.591332 -0.397830
C23   C     C_R   0.479224 0.299099 0.497958 0.783501
C24   C     C_R   0.828888 0.589784 0.584358 0.389207
C25   C     C_R   0.855572 0.455593 0.461347 -0.038061
C26   C     C_R   0.976370 0.462594 0.467380 0.069040
C27   C     C_R   0.023787 0.536825 0.532383 0.042611
C28   C     C_R   0.144882 0.545221 0.537431 0.049861
C29   C     C_R   0.169660 0.406488 0.420219 0.069769
C30   C     C_R   0.050527 0.396803 0.411127 -0.333721
C31   C     C_R   0.562214 0.496100 0.304571 0.792130
C32   C     C_R   0.746356 0.478195 0.037163 -0.206465
C33   C     C_R   0.595861 0.478358 0.194090 -0.088565
C34   C     C_R   0.285528 0.500410 0.860367 0.162835
C35   C     C_R   0.258146 0.509450 0.966321 -0.207371
C36   C     C_R   0.340780 0.497314 0.022694 -0.213362
Cu1   Cu    Cu3+1 0.386470 0.492430 0.492410 0.943615
Cu2   Cu    Cu3+1 0.613530 0.507570 0.507590 0.947690
H1    H     H_    0.786890 0.519211 0.182615 0.161834
H2    H     H_    0.283954 0.157918 0.478549 0.155324
H3    H     H_    0.736122 0.032256 0.517913 0.133881
H4    H     H_    0.265548 0.968032 0.476550 0.134710
H5    H     H_    0.717649 0.842503 0.516355 0.156578
H6    H     H_    0.352351 0.812961 0.485637 0.151272
H7    H     H_    0.182232 0.602259 0.587146 0.127147
H8    H     H_    0.224754 0.353176 0.379436 0.119946
H9    H     H_    0.983229 0.656996 0.642956 0.138521
H10   H     H_    0.016496 0.337558 0.361560 0.134556
H11   H     H_    0.771766 0.427609 0.839253 0.145813
H12   H     H_    0.818494 0.399427 0.410778 0.129207
H13   H     H_    0.839492 0.484152 0.998655 0.133715
H14   H     H_    0.319970 0.516965 0.102542 0.149316
H15   H     H_    0.173634 0.530909 0.004972 0.139142
H16   H     H_    0.614749 0.398191 0.747560 0.182358
H17   H     H_    0.648426 0.187109 0.511487 0.150507
N1    N     N_R   0.215880 0.481050 0.481000 -0.178608
N2    N     N_R   0.784100 0.518950 0.519000 -0.175643
O1    O     O_R   0.419710 0.645650 0.494620 -0.592483
O2    O     O_R   0.611450 0.658430 0.507430 -0.558101
O3    O     O_R   0.357340 0.490460 0.641450 -0.542402
O4    O     O_R   0.549080 0.503250 0.654260 -0.574663
O5    O     O_R   0.388550 0.341570 0.492570 -0.600731
O6    O     O_R   0.580290 0.354350 0.505380 -0.600262
O7    O     O_R   0.450920 0.496750 0.345740 -0.589850
O8    O     O_R   0.642660 0.509540 0.358550 -0.585026
N3    N     N_3   0.753233 0.653654 0.646608 -0.523988
H18   H     H_    0.751085 0.638729 0.722948 0.203009
H19   H     H_    0.792048 0.731760 0.631288 0.180735
C37   C     C_3   0.398175 0.360333 0.189359 -0.393101
C38   C     C_3   0.380187 0.260802 0.125504 -0.348578
C39   C     C_3   0.282745 0.177420 0.185001 -0.867354
H20   H     H_    0.308238 0.154342 0.254760 0.254168
H21   H     H_    0.196883 0.207306 0.207203 0.249792
H22   H     H_    0.270241 0.107279 0.136601 0.249172
H23   H     H_    0.353613 0.278205 0.054545 0.232785
H24   H     H_    0.465037 0.229068 0.104258 0.226844
H25   H     H_    0.411356 0.333307 0.262739 0.208962
H26   H     H_    0.315653 0.394828 0.207084 0.190430
N4    N     N_3   0.199287 0.519096 0.805119 -0.577333
H27   H     H_    0.180483 0.594301 0.822321 0.204432
H28   H     H_    0.120648 0.465933 0.830860 0.210389

loop_
_geom_bond_atom_site_label_1
_geom_bond_atom_site_label_2
_ccdc_geom_bond_type
N3    H19   S    
C35   H15   S    
C14   C18   A    
C37   H25   S    
C35   C36   A    
C4    C8    A    
Cu1   O5    S    
C28   N1    A    
C11   C19   A    
C8    C37   S    
Cu1   Cu2   S    
C30   H10   S    
C18   C19   A    
C3    C7    A    
C1    O2    A    
C5    C6    A    
C20   H2    S    
C19   H17   S    
C9    H1    S    
C34   C35   A    
C25   H12   S    
C9    C32   A    
Cu1   N1    S    
C23   O5    A    
C16   C17   A    
C31   C33   S    
C38   C39   S    
C16   H6    S    
Cu1   O1    S    
C36   H14   S    
C24   N3    S    
C5    C32   A    
C23   O6    A    
C22   H9    S    
C9    C33   A    
C37   H26   S    
C25   N2    A    
C11   C20   A    
C28   H7    S    
C39   H21   S    
C24   N2    A    
C25   C26   A    
C17   C21   A    
N4    H27   S    
C2    C4    A    
C32   H13   S    
C29   C30   A    
C34   N4    S    
Cu2   N2    S    
Cu2   O8    S    
C17   C18   A    
C26   C27   A    
C10   C34   A    
C10   C12   S    
C14   H3    S    
C26   C30   A    
C22   C27   A    
C13   C15   A    
C38   H24   S    
C22   C24   A    
C1    C13   S    
C38   H23   S    
Cu1   O7    S    
N4    H28   S    
Cu2   O6    S    
C2    C36   A    
C31   O8    A    
C21   H4    S    
C31   O7    A    
C4    C5    A    
C39   H22   S    
C6    C7    A    
C29   N1    A    
C29   H8    S    
Cu2   O4    S    
C2    C3    A    
C15   H5    S    
C39   H20   S    
C3    C10   A    
C1    O1    A    
C12   O4    A    
C11   C23   S    
N3    H18   S    
C8    C33   A    
C6    H11   S    
C37   C38   S    
Cu1   O3    S    
Cu2   O2    S    
C12   O3    A    
C20   C21   A    
C13   C16   A    
C27   C28   A    
C14   C15   A    
C7    H16   S    
