data_mof_unit_6080.cif
_audit_creation_date              2012-12-11T16:53:39-0500
_audit_creation_method            fapswitch 2.2
_symmetry_space_group_name_H-M    P1
_symmetry_Int_Tables_number       1
_space_group_crystal_system       triclinic
_cell_length_a                    26.192906
_cell_length_b                    7.154556
_cell_length_c                    24.091112
_cell_angle_alpha                 90.000292
_cell_angle_beta                  101.324669
_cell_angle_gamma                 90.000228
_cell_volume                      4426.74182135

loop_
_atom_site_label
_atom_site_type_symbol
_atom_type_description
_atom_site_fract_x
_atom_site_fract_y
_atom_site_fract_z
_atom_type_partial_charge
O1    O     O_R   0.297620 0.601080 0.203310 -0.506075
O2    O     O_R   0.702380 0.398920 0.796690 -0.507998
O3    O     O_R   0.202380 0.101080 0.296690 -0.506076
O4    O     O_R   0.797620 0.898920 0.703310 -0.507997
O5    O     O_R   0.192690 0.268060 0.187220 -0.539242
O6    O     O_R   0.807310 0.731940 0.812780 -0.534022
O7    O     O_R   0.307310 0.768060 0.312780 -0.539241
O8    O     O_R   0.692690 0.231940 0.687220 -0.534022
C1    C     C_R   0.174443 0.439897 0.172114 0.705835
C2    C     C_R   0.825372 0.560035 0.828116 0.700724
C3    C     C_R   0.325557 0.939898 0.327886 0.705838
C4    C     C_R   0.674628 0.060034 0.671884 0.700722
O9    O     O_R   0.296630 0.271160 0.196520 -0.544047
O10   O     O_R   0.703370 0.728840 0.803480 -0.542536
O11   O     O_R   0.203370 0.771160 0.303480 -0.544048
O12   O     O_R   0.796630 0.228840 0.696520 -0.542536
O13   O     O_R   0.307060 0.104040 0.306060 -0.533743
O14   O     O_R   0.692940 0.895960 0.693940 -0.539243
O15   O     O_R   0.192940 0.604040 0.193940 -0.533744
O16   O     O_R   0.807060 0.395960 0.806060 -0.539241
C5    C     C_R   0.313021 0.440474 0.184854 0.700533
C6    C     C_R   0.688153 0.559335 0.816350 0.700775
C7    C     C_R   0.186979 0.940474 0.315146 0.700533
C8    C     C_R   0.811846 0.059335 0.683649 0.700771
O17   O     O_3   0.253300 0.435560 0.285930 -0.364705
O18   O     O_3   0.746700 0.564440 0.714070 -0.368877
O19   O     O_3   0.246700 0.935560 0.214070 -0.364706
O20   O     O_3   0.753300 0.064440 0.785930 -0.368878
V1    V     V_3+5 0.249390 0.159480 0.243340 1.458957
V2    V     V_3+5 0.750610 0.840520 0.756660 1.450028
V3    V     V_3+5 0.250610 0.659480 0.256660 1.458955
V4    V     V_3+5 0.749390 0.340520 0.743340 1.450028
C9    C     C_R   0.858358 0.875503 0.617749 0.432643
C10   C     C_R   0.123645 0.124307 0.362358 0.440199
C11   C     C_R   0.641636 0.375511 0.882247 0.432639
C12   C     C_R   0.376356 0.624310 0.137645 0.440200
C13   C     C_R   0.897105 0.866135 0.584827 -0.261075
C14   C     C_R   0.089890 0.131785 0.401148 -0.252549
C15   C     C_R   0.602886 0.366148 0.915167 -0.261068
C16   C     C_R   0.410111 0.631793 0.098855 -0.252567
H1    H     H_    0.905704 0.733002 0.567245 0.131992
H2    H     H_    0.075170 0.266143 0.411464 0.121282
H3    H     H_    0.594286 0.233018 0.932748 0.131982
H4    H     H_    0.424832 0.766151 0.088540 0.121281
C17   C     C_R   0.923617 0.026728 0.573153 0.074992
C18   C     C_R   0.075080 0.969357 0.426535 0.079496
C19   C     C_R   0.576372 0.526742 0.926836 0.075037
C20   C     C_R   0.424918 0.469370 0.073462 0.079418
C21   C     C_R   0.912194 0.198164 0.596155 -0.099017
C22   C     C_R   0.096796 0.797997 0.414432 -0.109599
C23   C     C_R   0.587798 0.698174 0.903833 -0.099017
C24   C     C_R   0.403200 0.298008 0.085562 -0.109589
H5    H     H_    0.932263 0.324128 0.587606 0.144109
H6    H     H_    0.085317 0.668723 0.431827 0.160873
H7    H     H_    0.567728 0.824140 0.912379 0.144100
H8    H     H_    0.414676 0.168739 0.068161 0.160864
C25   C     C_R   0.875823 0.207771 0.631606 -0.271147
C26   C     C_R   0.133612 0.790597 0.379451 -0.284154
C27   C     C_R   0.624172 0.707777 0.868386 -0.271153
C28   C     C_R   0.366387 0.290602 0.120545 -0.284114
H9    H     H_    0.869323 0.341354 0.650135 0.182533
H10   H     H_    0.150618 0.656656 0.372831 0.185135
H11   H     H_    0.630673 0.841358 0.849857 0.182538
H12   H     H_    0.349380 0.156661 0.127164 0.185127
C29   C     C_R   0.848933 0.047014 0.643791 -0.138709
C30   C     C_R   0.147980 0.952626 0.353066 -0.135412
C31   C     C_R   0.651063 0.547018 0.856205 -0.138714
C32   C     C_R   0.352021 0.452628 0.146934 -0.135424
C33   C     C_R   0.956484 0.119085 0.485403 0.441360
C34   C     C_R   0.042108 0.876708 0.515378 0.414737
C35   C     C_R   0.543508 0.619101 0.014584 0.441277
C36   C     C_R   0.457877 0.376755 0.984607 0.414714
C37   C     C_R   0.993565 0.103485 0.450856 -0.285024
C38   C     C_R   0.004646 0.890923 0.549632 -0.282325
C39   C     C_R   0.506433 0.603490 0.049138 -0.284893
C40   C     C_R   0.495337 0.390966 0.950352 -0.282278
H13   H     H_    0.988117 0.185531 0.412365 0.142661
H14   H     H_    0.009328 0.808134 0.587966 0.154144
H15   H     H_    0.511887 0.685514 0.087633 0.142626
H16   H     H_    0.490651 0.308187 0.912015 0.154168
C41   C     C_R   0.036384 0.981315 0.464658 -0.046840
C42   C     C_R   0.962332 0.013969 0.535790 -0.058321
C43   C     C_R   0.463608 0.481338 0.035334 -0.046871
C44   C     C_R   0.537655 0.513995 0.964195 -0.058371
H17   H     H_    0.552833 0.718343 0.534069 0.114538
H18   H     H_    0.449644 0.281243 0.462846 0.114018
H19   H     H_    0.947169 0.218341 0.965926 0.114539
H20   H     H_    0.050354 0.781245 0.037160 0.114017
C45   C     C_R   0.486001 0.823783 0.475683 -0.155011
C46   C     C_R   0.516477 0.175803 0.521172 -0.153408
C47   C     C_R   0.013999 0.323781 0.024313 -0.155009
C48   C     C_R   0.983522 0.675804 0.978832 -0.153408
H21   H     H_    0.474738 0.686585 0.458506 0.111779
H22   H     H_    0.527694 0.313010 0.538371 0.113783
H23   H     H_    0.025264 0.186581 0.041488 0.111778
H24   H     H_    0.972304 0.813014 0.961635 0.113782
C49   C     C_R   0.456199 0.981425 0.455169 0.136319
C50   C     C_R   0.546102 0.018058 0.541945 0.134310
C51   C     C_R   0.043800 0.481424 0.044832 0.136318
C52   C     C_R   0.953898 0.518059 0.958055 0.134310
C53   C     C_R   0.471918 0.157626 0.478127 -0.155481
C54   C     C_R   0.530575 0.841956 0.518741 -0.157017
C55   C     C_R   0.028080 0.657627 0.021876 -0.155482
C56   C     C_R   0.969426 0.341956 0.981256 -0.157017
C57   C     C_1   0.409799 0.963129 0.410677 -0.058928
C58   C     C_1   0.591771 0.036166 0.587394 -0.058911
C59   C     C_1   0.090201 0.463126 0.089323 -0.058929
C60   C     C_1   0.908229 0.536168 0.912606 -0.058911
C61   C     C_1   0.629638 0.049122 0.625680 -0.178644
C62   C     C_1   0.371240 0.950455 0.373250 -0.178903
C63   C     C_1   0.870362 0.549125 0.874320 -0.178645
C64   C     C_1   0.128760 0.450452 0.126750 -0.178904
O21   O     O_3   0.832219 0.713949 0.627439 -0.567822
C65   C     C_3   0.797726 0.657179 0.577330 0.070570
H25   H     H_    0.790446 0.505178 0.581159 0.143391
H26   H     H_    0.814275 0.674191 0.538388 0.101947
C66   C     C_3   0.745540 0.760215 0.570807 -0.306022
H27   H     H_    0.728741 0.736060 0.609029 0.224615
H28   H     H_    0.751675 0.912807 0.566551 0.162829
C67   C     C_3   0.706849 0.692080 0.518974 -0.845718
H29   H     H_    0.722330 0.717631 0.479896 0.232009
H30   H     H_    0.669530 0.768943 0.515691 0.236654
H31   H     H_    0.699189 0.540330 0.522714 0.229827
O22   O     O_3   0.135083 0.286404 0.335597 -0.568180
C68   C     C_3   0.090040 0.358137 0.299331 0.064757
H32   H     H_    0.100675 0.496270 0.283841 0.141787
H33   H     H_    0.057714 0.385163 0.322072 0.104909
C69   C     C_3   0.071564 0.231877 0.247620 -0.339167
H34   H     H_    0.104431 0.204681 0.225879 0.204634
H35   H     H_    0.057858 0.095667 0.261352 0.177603
C70   C     C_3   0.026988 0.322356 0.205974 -0.819388
H36   H     H_    0.992826 0.342991 0.226285 0.230169
H37   H     H_    0.015382 0.230425 0.168474 0.233891
H38   H     H_    0.039269 0.459681 0.191553 0.231529
O23   O     O_3   0.667776 0.213955 0.872560 -0.567823
C71   C     C_3   0.702267 0.157192 0.922670 0.070573
H39   H     H_    0.709546 0.005189 0.918844 0.143390
H40   H     H_    0.685716 0.174213 0.961612 0.101958
C72   C     C_3   0.754454 0.260224 0.929194 -0.306027
H41   H     H_    0.771254 0.236062 0.890973 0.224614
H42   H     H_    0.748320 0.412818 0.933448 0.162825
C73   C     C_3   0.793143 0.192095 0.981029 -0.845706
H43   H     H_    0.777661 0.217654 0.020106 0.232020
H44   H     H_    0.830463 0.268956 0.984312 0.236651
H45   H     H_    0.800802 0.040344 0.977290 0.229826
O24   O     O_3   0.364919 0.786405 0.164408 -0.568180
C74   C     C_3   0.409962 0.858139 0.200674 0.064765
H46   H     H_    0.399327 0.996272 0.216163 0.141786
H47   H     H_    0.442288 0.885166 0.177932 0.104912
C75   C     C_3   0.428438 0.731880 0.252384 -0.339167
H48   H     H_    0.395571 0.704684 0.274125 0.204633
H49   H     H_    0.442144 0.595671 0.238652 0.177605
C76   C     C_3   0.473014 0.822361 0.294030 -0.819386
H50   H     H_    0.507176 0.842995 0.273719 0.230167
H51   H     H_    0.484621 0.730430 0.331530 0.233890
H52   H     H_    0.460733 0.959686 0.308451 0.231530
O25   O     O_3   0.915757 0.243980 0.470445 -0.576402
C77   C     C_3   0.869972 0.147365 0.444827 0.080587
H53   H     H_    0.836365 0.222199 0.456357 0.140764
H54   H     H_    0.868007 0.000662 0.460126 0.107909
C78   C     C_3   0.863957 0.149426 0.380308 -0.318677
H55   H     H_    0.865451 0.296023 0.365425 0.203675
H56   H     H_    0.896464 0.070302 0.367934 0.189071
C79   C     C_3   0.812508 0.061126 0.351544 -0.834398
H57   H     H_    0.810555 0.913435 0.365220 0.231356
H58   H     H_    0.809372 0.064143 0.304914 0.233665
H59   H     H_    0.779214 0.140021 0.362256 0.230032
O26   O     O_3   0.083736 0.757042 0.531564 -0.577389
C80   C     C_3   0.124976 0.857430 0.565070 0.073400
H60   H     H_    0.114146 0.900740 0.605673 0.120844
H61   H     H_    0.135099 0.983852 0.542341 0.126486
C81   C     C_3   0.172885 0.731305 0.578106 -0.280080
H62   H     H_    0.163657 0.604926 0.601116 0.197828
H63   H     H_    0.183612 0.685955 0.537753 0.202773
C82   C     C_3   0.219089 0.832422 0.614118 -0.842977
H64   H     H_    0.229625 0.957378 0.591399 0.234043
H65   H     H_    0.253164 0.737038 0.622830 0.234314
H66   H     H_    0.209508 0.876489 0.655092 0.231570
O27   O     O_3   0.584245 0.743948 0.029545 -0.576401
C83   C     C_3   0.630024 0.647276 0.055155 0.080615
H67   H     H_    0.663625 0.721688 0.043464 0.140682
H68   H     H_    0.631898 0.500348 0.040004 0.107881
C84   C     C_3   0.636161 0.650128 0.119683 -0.318441
H69   H     H_    0.634837 0.796956 0.134426 0.203607
H70   H     H_    0.603615 0.571675 0.132214 0.189094
C85   C     C_3   0.687562 0.561441 0.148429 -0.834509
H71   H     H_    0.689327 0.413484 0.134928 0.231371
H72   H     H_    0.690807 0.565190 0.195071 0.233661
H73   H     H_    0.720894 0.639586 0.137523 0.230043
O28   O     O_3   0.416246 0.257099 0.968417 -0.577386
C86   C     C_3   0.374990 0.357553 0.934964 0.073392
H74   H     H_    0.385819 0.401261 0.894395 0.120790
H75   H     H_    0.364831 0.483731 0.957776 0.126570
C87   C     C_3   0.327115 0.231288 0.921825 -0.280077
H76   H     H_    0.336378 0.105189 0.898712 0.197805
H77   H     H_    0.316398 0.185477 0.962140 0.202776
C88   C     C_3   0.280884 0.332502 0.885895 -0.842978
H78   H     H_    0.270295 0.457106 0.908731 0.234054
H79   H     H_    0.246844 0.236976 0.877075 0.234310
H80   H     H_    0.290464 0.377132 0.844971 0.231567

loop_
_geom_bond_atom_site_label_1
_geom_bond_atom_site_label_2
_ccdc_geom_bond_type
C26   H10   S    
C87   H77   S    
C57   C62   T    
O1    C5    A    
O28   C86   S    
C45   C54   A    
O19   V1    S    
O13   V1    S    
C59   C64   T    
O3    C7    A    
C74   H46   S    
C52   C56   A    
C47   C56   A    
C36   C40   A    
C70   H38   S    
O15   V3    S    
C69   H34   S    
C10   C30   A    
C78   H55   S    
C9    C29   A    
O23   C71   S    
C82   H65   S    
C67   H29   S    
O7    C3    A    
C26   C30   A    
C22   H6    S    
C7    C30   S    
O9    V1    S    
C79   H57   S    
C74   H47   S    
O10   V2    S    
O24   C74   S    
C66   H28   S    
C81   H62   S    
O4    C8    A    
C72   C73   S    
C87   C88   S    
C35   O27   S    
O1    V3    S    
C21   C25   A    
O2    V4    S    
C80   H60   S    
C73   H43   S    
C37   C41   A    
O3    V1    S    
C34   C41   A    
C37   H13   S    
C33   C42   A    
C24   C28   A    
C48   C55   A    
C27   C31   A    
C1    O15   A    
O25   C77   S    
C17   C42   S    
C2    O16   A    
C75   C76   S    
C34   C38   A    
C68   C69   S    
C33   O25   S    
C33   C37   A    
O14   V2    S    
C11   C31   A    
C76   H51   S    
C16   H4    S    
C23   H7    S    
C77   C78   S    
C83   C84   S    
C49   C57   S    
C1    C64   S    
O11   C7    A    
C87   H76   S    
O12   C8    A    
C3    C62   S    
C77   H54   S    
C80   H61   S    
C73   H45   S    
C40   C44   A    
C38   C42   A    
C71   C72   S    
C36   O28   S    
C4    C61   S    
C78   H56   S    
C67   H30   S    
C46   H22   S    
C82   H66   S    
O5    V1    S    
C48   H24   S    
C65   C66   S    
C52   C60   S    
O7    V3    S    
C86   H74   S    
C22   C26   A    
C12   C16   A    
C74   C75   S    
C71   H40   S    
C51   C55   A    
C66   C67   S    
C11   O23   S    
O18   V4    S    
C15   H3    S    
C50   C54   A    
C45   H21   S    
C9    C13   A    
O27   C83   S    
C45   C49   A    
C67   H31   S    
O8    V4    S    
C35   C44   A    
C88   H80   S    
C11   C15   A    
C84   H69   S    
C86   H75   S    
C46   C53   A    
O5    C1    A    
C34   O26   S    
C18   C41   S    
C65   H26   S    
C82   H64   S    
C17   C21   A    
O8    C4    A    
C12   C32   A    
O9    C5    A    
C2    C63   S    
C19   C44   S    
C76   H52   S    
O11   V3    S    
C8    C29   S    
C12   O24   S    
O26   C80   S    
O6    V2    S    
C5    C32   S    
C77   H53   S    
C80   C81   S    
C75   H49   S    
C84   C85   S    
C23   C27   A    
C13   C17   A    
C70   H36   S    
C69   C70   S    
H20   C55   S    
C83   H67   S    
C48   C52   A    
C78   C79   S    
C15   C19   A    
O21   C65   S    
O16   V4    S    
C16   C20   A    
C3    O13   A    
C10   O22   S    
C83   H68   S    
C10   C14   A    
C27   H11   S    
O17   V3    S    
C79   H59   S    
C40   H16   S    
C25   C29   A    
C71   H39   S    
C70   H37   S    
C69   H35   S    
O6    C2    A    
C19   C23   A    
C72   H41   S    
C81   C82   S    
C25   H9    S    
O12   V4    S    
C51   C59   S    
C18   C22   A    
C9    O21   S    
C50   C58   S    
C60   C63   T    
C28   H12   S    
O10   C6    A    
C85   H73   S    
C88   H79   S    
C85   H71   S    
C86   C87   S    
O20   V2    S    
O2    C6    A    
C35   C39   A    
C72   H42   S    
C39   C43   A    
C68   H32   S    
C39   H15   S    
C21   H5    S    
C79   H58   S    
C81   H63   S    
C73   H44   S    
C65   H25   S    
C13   H1    S    
C88   H78   S    
O4    V2    S    
C6    C31   S    
C14   C18   A    
C36   C43   A    
C47   H23   S    
H19   C56   S    
C14   H2    S    
C20   C24   A    
C28   C32   A    
C84   H70   S    
C38   H14   S    
C4    O14   A    
C68   H33   S    
C20   C43   S    
C75   H48   S    
C47   C51   A    
C76   H50   S    
C66   H27   S    
H18   C53   S    
C85   H72   S    
C46   C50   A    
C49   C53   A    
H17   C54   S    
C24   H8    S    
O22   C68   S    
C58   C61   T    
