data_mof_unit_28183.cif
_audit_creation_date              2013-03-05T15:54:53-0500
_audit_creation_method            fapswitch 2.2
_symmetry_space_group_name_H-M    P1
_symmetry_Int_Tables_number       1
_space_group_crystal_system       triclinic
_cell_length_a                    12.359155
_cell_length_b                    13.441407
_cell_length_c                    14.158089
_cell_angle_alpha                 93.993945
_cell_angle_beta                  107.066763
_cell_angle_gamma                 117.243394
_cell_volume                      1940.57473161

loop_
_atom_site_label
_atom_site_type_symbol
_atom_site_description
_atom_site_fract_x
_atom_site_fract_y
_atom_site_fract_z
_atom_type_partial_charge
O1    O     O_R   0.545970 0.684450 0.528810 -0.589480
O2    O     O_R   0.687130 0.639470 0.490120 -0.624195
C1    C     C_R   0.648869 0.712402 0.504107 0.776750
O3    O     O_R   0.519670 0.535100 0.660030 -0.530390
O4    O     O_R   0.660830 0.490120 0.621340 -0.620190
C2    C     C_R   0.620917 0.521032 0.688006 0.839243
Cu1   Cu    Cu3+1 0.416420 0.526630 0.522910 0.994501
Cu2   Cu    Cu3+1 0.583580 0.473370 0.477090 0.991181
O5    O     O_R   0.312870 0.360530 0.509880 -0.555614
O6    O     O_R   0.454030 0.315550 0.471190 -0.557175
O7    O     O_R   0.339170 0.509880 0.378660 -0.595606
O8    O     O_R   0.480330 0.464900 0.339970 -0.545644
C3    C     C_R   0.344762 0.285609 0.484381 0.870733
C4    C     C_R   0.381952 0.483295 0.312777 0.860500
C5    C     C_R   0.692920 0.539299 0.797846 -0.168766
C6    C     C_R   0.315002 0.473316 0.204657 -0.124035
C7    C     C_R   0.744853 0.602876 0.979565 0.327762
C8    C     C_R   0.675205 0.592826 0.877396 0.259272
C9    C     C_R   0.788738 0.507370 0.822783 -0.279541
C10   C     C_R   0.862778 0.521053 0.923933 0.009047
C11   C     C_R   0.827406 0.554518 0.002199 -0.037484
C12   C     C_R   0.968983 0.499199 0.948645 0.107527
C13   C     C_R   0.025995 0.494296 0.049516 0.050356
C14   C     C_R   0.968839 0.503242 0.120268 -0.249662
C15   C     C_R   0.873636 0.535108 0.098747 0.311415
C16   C     C_R   0.023618 0.487406 0.876679 -0.216279
C17   C     C_R   0.126418 0.465209 0.901523 -0.135034
C18   C     C_R   0.182932 0.457959 0.000239 0.027928
C19   C     C_R   0.136472 0.478173 0.076109 0.070410
C20   C     C_R   0.290456 0.438303 0.026603 0.340652
C21   C     C_R   0.357279 0.449470 0.129157 -0.161635
C22   C     C_R   0.206075 0.487731 0.177603 -0.219707
H1    H     H_    0.180630 0.511660 0.238348 0.165415
H2    H     H_    0.442212 0.439041 0.149685 0.243440
H3    H     H_    0.165346 0.459911 0.843396 0.203113
H4    H     H_    0.800735 0.466412 0.761526 0.179775
H5    H     H_    0.993313 0.482479 0.192868 0.168618
H6    H     H_    0.992164 0.499345 0.800909 0.150749
C23   C     C_R   0.208964 0.966395 0.455395 -0.164246
H7    H     H_    0.399955 0.110938 0.489957 0.189368
H8    H     H_    0.009280 0.749335 0.398155 0.175599
H9    H     H_    0.241467 0.904352 0.451056 0.149570
C24   C     C_R   0.254203 0.163305 0.470443 -0.082743
C25   C     C_R   0.703502 0.916125 0.529255 -0.167960
C26   C     C_R   0.787480 0.031647 0.538005 -0.125681
C27   C     C_R   0.898620 0.064508 0.514378 -0.110474
C28   C     C_R   0.923610 0.981326 0.474505 0.105944
C29   C     C_R   0.835666 0.862834 0.461438 0.062723
C30   C     C_R   0.040884 0.013450 0.456632 0.045482
C31   C     C_R   0.079712 0.930876 0.445285 0.108191
C32   C     C_R   0.986831 0.814616 0.419737 -0.167110
C33   C     C_R   0.862190 0.781791 0.418316 -0.134522
C34   C     C_R   0.121510 0.124804 0.449909 0.178133
C35   C     C_R   0.298223 0.083516 0.475311 -0.160326
C36   C     C_R   0.728370 0.830867 0.495140 -0.097577
H10   H     H_    0.621668 0.894129 0.553551 0.159115
H11   H     H_    0.967354 0.155789 0.532028 0.173449
H12   H     H_    0.769598 0.096681 0.567909 0.150877
H13   H     H_    0.790065 0.692441 0.383877 0.214972
C37   C     C_R   0.255909 0.692379 0.656970 -0.283494
H14   H     H_    0.443917 0.714540 0.672059 0.161851
H15   H     H_    0.076936 0.730362 0.691006 0.169273
H16   H     H_    0.297021 0.767683 0.717757 0.163682
N1    N     N_R   0.290690 0.566960 0.557640 -0.186589
C38   C     C_R   0.656780 0.339024 0.365092 0.538216
C39   C     C_R   0.736977 0.307431 0.335653 -0.205231
C40   C     C_R   0.871353 0.370587 0.384698 -0.233295
C41   C     C_R   0.929374 0.465539 0.466985 0.005499
C42   C     C_R   0.844326 0.496875 0.495009 0.219963
C43   C     C_R   0.068618 0.530084 0.522207 -0.017780
C44   C     C_R   0.120573 0.626407 0.602909 0.145730
C45   C     C_R   0.037431 0.656685 0.628932 -0.278746
C46   C     C_R   0.902755 0.593118 0.576835 -0.179373
C47   C     C_R   0.159514 0.503018 0.501531 0.026437
C48   C     C_R   0.339457 0.661719 0.632298 0.117792
N2    N     N_R   0.709100 0.433710 0.442970 -0.270065
H17   H     H_    0.128772 0.432582 0.440712 0.165350
H18   H     H_    0.927199 0.343577 0.355640 0.199134
H19   H     H_    0.694360 0.233539 0.273050 0.200527
H20   H     H_    0.848124 0.622786 0.603720 0.208962
Br1   Br    Br    0.793394 0.523352 0.198423 -0.493399
N3    N     N_R   0.331115 0.404227 0.950799 0.138294
O9    O     O_R   0.453349 0.433871 0.972976 -0.302584
O10   O     O_R   0.244216 0.324944 0.868398 -0.353859
Br2   Br    Br    0.039982 0.198391 0.368171 -0.551632
N4    N     N_R   0.519006 0.269150 0.311737 0.140636
O11   O     O_R   0.459433 0.167958 0.329256 -0.375677
O12   O     O_R   0.467948 0.284389 0.223635 -0.333321
Br3   Br    Br    0.748121 0.705839 0.084690 -0.350827
Br4   Br    Br    0.559881 0.655962 0.851436 -0.426206

loop_
_geom_bond_atom_site_label_1
_geom_bond_atom_site_label_2
_geom_bond_distance
_ccdc_geom_bond_type
C29   C36   1.431478 A    
C5    C8    1.417799 A    
C9    C10   1.400742 A    
C38   N4    1.426239 S    
C28   C30   1.417316 A    
C26   C27   1.388731 A    
H14   C48   1.079949 S    
C6    C21   1.397090 A    
C5    C9    1.397234 A    
C39   H19   1.083472 S    
C16   C17   1.387933 A    
C38   N2    1.373398 A    
C37   H16   1.083743 S    
C13   C19   1.426034 A    
C18   C19   1.421838 A    
C19   C22   1.403173 A    
C9    H4    1.077470 S    
O4    C2    1.308883 A    
O7    C4    1.301316 A    
N4    O12   1.299205 A    
C23   C35   1.392977 A    
Cu2   N2    2.021208 S    
C42   N2    1.395647 A    
O5    C3    1.302351 A    
C2    C5    1.484951 S    
C1    C36   1.478519 S    
C24   C34   1.401431 A    
C41   C42   1.437537 A    
C47   H17   1.071081 S    
C43   C47   1.425639 A    
C13   C14   1.411816 A    
C42   C46   1.407843 A    
C43   C44   1.412892 A    
C39   C40   1.382457 A    
C15   Br1   1.925902 S    
C40   H18   1.073657 S    
O3    Cu1   1.947380 S    
C14   H5    1.077344 S    
C23   H9    1.083821 S    
C26   H12   1.082803 S    
C32   C33   1.387942 A    
C8    Br4   1.931371 S    
Cu1   Cu2   2.697702 S    
C7    Br3   1.938763 S    
C14   C15   1.389218 A    
O3    C2    1.301765 A    
N4    O11   1.300385 A    
C16   H6    1.078884 S    
C37   C44   1.402117 A    
C31   C32   1.387720 A    
C7    C11   1.417905 A    
C40   C41   1.401790 A    
O1    C1    1.312535 A    
C20   N3    1.439775 S    
Cu1   O7    1.930767 S    
C33   H13   1.076041 S    
C25   H10   1.083179 S    
C24   C35   1.404786 A    
C28   C29   1.417148 A    
Cu2   O8    1.947380 S    
C7    C8    1.409636 A    
C21   H2    1.080418 S    
H15   C45   1.084310 S    
N1    C48   1.355913 A    
Cu2   O6    1.964118 S    
C10   C12   1.424561 A    
C30   C31   1.412825 A    
H7    C35   1.082472 S    
C27   H11   1.080696 S    
C4    C6    1.473839 S    
C3    C24   1.461090 S    
C25   C26   1.387769 A    
Cu1   O5    1.960753 S    
C11   C15   1.410951 A    
C27   C28   1.412361 A    
O1    Cu1   1.964119 S    
O2    Cu2   1.960754 S    
O8    C4    1.304379 A    
C45   C46   1.390728 A    
O6    C3    1.296728 A    
O4    Cu2   1.930767 S    
C6    C22   1.393956 A    
C37   C48   1.392605 A    
N3    O10   1.301405 A    
C17   H3    1.081404 S    
C22   H1    1.074626 S    
C18   C20   1.420971 A    
O2    C1    1.294667 A    
C44   C45   1.393355 A    
C25   C36   1.404829 A    
C20   C21   1.401814 A    
C30   C34   1.397257 A    
C46   H20   1.065839 S    
C38   C39   1.392704 A    
Cu1   N1    2.032948 S    
C29   C33   1.420778 A    
C23   C31   1.399373 A    
C10   C11   1.419959 A    
C41   C43   1.440274 A    
N3    O9    1.301009 A    
C12   C16   1.413700 A    
C17   C18   1.399645 A    
N1    C47   1.367971 A    
C12   C13   1.416109 A    
C34   Br2   1.928812 S    
H8    C32   1.084263 S    
