data_mof_unit_19009.cif
_audit_creation_date              2012-12-10T17:09:53-0500
_audit_creation_method            fapswitch 2.2
_symmetry_space_group_name_H-M    P1
_symmetry_Int_Tables_number       1
_space_group_crystal_system       triclinic
_cell_length_a                    10.796027
_cell_length_b                    13.043918
_cell_length_c                    11.675711
_cell_angle_alpha                 101.231604
_cell_angle_beta                  93.529063
_cell_angle_gamma                 90.869556
_cell_volume                      1609.03471924

loop_
_atom_site_label
_atom_site_type_symbol
_atom_type_description
_atom_site_fract_x
_atom_site_fract_y
_atom_site_fract_z
_atom_type_partial_charge
C1    C     C_R   0.496163 0.298909 0.477264 0.803049
C2    C     C_R   0.065107 0.510151 0.610287 0.027032
C3    C     C_R   0.126448 0.512727 0.506081 -0.113474
C4    C     C_R   0.056140 0.502150 0.399256 -0.200788
C5    C     C_R   0.928645 0.489599 0.395434 -0.191955
C6    C     C_R   0.870948 0.474663 0.495257 -0.111924
C7    C     C_R   0.502243 0.817673 0.538782 -0.109198
C8    C     C_R   0.489939 0.185292 0.462611 -0.094691
C9    C     C_R   0.452807 0.011334 0.340651 0.150233
C10   C     C_R   0.460689 0.121030 0.353042 -0.182305
C11   C     C_R   0.510955 0.141466 0.560963 -0.270558
C12   C     C_R   0.261874 0.507540 0.502289 0.808398
C13   C     C_R   0.505019 0.034224 0.551785 0.098610
C14   C     C_R   0.477157 0.967724 0.442304 0.104020
C15   C     C_R   0.475373 0.859634 0.437976 -0.296726
C16   C     C_R   0.529320 0.886528 0.649005 0.143055
C17   C     C_R   0.528599 0.994218 0.652686 -0.175706
C18   C     C_R   0.370140 0.406488 0.021219 0.033188
C19   C     C_R   0.387086 0.415987 0.144853 0.069507
C20   C     C_R   0.554118 0.537437 0.156887 0.020577
C21   C     C_R   0.542734 0.531045 0.034633 0.041506
C22   C     C_R   0.449717 0.466429 0.965025 -0.002663
C23   C     C_R   0.502268 0.702032 0.523187 0.812860
C24   C     C_R   0.441237 0.463546 0.841450 -0.005904
C25   C     C_R   0.616604 0.578350 0.859424 0.179505
C26   C     C_R   0.625253 0.586665 0.981047 -0.324539
C27   C     C_R   0.737122 0.489611 0.498042 0.802973
C28   C     C_R   0.114847 0.551818 0.725653 -0.014720
C29   C     C_R   0.060081 0.524345 0.821194 -0.285020
C30   C     C_R   0.958637 0.454284 0.804078 0.026675
C31   C     C_R   0.900956 0.421057 0.690594 0.129004
C32   C     C_R   0.944217 0.465848 0.597733 0.055660
Cu1   Cu    Cu3+1 0.509250 0.507730 0.615930 0.942619
Cu2   Cu    Cu3+1 0.490750 0.492270 0.384070 0.936869
H1    H     H_    0.099166 0.506334 0.318806 0.165123
H2    H     H_    0.548963 0.049107 0.734070 0.149196
H3    H     H_    0.443445 0.157750 0.278500 0.167236
H4    H     H_    0.533413 0.191203 0.645891 0.159967
H5    H     H_    0.370722 0.415542 0.785215 0.131952
H6    H     H_    0.699453 0.634138 0.033667 0.138327
H7    H     H_    0.328923 0.371864 0.190796 0.144513
H8    H     H_    0.625160 0.587792 0.210109 0.128735
H9    H     H_    0.097262 0.557162 0.909462 0.153763
H10   H     H_    0.875365 0.492493 0.314453 0.172109
H11   H     H_    0.454271 0.806782 0.355340 0.162105
N1    N     N_R   0.523180 0.519350 0.790130 -0.200382
N2    N     N_R   0.476820 0.480650 0.209890 -0.204446
O1    O     O_R   0.506570 0.354460 0.582000 -0.602657
O2    O     O_R   0.490940 0.341410 0.386200 -0.590264
O3    O     O_R   0.327470 0.506530 0.597920 -0.582975
O4    O     O_R   0.311840 0.493480 0.402120 -0.592034
O5    O     O_R   0.509060 0.658590 0.613800 -0.586377
O6    O     O_R   0.493430 0.645540 0.418000 -0.583733
O7    O     O_R   0.688160 0.506520 0.597880 -0.582231
O8    O     O_R   0.672530 0.493470 0.402080 -0.584487
C33   C     C_1   0.715628 0.627688 0.811444 0.260159
N3    N     N_1   0.797957 0.666609 0.775349 -0.309013
C34   C     C_3   0.271348 0.332626 0.948568 -0.431692
C35   C     C_3   0.188002 0.273643 0.016698 -0.831207
H12   H     H_    0.243858 0.221651 0.063187 0.240875
H13   H     H_    0.136715 0.329427 0.079928 0.255468
H14   H     H_    0.118868 0.224259 0.954674 0.253663
H15   H     H_    0.210048 0.378242 0.898820 0.214901
H16   H     H_    0.318013 0.273828 0.884538 0.208291
C36   C     C_1   0.202481 0.639135 0.750348 0.291187
N4    N     N_1   0.271773 0.709759 0.770798 -0.311382
C37   C     C_1   0.909746 0.424021 0.905419 0.216284
N5    N     N_1   0.870528 0.399934 0.986668 -0.307013
C38   C     C_3   0.804783 0.331405 0.667217 -0.365082
C39   C     C_3   0.862767 0.228102 0.681715 -0.854150
H17   H     H_    0.939641 0.210060 0.622563 0.257024
H18   H     H_    0.899201 0.230818 0.773165 0.259318
H19   H     H_    0.791354 0.163975 0.658614 0.247561
H20   H     H_    0.728379 0.349479 0.726945 0.222514
H21   H     H_    0.763303 0.317954 0.576218 0.195190
C40   C     C_3   0.565459 0.846004 0.759775 -0.360171
C41   C     C_3   0.599647 0.926969 0.871458 -0.883408
H22   H     H_    0.681857 0.975319 0.859953 0.259316
H23   H     H_    0.519806 0.977498 0.895565 0.255749
H24   H     H_    0.623400 0.886017 0.944549 0.254426
H25   H     H_    0.488624 0.796714 0.779943 0.249068
H26   H     H_    0.648031 0.798899 0.741070 0.230890
C42   C     C_3   0.419147 0.940589 0.221949 -0.404778
C43   C     C_3   0.388199 0.995678 0.119865 -0.854535
H27   H     H_    0.307490 0.046774 0.138044 0.250288
H28   H     H_    0.469770 0.042320 0.103353 0.251237
H29   H     H_    0.363349 0.936178 0.039514 0.259568
H30   H     H_    0.497847 0.888384 0.198136 0.203370
H31   H     H_    0.336572 0.891196 0.230065 0.207475

loop_
_geom_bond_atom_site_label_1
_geom_bond_atom_site_label_2
_ccdc_geom_bond_type
C6    C32   A    
C21   C26   A    
C1    C8    S    
C2    C28   A    
C25   C33   S    
C27   O7    A    
C41   H22   S    
Cu1   O5    S    
Cu2   O4    S    
C10   H3    S    
C28   C29   A    
C43   H28   S    
C30   C31   A    
C19   N2    A    
C34   H15   S    
C24   H5    S    
C33   N3    T    
C2    C32   A    
C18   C19   A    
C3    C12   S    
Cu1   O3    S    
C18   C34   S    
C42   C43   S    
C16   C17   A    
Cu2   O2    S    
C43   H29   S    
C39   H17   S    
C17   H2    S    
C9    C10   A    
C30   C37   S    
C7    C15   A    
C42   H30   S    
C4    H1    S    
Cu2   O8    S    
C16   C40   S    
C21   C22   A    
C29   H9    S    
Cu1   N1    S    
C23   O6    A    
C41   H23   S    
C34   H16   S    
C42   H31   S    
C35   H13   S    
C37   N5    T    
C40   C41   S    
C40   H26   S    
C34   C35   S    
C28   C36   S    
C11   H4    S    
C9    C14   A    
C35   H12   S    
C29   C30   A    
C12   O3    A    
C6    C27   S    
C39   H19   S    
Cu1   Cu2   S    
C38   H20   S    
C43   H27   S    
C9    C42   S    
C7    C16   A    
C5    H10   S    
C22   C24   A    
C15   H11   S    
C3    C4    A    
C12   O4    A    
C41   H24   S    
Cu1   O7    S    
C35   H14   S    
C18   C22   A    
C31   C32   A    
C4    C5    A    
C40   H25   S    
C20   H8    S    
C1    O1    A    
C13   C17   A    
C24   N1    A    
C2    C3    A    
C25   C26   A    
C11   C13   A    
C26   H6    S    
C23   O5    A    
C5    C6    A    
C8    C11   A    
C7    C23   S    
C38   H21   S    
C27   O8    A    
C38   C39   S    
C20   N2    A    
C31   C38   S    
C20   C21   A    
Cu2   O6    S    
C8    C10   A    
C36   N4    T    
Cu1   O1    S    
C14   C15   A    
C39   H18   S    
Cu2   N2    S    
C13   C14   A    
C1    O2    A    
C25   N1    A    
C19   H7    S    
