data_mof_unit_8682.cif
_audit_creation_date              2013-03-05T15:53:44-0500
_audit_creation_method            fapswitch 2.2
_symmetry_space_group_name_H-M    P1
_symmetry_Int_Tables_number       1
_space_group_crystal_system       triclinic
_cell_length_a                    15.060738
_cell_length_b                    14.727352
_cell_length_c                    16.998958
_cell_angle_alpha                 108.398624
_cell_angle_beta                  106.532415
_cell_angle_gamma                 108.201752
_cell_volume                      3076.3881594

loop_
_atom_site_label
_atom_site_type_symbol
_atom_site_description
_atom_site_fract_x
_atom_site_fract_y
_atom_site_fract_z
_atom_type_partial_charge
C1    C     C_R   0.089742 0.273161 0.036921 -0.123432
H1    H     H_    0.168820 0.288650 0.068169 0.148650
N1    N     N_R   0.055640 0.348550 0.045600 -0.049348
C2    C     C_R   0.937242 0.454677 0.735261 -0.080791
H2    H     H_    0.860296 0.410278 0.681857 0.140348
N2    N     N_R   0.960830 0.507850 0.823710 -0.048461
C3    C     C_R   0.735959 0.204728 0.814596 -0.147441
H3    H     H_    0.709596 0.142919 0.835062 0.124821
N3    N     N_R   0.811290 0.303400 0.871650 -0.052518
C4    C     C_R   0.289088 0.572577 0.983256 -0.144589
H4    H     H_    0.315033 0.624720 0.953952 0.146968
N4    N     N_R   0.205180 0.552990 0.997660 -0.053613
C5    C     C_R   0.740744 0.303179 0.739407 -0.124063
H5    H     H_    0.719296 0.337201 0.694271 0.182442
N5    N     N_R   0.814810 0.361830 0.823710 -0.058901
C6    C     C_R   0.285627 0.477224 0.061868 0.135160
N6    N     N_R   0.201660 0.494570 0.045600 -0.068711
C7    C     C_R   0.109043 0.538418 0.811492 -0.079343
H6    H     H_    0.189707 0.570107 0.827015 0.100787
N7    N     N_R   0.068420 0.560530 0.871650 -0.037926
C8    C     C_R   0.918399 0.190384 0.960044 -0.083543
H7    H     H_    0.839617 0.132193 0.920272 0.159030
N8    N     N_R   0.948050 0.295860 0.997660 -0.063768
C9    C     C_R   0.005745 0.172096 0.981291 0.133557
C10   C     C_R   0.028697 0.468005 0.725981 0.056345
C11   C     C_R   0.694241 0.199920 0.728044 0.136596
C12   C     C_R   0.336456 0.518046 0.015784 0.017715
C13   C     C_R   0.274001 0.683491 0.249745 -0.151044
H8    H     H_    0.293279 0.642889 0.289995 0.148828
N9    N     N_R   0.185190 0.638170 0.176290 -0.064310
C14   C     C_R   0.706963 0.502208 0.918332 -0.154661
H9    H     H_    0.684739 0.526853 0.865250 0.141093
N10   N     N_R   0.798340 0.505430 0.954400 -0.046954
C15   C     C_R   0.891374 0.404582 0.179079 -0.031917
H10   H     H_    0.812824 0.344829 0.150832 0.132507
N11   N     N_R   0.931580 0.439470 0.128350 -0.061290
C16   C     C_R   0.078864 0.809246 0.041208 -0.096267
H11   H     H_    0.156485 0.871452 0.081562 0.185828
N12   N     N_R   0.051950 0.704140 0.002340 -0.045569
C17   C     C_R   0.907877 0.724547 0.965825 -0.070003
H12   H     H_    0.827275 0.706894 0.936949 0.150163
N13   N     N_R   0.944360 0.651450 0.954400 -0.054584
C18   C     C_R   0.063138 0.492922 0.258490 -0.096312
H13   H     H_    0.141374 0.519844 0.306256 0.119837
N14   N     N_R   0.039170 0.492150 0.176290 -0.047291
C19   C     C_R   0.282247 0.780829 0.174132 0.343942
N15   N     N_R   0.188710 0.696600 0.128350 -0.089959
C20   C     C_R   0.700350 0.409767 0.999207 -0.070665
H14   H     H_    0.672303 0.352754 0.024164 0.115192
N16   N     N_R   0.794820 0.447010 0.002340 -0.048152
Ni1   Ni    Ni4+2 0.119330 0.493420 0.109950 0.240566
Ni2   Ni    Ni4+2 0.880670 0.506580 0.890050 0.261128
Ni3   Ni    Ni4+2 0.872590 0.372590 0.000000 0.225266
Ni4   Ni    Ni4+2 0.127410 0.627410 0.000000 0.296506
C21   C     C_R   0.340447 0.772152 0.249241 -0.080326
C22   C     C_R   0.643834 0.443958 0.946069 0.064840
C23   C     C_R   0.971221 0.438461 0.262678 0.090636
C24   C     C_R   0.990394 0.825659 0.020634 0.063337
C25   C     C_R   0.436927 0.522806 0.925510 0.106225
C26   C     C_R   0.397108 0.478124 0.976256 0.056716
C27   C     C_R   0.407093 0.387068 0.978173 -0.149118
H15   H     H_    0.367434 0.342210 0.007138 0.152820
C28   C     C_R   0.478240 0.360670 0.951406 -0.161359
H16   H     H_    0.495017 0.298979 0.964053 0.145984
C29   C     C_R   0.538891 0.426859 0.924231 0.036596
C30   C     C_R   0.507657 0.497924 0.899720 0.165408
C31   C     C_3   0.568307 0.611364 0.918701 -0.434442
C32   C     C_3   0.488863 0.637131 0.945442 -0.448108
H17   H     H_    0.645588 0.653303 0.977668 0.201702
H18   H     H_    0.567942 0.618636 0.855468 0.244144
H19   H     H_    0.520024 0.692765 0.019117 0.214904
H20   H     H_    0.441968 0.657578 0.896581 0.216672
C33   C     C_R   0.961320 0.404058 0.333603 -0.066981
C34   C     C_R   0.037662 0.421419 0.640172 0.068639
C35   C     C_R   0.139704 0.432446 0.552489 0.328285
C36   C     C_R   0.133902 0.449601 0.636418 -0.269119
C37   C     C_R   0.947872 0.359348 0.558914 -0.195074
C38   C     C_R   0.951542 0.355916 0.477788 0.083732
C39   C     C_R   0.047901 0.396782 0.474589 0.015281
C40   C     C_R   0.050511 0.414769 0.399309 -0.188654
C41   C     C_R   0.865095 0.361782 0.337919 0.346517
C42   C     C_R   0.860611 0.330148 0.406037 -0.226718
H21   H     H_    0.123822 0.447251 0.396861 0.179637
H22   H     H_    0.787413 0.300949 0.410466 0.201898
H23   H     H_    0.204448 0.488474 0.698397 0.161971
H24   H     H_    0.873467 0.328420 0.559913 0.172034
C43   C     C_R   0.636197 0.102378 0.640108 -0.077430
C44   C     C_R   0.449704 0.837128 0.315007 0.099155
C45   C     C_R   0.577803 0.018654 0.393166 -0.077135
C46   C     C_R   0.511317 0.927735 0.311832 -0.109700
C47   C     C_R   0.483471 0.825061 0.395300 -0.095407
C48   C     C_R   0.551858 0.914977 0.478104 -0.044933
C49   C     C_R   0.587366 0.015132 0.476731 -0.022977
C50   C     C_R   0.620461 0.107753 0.555765 0.271566
C51   C     C_R   0.612569 0.003001 0.641829 -0.270499
C52   C     C_R   0.570275 0.909081 0.561868 0.314104
H25   H     H_    0.627235 0.997183 0.705576 0.206390
H26   H     H_    0.614527 0.091954 0.389386 0.190272
H27   H     H_    0.501650 0.932768 0.248386 0.184637
H28   H     H_    0.444020 0.751119 0.396719 0.160259
C53   C     C_R   0.107497 0.068397 0.955965 0.147078
C54   C     C_R   0.011408 0.067942 0.945330 -0.149997
C55   C     C_R   0.922840 0.965895 0.892884 0.188925
C56   C     C_R   0.932056 0.874754 0.839707 0.146992
C57   C     C_R   0.029039 0.885527 0.842213 0.011930
C58   C     C_R   0.115781 0.979431 0.906304 0.095449
C59   C     C_3   0.206972 0.042464 0.896489 -0.382410
C60   C     C_3   0.198767 0.140951 0.951047 -0.512775
H29   H     H_    0.277624 0.037358 0.933763 0.218900
H30   H     H_    0.190369 0.027589 0.824331 0.198071
H31   H     H_    0.264986 0.191924 0.019609 0.221866
H32   H     H_    0.178251 0.183817 0.910753 0.197677
N17   N     N_R   0.320833 0.849501 0.136006 0.199436
O1    O     O_R   0.349684 0.951287 0.179609 -0.398187
O2    O     O_R   0.302131 0.808919 0.049799 -0.436223
N18   N     N_R   0.774324 0.363584 0.282845 0.223448
O3    O     O_R   0.685164 0.281050 0.245878 -0.363096
O4    O     O_R   0.777126 0.453891 0.285856 -0.361535
N19   N     N_R   0.238742 0.460562 0.549447 0.241073
O5    O     O_R   0.321726 0.536586 0.620884 -0.335090
O6    O     O_R   0.248362 0.399944 0.480974 -0.345293
N20   N     N_R   0.616309 0.199618 0.545733 0.223822
O7    O     O_R   0.682991 0.256289 0.525058 -0.455438
O8    O     O_R   0.542315 0.224017 0.553564 -0.336647
N21   N     N_R   0.547222 0.809222 0.567109 0.251121
O9    O     O_R   0.518963 0.795188 0.629618 -0.297220
O10   O     O_R   0.568502 0.738239 0.518454 -0.314582
N22   N     N_R   0.824263 0.954862 0.890638 0.253730
O11   O     O_R   0.810652 0.973290 0.965330 -0.381745
O12   O     O_R   0.748684 0.929254 0.814633 -0.341962
N23   N     N_R   0.844375 0.772052 0.780404 0.270059
O13   O     O_R   0.851796 0.699927 0.718046 -0.338688
O14   O     O_R   0.761551 0.744841 0.794490 -0.317917
I1    I     I_    0.361909 0.464844 0.181210 -0.345006

loop_
_geom_bond_atom_site_label_1
_geom_bond_atom_site_label_2
_geom_bond_distance
_ccdc_geom_bond_type
C4    C12   1.368718 A    
N9    Ni1   1.823445 S    
C28   C29   1.402185 A    
C49   C50   1.396915 A    
N1    N8    1.398455 A    
C51   C52   1.391591 A    
C18   H13   1.079492 S    
C6    I1    2.122883 S    
N22   O11   1.301217 A    
N6    Ni1   1.872122 S    
C2    C10   1.391006 A    
C3    H3    1.077058 S    
C37   C38   1.381503 A    
C20   N16   1.333758 A    
N10   Ni2   1.872124 S    
C53   C54   1.404039 A    
C3    C11   1.394572 A    
C34   C36   1.403834 A    
C13   H8    1.078721 S    
C15   H10   1.078930 S    
C12   C26   1.437741 S    
C25   C30   1.367278 A    
N12   Ni4   1.835704 S    
C58   C59   1.485768 S    
N14   Ni1   1.871794 S    
C22   C29   1.434465 S    
C43   C50   1.417057 A    
C48   C52   1.407226 A    
N18   O3    1.301310 A    
C3    N3    1.339268 A    
C1    H1    1.070685 S    
C23   C33   1.474190 S    
C21   C44   1.472144 S    
C27   C28   1.390120 A    
N11   Ni3   1.874396 S    
C11   C43   1.476003 S    
C56   N23   1.442179 S    
C43   C51   1.406074 A    
N4    N6    1.358623 A    
C15   C23   1.385498 A    
C59   C60   1.518956 S    
C14   N10   1.316340 A    
C14   C22   1.364972 A    
C7    N7    1.340315 A    
C16   C24   1.394800 A    
C53   C60   1.497476 S    
C17   N13   1.340456 A    
C30   C31   1.506061 S    
C25   C26   1.393904 A    
C8    H7    1.068550 S    
C59   H29   1.111635 S    
C54   C55   1.434497 A    
C7    C10   1.384219 A    
C40   H21   1.076287 S    
C33   C41   1.420887 A    
C56   C57   1.405697 A    
C13   C21   1.379182 A    
N8    Ni3   1.835704 S    
N12   N13   1.398456 A    
N19   O6    1.301399 A    
C10   C34   1.467935 S    
N16   Ni3   1.837300 S    
C17   C24   1.392507 A    
C31   C32   1.505509 S    
N9    N15   1.358739 A    
C35   N19   1.438918 S    
C2    N2    1.333809 A    
C47   C48   1.393533 A    
N1    Ni1   1.822026 S    
C38   C39   1.411105 A    
C7    H6    1.071887 S    
N10   N16   1.358621 A    
C28   H16   1.082275 S    
C34   C37   1.392813 A    
C41   C42   1.388453 A    
C60   H32   1.112460 S    
C26   C27   1.404547 A    
C1    N1    1.346942 A    
C19   C21   1.396724 A    
C35   C36   1.401501 A    
C16   H11   1.074398 S    
C25   C32   1.492586 S    
C38   C42   1.392727 A    
C14   H9    1.081060 S    
C44   C47   1.402747 A    
C32   H20   1.111869 S    
N11   N14   1.398454 A    
N5    Ni2   1.823446 S    
C55   N22   1.430079 S    
C18   N14   1.335394 A    
C4    N4    1.316464 A    
N15   Ni4   1.874428 S    
C50   N20   1.433825 S    
N7    Ni4   1.874399 S    
C20   H14   1.081046 S    
C44   C46   1.394630 A    
C37   H24   1.077186 S    
C42   H22   1.085099 S    
C8    N8    1.341049 A    
N21   O9    1.301542 A    
C47   H28   1.077022 S    
C59   H30   1.112067 S    
C5    C11   1.382989 A    
N3    Ni3   1.874431 S    
N20   O8    1.301202 A    
N23   O13   1.302025 A    
C46   H27   1.075984 S    
N17   O1    1.301430 A    
C31   H17   1.112215 S    
C53   C58   1.381570 A    
C20   C22   1.382498 A    
C19   N15   1.343096 A    
C17   H12   1.079493 S    
C19   N17   1.428822 S    
C2    H2    1.071362 S    
N23   O14   1.300838 A    
N22   O12   1.301707 A    
N19   O5    1.301543 A    
C51   H25   1.079164 S    
N20   O7    1.300427 A    
N2    N7    1.398454 A    
C57   C58   1.384344 A    
C60   H31   1.111301 S    
C45   H26   1.079985 S    
C31   H18   1.112016 S    
C5    N5    1.323247 A    
N3    N5    1.358741 A    
C16   N12   1.344229 A    
C6    N6    1.337293 A    
C6    C12   1.382824 A    
C32   H19   1.112460 S    
C41   N18   1.433892 S    
C13   N9    1.326411 A    
C48   C49   1.413595 A    
C33   C40   1.406896 A    
N18   O4    1.301532 A    
C52   N21   1.439666 S    
C9    C54   1.501118 S    
C45   C49   1.405731 A    
C27   H15   1.077874 S    
C4    H4    1.074867 S    
C18   C23   1.401163 A    
C39   C40   1.394771 A    
C15   N11   1.325442 A    
C1    C9    1.401552 A    
C29   C30   1.400564 A    
C8    C9    1.394944 A    
C55   C56   1.435252 A    
N21   O10   1.301546 A    
N2    Ni2   1.871792 S    
C45   C46   1.383111 A    
C5    H5    1.070897 S    
C35   C39   1.416458 A    
C36   H23   1.081118 S    
N4    Ni4   1.837301 S    
N13   Ni2   1.822025 S    
N17   O2    1.300407 A    
