data_mof_unit_45146.cif
_audit_creation_date              2012-12-10T18:27:29-0500
_audit_creation_method            fapswitch 2.2
_symmetry_space_group_name_H-M    P1
_symmetry_Int_Tables_number       1
_space_group_crystal_system       triclinic
_cell_length_a                    14.911642
_cell_length_b                    14.003566
_cell_length_c                    27.675918
_cell_angle_alpha                 90.446481
_cell_angle_beta                  89.661019
_cell_angle_gamma                 89.363922
_cell_volume                      5778.54328407

loop_
_atom_site_label
_atom_site_type_symbol
_atom_type_description
_atom_site_fract_x
_atom_site_fract_y
_atom_site_fract_z
_atom_type_partial_charge
C1    C     C_R   0.326842 0.500629 0.499790 0.957545
C2    C     C_R   0.413109 0.476798 0.872259 -0.104839
C3    C     C_3   0.893856 0.714555 0.847892 -0.934708
C4    C     C_3   0.334474 0.244703 0.029713 0.123425
C5    C     C_3   0.404763 0.226971 0.989822 -0.405350
C6    C     C_3   0.438953 0.123909 0.990048 -0.899039
C7    C     C_3   0.757818 0.405759 0.977512 0.121755
C8    C     C_3   0.714531 0.352221 0.019651 -0.402793
C9    C     C_3   0.752994 0.251282 0.023964 -0.899458
C10   C     C_R   0.494085 0.500054 0.353175 -0.320486
C11   C     C_R   0.499671 0.499622 0.646648 -0.308841
C12   C     C_R   0.408556 0.469664 0.973854 -0.019756
C13   C     C_R   0.558180 0.533248 0.025942 -0.020977
C14   C     C_R   0.566992 0.514668 0.975849 -0.077960
C15   C     C_R   0.410508 0.457991 0.024569 -0.075719
C16   C     C_R   0.489349 0.491901 0.949461 -0.070034
C17   C     C_R   0.481952 0.498291 0.050621 -0.068919
C18   C     C_R   0.328757 0.462835 0.946816 0.664088
C19   C     C_R   0.673160 0.499501 0.499982 0.935026
C20   C     C_R   0.621275 0.587264 0.052036 0.664195
C21   C     C_R   0.331601 0.465102 0.896680 -0.245332
C22   C     C_R   0.615864 0.593628 0.102034 -0.250006
C23   C     C_R   0.499762 0.499736 0.405887 0.999518
C24   C     C_R   0.499591 0.500180 0.594011 1.005008
C25   C     C_R   0.346724 0.403293 0.049856 0.408133
C26   C     C_R   0.650817 0.512453 0.951647 0.425665
C27   C     C_R   0.813079 0.557654 0.468422 -0.246836
C28   C     C_R   0.186880 0.451031 0.535382 -0.261509
C29   C     C_R   0.768524 0.499036 0.500593 -0.206233
C30   C     C_R   0.478398 0.501721 0.101497 -0.134296
C31   C     C_R   0.231456 0.502981 0.500394 -0.202897
C32   C     C_R   0.813962 0.444101 0.534531 0.592997
C33   C     C_R   0.186019 0.560278 0.467451 0.615652
C34   C     C_R   0.907064 0.450375 0.537752 -0.187288
C35   C     C_R   0.092607 0.565250 0.468954 -0.179009
C36   C     C_R   0.953126 0.507275 0.503603 -0.113955
C37   C     C_R   0.046575 0.509013 0.503424 -0.119813
C38   C     C_R   0.905614 0.561111 0.468969 -0.026067
C39   C     C_R   0.094171 0.453013 0.537165 -0.019633
C40   C     C_R   0.955418 0.401506 0.573955 0.383041
C41   C     C_R   0.492538 0.490817 0.898573 -0.130947
C42   C     C_R   0.043929 0.623478 0.436600 0.407848
C43   C     C_R   0.048713 0.400416 0.572250 0.505989
C44   C     C_R   0.950867 0.617968 0.435636 0.515578
C45   C     C_R   0.558756 0.796747 0.470940 -0.002252
C46   C     C_R   0.440731 0.203236 0.528698 -0.001625
C47   C     C_R   0.442191 0.799158 0.529576 0.023568
C48   C     C_R   0.559272 0.201022 0.471198 0.057101
C49   C     C_R   0.408264 0.460597 0.177550 0.636631
C50   C     C_R   0.574305 0.506164 0.823284 0.636906
C51   C     C_R   0.440718 0.900077 0.530461 -0.108130
C52   C     C_R   0.407099 0.458323 0.126679 -0.186072
C53   C     C_R   0.561868 0.100156 0.470800 -0.110334
C54   C     C_R   0.560578 0.897578 0.470175 -0.104183
C55   C     C_R   0.438669 0.102495 0.529252 -0.093051
C56   C     C_R   0.500297 0.949513 0.500088 -0.054483
C57   C     C_R   0.500334 0.050646 0.500070 -0.061885
C58   C     C_R   0.382360 0.951993 0.561523 0.357965
C59   C     C_R   0.624684 0.048187 0.442312 0.389657
C60   C     C_R   0.621221 0.947170 0.440367 0.339635
C61   C     C_R   0.376751 0.053010 0.558252 0.352423
C62   C     C_R   0.543879 0.549889 0.177469 0.659327
C63   C     C_R   0.574687 0.504561 0.874074 -0.180122
C64   C     C_R   0.416673 0.477497 0.821877 0.663437
C65   C     C_R   0.502937 0.418620 0.275942 0.560567
C66   C     C_R   0.460028 0.572801 0.723206 0.543560
C67   C     C_R   0.509944 0.416374 0.325953 0.525817
C68   C     C_R   0.460490 0.575192 0.673065 0.506111
C69   C     C_R   0.470350 0.585169 0.329745 -0.403999
C70   C     C_R   0.537055 0.421075 0.670747 -0.416894
C71   C     C_R   0.458524 0.586453 0.279691 0.474513
C72   C     C_R   0.537814 0.418767 0.721326 0.472699
C73   C     C_R   0.478040 0.503383 0.252867 -0.020111
C74   C     C_R   0.339321 0.411145 0.100491 0.379440
C75   C     C_R   0.497842 0.494648 0.747209 0.009430
C76   C     C_3   0.882259 0.413870 0.646927 0.168078
C77   C     C_3   0.953188 0.425368 0.686311 -0.347663
C78   C     C_3   0.918667 0.489139 0.727528 -0.970597
C79   C     C_3   0.108272 0.769821 0.426161 0.157970
C80   C     C_3   0.031461 0.842805 0.421407 -0.336830
C81   C     C_3   0.058591 0.940742 0.440442 -1.007078
C82   C     C_3   0.356718 0.920289 0.642211 0.134302
C83   C     C_3   0.453807 0.887108 0.651925 -0.399357
C84   C     C_3   0.474022 0.886661 0.705894 -0.815740
C85   C     C_R   0.654377 0.514304 0.900896 0.343842
C86   C     C_3   0.772463 0.090228 0.433361 0.112946
C87   C     C_3   0.790880 0.177437 0.465473 -0.373458
C88   C     C_3   0.887869 0.177891 0.482669 -0.907161
C89   C     C_3   0.641576 0.881341 0.365761 0.076195
C90   C     C_3   0.699221 0.809469 0.337255 -0.335020
C91   C     C_3   0.658543 0.787460 0.288000 -0.831540
C92   C     C_3   0.227938 0.095145 0.565296 0.121306
C93   C     C_3   0.210187 0.176666 0.529917 -0.353946
C94   C     C_3   0.112747 0.179267 0.513568 -0.904028
C95   C     C_3   0.349734 0.703316 0.269801 0.079596
C96   C     C_R   0.546707 0.548515 0.127117 -0.100530
C97   C     C_3   0.275737 0.644196 0.246074 -0.378506
C98   C     C_3   0.182894 0.684526 0.258512 -0.867314
C99   C     C_3   0.658333 0.316688 0.732652 0.112593
C100  C     C_3   0.701057 0.256474 0.772342 -0.318527
C101  C     C_3   0.795986 0.224324 0.758561 -0.935857
C102  C     C_3   0.186809 0.406534 0.114479 0.157147
C103  C     C_3   0.170544 0.496346 0.145550 -0.394063
C104  C     C_3   0.078170 0.539975 0.136023 -0.901756
C105  C     C_3   0.770235 0.609929 0.879414 0.169968
C106  C     C_3   0.853299 0.615020 0.847016 -0.326756
F1    F     F_    0.766594 0.386379 0.564366 -0.666840
F2    F     F_    0.683682 0.641129 0.029423 -0.636837
F3    F     F_    0.233603 0.607417 0.433178 -0.660906
F4    F     F_    0.094812 0.347996 0.605175 -0.667761
F5    F     F_    0.904750 0.668389 0.401918 -0.671130
F6    F     F_    0.418768 0.648644 0.650404 -0.648952
F7    F     F_    0.534613 0.333289 0.347377 -0.603719
F8    F     F_    0.421754 0.645857 0.748718 -0.630123
F9    F     F_    0.521850 0.338683 0.249582 -0.595133
F10   F     F_    0.246749 0.463459 0.968378 -0.640550
H1    H     H_    0.460707 0.650645 0.350285 0.207422
H2    H     H_    0.225134 0.410450 0.561516 0.207517
H3    H     H_    0.821581 0.382002 0.663420 0.171866
H4    H     H_    0.861086 0.485413 0.633238 0.120326
H5    H     H_    0.971615 0.354044 0.700793 0.257065
H6    H     H_    0.014269 0.458138 0.670771 0.256968
H7    H     H_    0.903404 0.561995 0.714033 0.271869
H8    H     H_    0.970671 0.494512 0.755941 0.287363
H9    H     H_    0.857049 0.459027 0.743838 0.272343
H10   H     H_    0.168231 0.797924 0.407214 0.183628
H11   H     H_    0.127515 0.762063 0.464887 0.123029
H12   H     H_    0.564705 0.361509 0.650192 0.214138
H13   H     H_    0.012108 0.848972 0.382824 0.260869
H14   H     H_    0.972333 0.818818 0.442443 0.244917
H15   H     H_    0.077163 0.936105 0.479178 0.266697
H16   H     H_    0.001391 0.991647 0.436937 0.274484
H17   H     H_    0.116387 0.968261 0.419444 0.276248
H18   H     H_    0.311035 0.879659 0.666103 0.197813
H19   H     H_    0.347999 0.996573 0.652649 0.177569
H20   H     H_    0.464896 0.814350 0.636890 0.292720
H21   H     H_    0.501574 0.935895 0.633881 0.199775
H22   H     H_    0.465181 0.959586 0.721404 0.247523
H23   H     H_    0.604230 0.754814 0.448493 0.166734
H24   H     H_    0.544402 0.862818 0.711620 0.264033
H25   H     H_    0.428730 0.836843 0.724954 0.315996
H26   H     H_    0.821072 0.089597 0.402778 0.183537
H27   H     H_    0.785391 0.023319 0.453975 0.153615
H28   H     H_    0.777341 0.243882 0.444908 0.247101
H29   H     H_    0.745807 0.176616 0.497568 0.235159
H30   H     H_    0.902861 0.112549 0.503783 0.265617
H31   H     H_    0.898802 0.241276 0.506130 0.294030
H32   H     H_    0.934528 0.181338 0.451312 0.260039
H33   H     H_    0.637912 0.949618 0.345459 0.192335
H34   H     H_    0.395375 0.245130 0.551201 0.172471
H35   H     H_    0.572709 0.851616 0.369387 0.124326
H36   H     H_    0.767584 0.838707 0.332065 0.251643
H37   H     H_    0.705084 0.742066 0.358044 0.248548
H38   H     H_    0.590800 0.756515 0.292477 0.288063
H39   H     H_    0.701834 0.734951 0.268332 0.295845
H40   H     H_    0.653381 0.853525 0.266193 0.263560
H41   H     H_    0.178425 0.100627 0.595371 0.197213
H42   H     H_    0.216363 0.024874 0.547200 0.139712
H43   H     H_    0.225891 0.245477 0.547825 0.260168
H44   H     H_    0.254385 0.167976 0.497688 0.211749
H45   H     H_    0.397203 0.759099 0.552360 0.202500
H46   H     H_    0.096329 0.112423 0.493995 0.260903
H47   H     H_    0.102060 0.240481 0.488909 0.270353
H48   H     H_    0.066964 0.187931 0.545131 0.298486
H49   H     H_    0.342993 0.778204 0.257261 0.177284
H50   H     H_    0.340176 0.706012 0.309682 0.149569
H51   H     H_    0.285265 0.644252 0.206232 0.226957
H52   H     H_    0.279721 0.569286 0.258853 0.248612
H53   H     H_    0.172237 0.685264 0.298285 0.299399
H54   H     H_    0.130842 0.639157 0.241760 0.269863
H55   H     H_    0.175478 0.758316 0.244541 0.258064
H56   H     H_    0.604554 0.241238 0.448696 0.187981
H57   H     H_    0.699756 0.381782 0.727549 0.153205
H58   H     H_    0.658078 0.273931 0.698625 0.147967
H59   H     H_    0.703325 0.299028 0.806400 0.246350
H60   H     H_    0.659501 0.192345 0.778801 0.230444
H61   H     H_    0.795275 0.181369 0.724654 0.272833
H62   H     H_    0.824366 0.179687 0.787844 0.271464
H63   H     H_    0.839656 0.287099 0.753497 0.271100
H64   H     H_    0.134408 0.353682 0.123488 0.168504
H65   H     H_    0.177804 0.423601 0.075570 0.184812
H66   H     H_    0.175348 0.477766 0.184409 0.269825
H67   H     H_    0.269205 0.459194 0.877083 0.217257
H68   H     H_    0.222280 0.550318 0.137159 0.212723
H69   H     H_    0.071993 0.559882 0.097399 0.278647
H70   H     H_    0.068668 0.605316 0.158517 0.271325
H71   H     H_    0.024820 0.488441 0.145376 0.271778
H72   H     H_    0.789378 0.629702 0.916968 0.187927
H73   H     H_    0.719371 0.662290 0.865980 0.141475
H74   H     H_    0.904331 0.562275 0.859362 0.237216
H75   H     H_    0.834489 0.596679 0.809315 0.256296
H76   H     H_    0.844372 0.768244 0.834898 0.266806
H77   H     H_    0.953697 0.715740 0.823843 0.277755
H78   H     H_    0.666118 0.634468 0.121004 0.216490
H79   H     H_    0.914789 0.733803 0.885138 0.276126
H80   H     H_    0.280016 0.191904 0.025318 0.179563
H81   H     H_    0.364303 0.231354 0.065961 0.149117
H82   H     H_    0.374764 0.242625 0.954034 0.246040
H83   H     H_    0.462763 0.274838 0.995316 0.212981
H84   H     H_    0.470306 0.107207 0.025346 0.269757
H85   H     H_    0.490074 0.113677 0.961077 0.269125
H86   H     H_    0.382946 0.073942 0.983384 0.269334
H87   H     H_    0.831716 0.404506 0.982380 0.183671
H88   H     H_    0.744820 0.367778 0.942689 0.137297
H89   H     H_    0.775024 0.599455 0.442619 0.211506
H90   H     H_    0.726284 0.391836 0.053953 0.249260
H91   H     H_    0.641072 0.347205 0.013953 0.212642
H92   H     H_    0.740869 0.210044 0.990221 0.262263
H93   H     H_    0.719853 0.214312 0.054480 0.277224
H94   H     H_    0.826223 0.253623 0.030940 0.268190
N1    N     N_R   0.475893 0.505728 0.201376 -0.308808
N2    N     N_R   0.496205 0.492656 0.798718 -0.305764
N3    N     N_R   0.500000 0.750030 0.500000 -0.130173
N4    N     N_R   0.500000 0.249970 0.500000 -0.130994
O1    O     O_R   0.367850 0.580280 0.500010 -0.586124
O2    O     O_2   0.650626 0.522040 0.798334 -0.560352
O3    O     O_2   0.341442 0.462987 0.796050 -0.530149
O4    O     O_2   0.609361 0.593504 0.202563 -0.556161
O5    O     O_3   0.912964 0.350515 0.609999 -0.563344
O6    O     O_3   0.086205 0.681974 0.403614 -0.567565
O7    O     O_3   0.329205 0.902661 0.593958 -0.650467
O8    O     O_3   0.685214 0.096400 0.413472 -0.621562
O9    O     O_3   0.681315 0.897013 0.411283 -0.640401
O10   O     O_3   0.314388 0.103914 0.585710 -0.656671
O11   O     O_3   0.436117 0.669915 0.255683 -0.622246
O12   O     O_R   0.632150 0.419720 0.499990 -0.590535
O13   O     O_3   0.569352 0.340100 0.746554 -0.619214
O14   O     O_3   0.271268 0.363787 0.124567 -0.585482
O15   O     O_3   0.736974 0.515891 0.877849 -0.608159
O16   O     O_3   0.295110 0.336820 0.025610 -0.596156
O17   O     O_3   0.729885 0.502805 0.977305 -0.588479
O18   O     O_R   0.632150 0.580280 0.499990 -0.644945
O19   O     O_R   0.367850 0.419720 0.500010 -0.647342
O20   O     O_R   0.500010 0.580260 0.428760 -0.636952
O21   O     O_R   0.499990 0.419740 0.571240 -0.627285
O22   O     O_R   0.499990 0.580260 0.571240 -0.586519
O23   O     O_R   0.500010 0.419740 0.428760 -0.568464
O24   O     O_2   0.343527 0.417334 0.203312 -0.514145
Zn1   Zn    Zn3+2 0.500000 0.607200 0.500000 0.984033
Zn2   Zn    Zn3+2 0.500000 0.392800 0.500000 0.995846

loop_
_geom_bond_atom_site_label_1
_geom_bond_atom_site_label_2
_ccdc_geom_bond_type
C66   C68   A    
C87   C88   S    
C95   H50   S    
C93   C94   S    
C50   C63   A    
C62   C96   A    
C27   C29   A    
C103  H66   S    
C102  H64   S    
O21   Zn2   S    
C1    C31   S    
C73   N1    S    
C97   C98   S    
C53   C59   A    
C11   C70   A    
C7    C8    S    
C5    H83   S    
C82   O7    S    
C54   C60   A    
C77   C78   S    
C11   C68   A    
C91   H39   S    
C104  H69   S    
C3    H77   S    
C64   O3    S    
C34   C40   A    
C62   O4    S    
C105  H72   S    
C36   C37   A    
C35   C37   A    
C19   O12   A    
C6    H86   S    
C29   C32   A    
C52   C74   A    
C5    C6    S    
C23   O23   A    
C15   C25   A    
C2    C41   A    
C18   C21   A    
C47   N3    A    
C11   C24   S    
C45   H23   S    
C98   H54   S    
C65   C73   A    
C56   C57   A    
C92   H42   S    
C25   C74   A    
C68   F6    S    
C69   H1    S    
C82   H19   S    
C93   H43   S    
C35   C42   A    
C4    H80   S    
C100  C101  S    
C93   H44   S    
C7    H87   S    
C77   H6    S    
C32   C34   A    
C48   H56   S    
C98   H53   S    
C76   O5    S    
C40   C43   A    
C47   C51   A    
C12   C16   A    
C1    O19   A    
C8    C9    S    
C65   C67   A    
C32   F1    S    
C46   C55   A    
C1    O1    A    
O18   Zn1   S    
C45   N3    A    
C62   N1    A    
C31   C33   A    
C101  H62   S    
C43   F4    S    
C87   H28   S    
C78   H8    S    
C19   O18   A    
C94   H46   S    
C90   C91   S    
C9    H93   S    
C58   C61   A    
C89   H33   S    
C84   H22   S    
C59   C60   A    
C13   C14   A    
C63   C85   A    
C17   C30   A    
C71   O11   S    
C42   C44   A    
C106  H75   S    
C100  H59   S    
C72   C75   A    
C95   H49   S    
C58   O7    S    
C2    C64   A    
C86   H27   S    
C54   C56   A    
C3    C106  S    
C48   C53   A    
C25   O16   S    
C48   N4    A    
C75   N2    S    
C76   H3    S    
C80   H14   S    
C103  H68   S    
C105  H73   S    
C92   O10   S    
O12   Zn2   S    
C76   C77   S    
C91   H38   S    
C90   H36   S    
C74   O14   S    
C23   O20   A    
C77   H5    S    
C53   C57   A    
C86   C87   S    
C80   C81   S    
C81   H16   S    
C7    O17   S    
C28   C39   A    
C46   N4    A    
C10   C67   A    
C72   O13   S    
C3    H79   S    
C92   H41   S    
C27   H89   S    
C4    O16   S    
C82   H18   S    
C8    H91   S    
N4    Zn2   S    
C95   O11   S    
C87   H29   S    
C38   C44   A    
C7    H88   S    
C24   O22   A    
C59   O8    S    
C101  H63   S    
C83   C84   S    
C99   H57   S    
C12   C15   A    
C50   O2    S    
C9    H94   S    
C49   C52   A    
C49   N1    A    
C2    C21   A    
C102  O14   S    
C88   H32   S    
C85   O15   S    
C51   C58   A    
C76   H4    S    
C94   H47   S    
C14   C26   A    
C90   H37   S    
C8    H90   S    
C78   H7    S    
C101  H61   S    
C83   H20   S    
C30   C96   A    
C6    H85   S    
C98   H55   S    
C4    H81   S    
C46   H34   S    
C79   H10   S    
C20   C22   A    
C45   C54   A    
C55   C57   A    
C40   O5    S    
C10   C23   S    
C14   C16   A    
O1    Zn1   S    
C41   C63   A    
C18   F10   S    
C19   C29   S    
C60   O9    S    
C94   H48   S    
C83   H21   S    
C27   C38   A    
C86   H26   S    
C71   C73   A    
C70   H12   S    
C15   C17   A    
C104  H71   S    
C30   C52   A    
C88   H30   S    
C80   H13   S    
C66   F8    S    
C13   C20   A    
C70   C72   A    
C102  H65   S    
C22   C96   A    
O19   Zn2   S    
C28   C31   A    
C64   N2    A    
C51   C56   A    
C4    C5    S    
N3    Zn1   S    
C9    H92   S    
C89   O9    S    
C39   C43   A    
C95   C97   S    
C81   H17   S    
C5    H82   S    
C13   C17   A    
C26   O17   S    
C97   H52   S    
C104  H70   S    
C105  C106  S    
C42   O6    S    
C69   C71   A    
C99   C100  S    
C21   H67   S    
C100  H60   S    
C49   O24   S    
C65   F9    S    
C61   O10   S    
C79   H11   S    
C91   H40   S    
C37   C39   A    
C24   O21   A    
C97   H51   S    
C3    H76   S    
C6    H84   S    
C79   O6    S    
C99   H58   S    
C84   H25   S    
C26   C85   A    
C66   C75   A    
C55   C61   A    
C36   C38   A    
C92   C93   S    
C33   C35   A    
C88   H31   S    
C34   C36   A    
O20   Zn1   S    
C67   F7    S    
C102  C103  S    
C81   H15   S    
C50   N2    A    
C79   C80   S    
C47   H45   S    
C44   F5    S    
C10   C69   A    
C89   H35   S    
C33   F3    S    
C84   H24   S    
C82   C83   S    
O23   Zn2   S    
C12   C18   A    
C103  C104  S    
C106  H74   S    
C22   H78   S    
C28   H2    S    
C86   O8    S    
C89   C90   S    
C78   H9    S    
C16   C41   A    
O22   Zn1   S    
C99   O13   S    
C105  O15   S    
C20   F2    S    
