data_mof_unit_40200.cif
_audit_creation_date              2012-12-10T21:38:07-0500
_audit_creation_method            fapswitch 2.2
_symmetry_space_group_name_H-M    P1
_symmetry_Int_Tables_number       1
_space_group_crystal_system       triclinic
_cell_length_a                    16.16315
_cell_length_b                    16.679637
_cell_length_c                    16.94307
_cell_angle_alpha                 89.296664
_cell_angle_beta                  91.947913
_cell_angle_gamma                 86.899792
_cell_volume                      4557.99839087

loop_
_atom_site_label
_atom_site_type_symbol
_atom_type_description
_atom_site_fract_x
_atom_site_fract_y
_atom_site_fract_z
_atom_type_partial_charge
C1    C     C_R   0.511628 0.347011 0.498158 0.896713
C2    C     C_R   0.488369 0.652953 0.501706 0.903049
C3    C     C_R   0.520221 0.260990 0.489963 -0.080555
C4    C     C_R   0.479312 0.738967 0.509090 -0.067709
C5    C     C_R   0.457114 0.221841 0.450685 -0.316735
C6    C     C_R   0.534888 0.777911 0.558388 -0.359019
C7    C     C_R   0.462162 0.138833 0.445112 0.474823
C8    C     C_R   0.529162 0.861421 0.563426 0.480624
C9    C     C_R   0.529900 0.095026 0.482464 0.214894
C10   C     C_R   0.465175 0.904575 0.519922 0.234645
C11   C     C_R   0.596190 0.134660 0.515710 -0.256019
C12   C     C_R   0.406266 0.864844 0.475409 -0.247776
C13   C     C_R   0.591424 0.217825 0.519707 -0.238644
C14   C     C_R   0.413365 0.781966 0.469688 -0.227086
C15   C     C_R   0.245973 0.561517 0.483679 -0.112349
C16   C     C_R   0.752588 0.446779 0.533198 -0.112608
C17   C     C_R   0.159598 0.572982 0.475263 0.364481
C18   C     C_R   0.838999 0.431929 0.537678 0.350588
C19   C     C_R   0.109107 0.510626 0.494260 0.209128
C20   C     C_R   0.890211 0.485312 0.501377 0.216189
C21   C     C_R   0.148129 0.436600 0.519478 -0.380209
C22   C     C_R   0.852089 0.550646 0.457572 -0.392913
C23   C     C_R   0.511564 0.500493 0.652678 0.863957
C24   C     C_R   0.488380 0.500771 0.347509 0.865076
C25   C     C_R   0.235744 0.426941 0.526673 0.099106
C26   C     C_R   0.764721 0.561963 0.452287 0.088059
C27   C     C_R   0.519337 0.495571 0.738996 -0.101510
C28   C     C_R   0.479955 0.514437 0.262337 -0.106455
C29   C     C_R   0.450117 0.472523 0.779762 -0.274275
C30   C     C_R   0.545540 0.550053 0.225729 -0.270332
C31   C     C_R   0.453262 0.462978 0.861225 0.041250
C32   C     C_R   0.540962 0.569312 0.145860 0.039851
C33   C     C_R   0.526626 0.480739 0.902879 0.109601
C34   C     C_R   0.468925 0.552019 0.101901 0.107417
C35   C     C_R   0.597074 0.500432 0.863422 -0.219663
C36   C     C_R   0.401209 0.520945 0.138257 -0.224401
C37   C     C_R   0.594367 0.509076 0.781555 -0.014708
C38   C     C_R   0.406335 0.500068 0.218200 -0.019135
C39   C     C_2   0.526935 0.493175 0.987141 -0.210122
C40   C     C_2   0.471165 0.545427 0.017018 -0.205661
H1    H     H_    0.392784 0.461756 0.748455 0.155936
H2    H     H_    0.600951 0.563145 0.259432 0.181368
H3    H     H_    0.714119 0.407422 0.565038 0.164232
H4    H     H_    0.282502 0.610670 0.467148 0.169827
H5    H     H_    0.111098 0.386553 0.533901 0.188656
H6    H     H_    0.889520 0.592755 0.427665 0.190014
H7    H     H_    0.422633 0.576026 0.980152 0.159085
H8    H     H_    0.575018 0.462186 0.024282 0.157089
H9    H     H_    0.652539 0.514934 0.897057 0.155939
H10   H     H_    0.347260 0.505922 0.102664 0.160394
H11   H     H_    0.581804 0.743330 0.593232 0.146541
H12   H     H_    0.403477 0.255505 0.425159 0.172608
H13   H     H_    0.649368 0.100894 0.542153 0.161797
H14   H     H_    0.357244 0.898589 0.442283 0.173958
H15   H     H_    0.641472 0.248071 0.548702 0.153909
H16   H     H_    0.369001 0.751658 0.432918 0.157386
N1    N     N_2   0.530825 0.011284 0.490482 -0.182227
N2    N     N_2   0.463759 0.988361 0.513907 -0.118218
N3    N     N_R   0.283770 0.490310 0.509640 -0.126793
N4    N     N_R   0.716230 0.509690 0.490360 -0.122294
N5    N     N_2   0.020830 0.525243 0.485714 -0.152010
N6    N     N_2   0.978424 0.470010 0.509761 -0.144301
O1    O     O_R   0.577220 0.387330 0.496550 -0.639635
O2    O     O_R   0.422780 0.612670 0.503450 -0.634459
O3    O     O_R   0.438350 0.381110 0.502740 -0.602230
O4    O     O_R   0.561650 0.618890 0.497260 -0.609603
O5    O     O_R   0.577640 0.503470 0.612340 -0.610953
O6    O     O_R   0.422360 0.496530 0.387660 -0.606261
O7    O     O_R   0.438770 0.497250 0.618530 -0.624821
O8    O     O_R   0.561230 0.502750 0.381470 -0.613054
Zn1   Zn    Zn3+2 0.592720 0.504150 0.495870 0.944994
Zn2   Zn    Zn3+2 0.407280 0.495850 0.504130 0.948336
O9    O     O_3   0.874100 0.368860 0.583278 -0.610356
C41   C     C_3   0.862626 0.296392 0.543186 0.092515
H17   H     H_    0.888193 0.298485 0.482917 0.135961
H18   H     H_    0.795754 0.283650 0.538467 0.125338
C42   C     C_3   0.908200 0.227693 0.589233 -0.813802
H19   H     H_    0.883543 0.223337 0.649444 0.254321
H20   H     H_    0.899461 0.170249 0.558372 0.200222
H21   H     H_    0.975505 0.237994 0.594031 0.257332
O10   O     O_3   0.124558 0.647661 0.453298 -0.598917
C43   C     C_3   0.118818 0.652589 0.370099 0.092101
H22   H     H_    0.077318 0.606932 0.346036 0.137161
H23   H     H_    0.181138 0.644155 0.344261 0.126373
C44   C     C_3   0.082044 0.735193 0.345066 -0.814846
H24   H     H_    0.122356 0.782336 0.367542 0.255336
H25   H     H_    0.077107 0.739720 0.279611 0.198121
H26   H     H_    0.019226 0.745076 0.369000 0.258954
C45   C     C_R   0.272689 0.347875 0.553261 0.167418
C46   C     C_R   0.251188 0.277553 0.514394 -0.212942
C47   C     C_R   0.282034 0.202328 0.542814 -0.106386
C48   C     C_R   0.334596 0.196686 0.610094 -0.091019
C49   C     C_R   0.355006 0.266196 0.649845 -0.169227
C50   C     C_R   0.323161 0.341282 0.622045 -0.086423
H27   H     H_    0.210257 0.280884 0.462447 0.127729
H28   H     H_    0.265548 0.148465 0.512422 0.168400
H29   H     H_    0.359062 0.138496 0.631620 0.144459
H30   H     H_    0.394685 0.261898 0.702655 0.136982
H31   H     H_    0.336359 0.394230 0.654458 0.131247
C51   C     C_R   0.728412 0.631334 0.406307 0.175189
C52   C     C_R   0.733172 0.632783 0.323755 -0.205719
C53   C     C_R   0.704906 0.701303 0.280274 -0.147497
C54   C     C_R   0.672435 0.768806 0.318897 -0.111289
C55   C     C_R   0.669986 0.768606 0.401176 -0.155056
C56   C     C_R   0.699249 0.700605 0.444897 -0.098167
H32   H     H_    0.759041 0.581066 0.293218 0.128086
H33   H     H_    0.708700 0.702493 0.216728 0.163398
H34   H     H_    0.650324 0.821664 0.285162 0.126536
H35   H     H_    0.646177 0.821484 0.430905 0.118944
H36   H     H_    0.699492 0.701902 0.508683 0.114345
C57   C     C_R   0.336559 0.458052 0.251215 0.164731
C58   C     C_R   0.348441 0.378438 0.279224 -0.120051
C59   C     C_R   0.281759 0.338287 0.308125 -0.151087
C60   C     C_R   0.203118 0.377268 0.309554 -0.103333
C61   C     C_R   0.190786 0.456199 0.281400 -0.153066
C62   C     C_R   0.257099 0.496478 0.251968 -0.171006
H37   H     H_    0.409045 0.347470 0.278135 0.095788
H38   H     H_    0.290782 0.276754 0.328904 0.127537
H39   H     H_    0.151572 0.346153 0.331973 0.118857
H40   H     H_    0.129647 0.485871 0.281831 0.113146
H41   H     H_    0.246667 0.557539 0.229930 0.114554
C63   C     C_R   0.669045 0.538036 0.744580 0.143317
C64   C     C_R   0.743259 0.490094 0.747139 -0.165473
C65   C     C_R   0.814652 0.518634 0.714769 -0.117010
C66   C     C_R   0.812408 0.595032 0.679707 -0.119558
C67   C     C_R   0.739021 0.643407 0.677852 -0.146144
C68   C     C_R   0.667555 0.615278 0.710445 -0.098703
H42   H     H_    0.745697 0.430755 0.774081 0.132347
H43   H     H_    0.871660 0.481406 0.716586 0.166797
H44   H     H_    0.867607 0.616843 0.654271 0.142560
H45   H     H_    0.737776 0.702924 0.651753 0.113020
H46   H     H_    0.611219 0.653530 0.709507 0.111842
C69   C     C_R   0.613461 0.603069 0.108315 0.121079
C70   C     C_R   0.603145 0.672239 0.059995 -0.138440
C71   C     C_R   0.671043 0.702431 0.022782 -0.147035
C72   C     C_R   0.749647 0.663945 0.033489 -0.117028
C73   C     C_R   0.760527 0.595209 0.081485 -0.151021
C74   C     C_R   0.692816 0.564764 0.118786 -0.203620
H47   H     H_    0.542579 0.702680 0.051164 0.125770
H48   H     H_    0.662694 0.755643 0.985555 0.132725
H49   H     H_    0.802113 0.687359 0.004559 0.126729
H50   H     H_    0.821413 0.565376 0.089641 0.129478
H51   H     H_    0.702057 0.510905 0.155062 0.127229
C75   C     C_R   0.379167 0.435966 0.901853 0.113677
C76   C     C_R   0.300363 0.473450 0.885115 -0.183417
C77   C     C_R   0.231456 0.449788 0.925424 -0.135498
C78   C     C_R   0.240460 0.388549 0.982574 -0.115516
C79   C     C_R   0.318312 0.350480 0.999194 -0.144653
C80   C     C_R   0.387346 0.373742 0.958880 -0.133340
H52   H     H_    0.292490 0.521960 0.841992 0.131766
H53   H     H_    0.171109 0.479292 0.912671 0.130733
H54   H     H_    0.187114 0.370595 0.013975 0.126671
H55   H     H_    0.325219 0.303025 0.043455 0.130202
H56   H     H_    0.447233 0.343509 0.972367 0.124005
O11   O     O_3   0.579621 0.901238 0.615951 -0.597901
C81   C     C_3   0.662716 0.894171 0.592452 0.100280
H57   H     H_    0.668614 0.920803 0.532490 0.137685
H58   H     H_    0.687005 0.830596 0.592734 0.117511
C82   C     C_3   0.716506 0.939404 0.650145 -0.819203
H59   H     H_    0.714015 0.912558 0.710278 0.255735
H60   H     H_    0.781761 0.935762 0.631409 0.201671
H61   H     H_    0.694222 0.003485 0.651816 0.253998
O12   O     O_3   0.397623 0.100189 0.409435 -0.614903
C83   C     C_3   0.408842 0.099732 0.327255 0.080064
H62   H     H_    0.468390 0.066914 0.313375 0.139697
H63   H     H_    0.408124 0.162042 0.302603 0.125192
C84   C     C_3   0.338333 0.057099 0.287235 -0.829093
H64   H     H_    0.278092 0.089054 0.299294 0.250488
H65   H     H_    0.346480 0.056180 0.222433 0.203874
H66   H     H_    0.337917 0.994333 0.309841 0.253744

loop_
_geom_bond_atom_site_label_1
_geom_bond_atom_site_label_2
_ccdc_geom_bond_type
C40   H7    S    
C14   H16   S    
C56   H36   S    
C49   C50   A    
C27   C29   A    
O9    C41   S    
C23   O7    A    
C57   C58   A    
C81   C82   S    
C73   H50   S    
C76   C77   A    
N1    N2    D    
C24   O8    A    
C64   C65   A    
C84   H65   S    
C44   H24   S    
C51   C56   A    
C67   C68   A    
C41   H18   S    
C34   C40   S    
C50   H31   S    
C81   H57   S    
C10   N2    S    
C19   N5    S    
C15   H4    S    
C77   C78   A    
C74   H51   S    
C32   C69   S    
C42   H21   S    
C61   C62   A    
C63   C68   A    
C15   C17   A    
C16   N4    A    
C23   O5    A    
C45   C50   A    
C8    O11   S    
C68   H46   S    
C58   C59   A    
C54   C55   A    
C17   C19   A    
C47   H28   S    
C66   H44   S    
C78   C79   A    
C41   C42   S    
C35   H9    S    
C1    O3    A    
C31   C33   A    
C5    H12   S    
C54   H34   S    
C23   C27   S    
C6    H11   S    
C17   O10   S    
O5    Zn1   S    
C60   H39   S    
C3    C13   A    
N3    Zn2   S    
C39   H8    S    
C29   H1    S    
C44   H25   S    
C66   C67   A    
C69   C74   A    
C84   H64   S    
C4    C14   A    
C11   H13   S    
C31   C75   S    
C1    O1    A    
C55   C56   A    
C2    O2    A    
C48   H29   S    
O10   C43   S    
C84   H66   S    
C21   H5    S    
C42   H20   S    
C71   H48   S    
C41   H17   S    
C53   C54   A    
C52   C53   A    
C24   C28   S    
C71   C72   A    
C79   C80   A    
C9    N1    S    
C4    C6    A    
C62   H41   S    
C45   C46   A    
C70   H47   S    
C5    C7    A    
C72   C73   A    
C6    C8    A    
N4    Zn1   S    
C3    C5    A    
C42   H19   S    
C7    O12   S    
C59   H38   S    
C77   H53   S    
C1    C3    S    
C32   C34   A    
O7    Zn2   S    
C2    C4    S    
C80   H56   S    
O4    Zn1   S    
C72   H49   S    
C82   H59   S    
C81   H58   S    
C28   C38   A    
O6    Zn2   S    
C82   H60   S    
C82   H61   S    
C53   H33   S    
C33   C39   S    
C9    C11   A    
C16   H3    S    
C57   C62   A    
C10   C12   A    
C16   C18   A    
C22   H6    S    
O1    Zn1   S    
C61   H40   S    
C18   O9    S    
C43   H23   S    
C69   C70   A    
C79   H55   S    
C46   C47   A    
O3    Zn2   S    
C47   C48   A    
O8    Zn1   S    
C36   H10   S    
C35   C37   A    
C59   C60   A    
C44   H26   S    
C52   H32   S    
C7    C9    A    
C21   C25   A    
C83   H62   S    
C75   C80   A    
C19   C21   A    
C15   N3    A    
C83   C84   S    
C76   H52   S    
C20   C22   A    
C75   C76   A    
C2    O4    A    
C46   H27   S    
C60   C61   A    
C70   C71   A    
C43   C44   S    
C73   C74   A    
C25   C45   S    
C58   H37   S    
C36   C38   A    
C78   H54   S    
C12   C14   A    
C28   C30   A    
C29   C31   A    
C30   C32   A    
C11   C13   A    
C64   H42   S    
C55   H35   S    
C67   H45   S    
C27   C37   A    
C83   H63   S    
C48   C49   A    
C33   C35   A    
C34   C36   A    
C65   H43   S    
C18   C20   A    
O2    Zn2   S    
C20   N6    S    
N5    N6    D    
O12   C83   S    
C24   O6    A    
C37   C63   S    
C39   C40   D    
C8    C10   A    
C43   H22   S    
C22   C26   A    
O11   C81   S    
C63   C64   A    
C30   H2    S    
C51   C52   A    
C25   N3    A    
C38   C57   S    
C26   N4    A    
C49   H30   S    
C12   H14   S    
C26   C51   S    
C65   C66   A    
C13   H15   S    
