data_mof_unit_12106.cif
_audit_creation_date              2012-12-10T17:41:48-0500
_audit_creation_method            fapswitch 2.2
_symmetry_space_group_name_H-M    P1
_symmetry_Int_Tables_number       1
_space_group_crystal_system       triclinic
_cell_length_a                    13.854638
_cell_length_b                    13.840016
_cell_length_c                    15.034699
_cell_angle_alpha                 90.071011
_cell_angle_beta                  92.30693
_cell_angle_gamma                 83.628823
_cell_volume                      2862.7374423

loop_
_atom_site_label
_atom_site_type_symbol
_atom_type_description
_atom_site_fract_x
_atom_site_fract_y
_atom_site_fract_z
_atom_type_partial_charge
C1    C     C_R   0.498870 0.495360 0.329352 0.816362
C2    C     C_R   0.501105 0.503616 0.670817 0.818477
C3    C     C_R   0.497367 0.504324 0.953281 -0.003796
C4    C     C_R   0.494414 0.499702 0.046971 -0.007387
C5    C     C_R   0.470730 0.425031 0.902645 0.088116
C6    C     C_R   0.523063 0.577649 0.097959 0.079495
C7    C     C_R   0.552196 0.666667 0.964586 0.241106
C8    C     C_R   0.429474 0.342423 0.035747 0.247054
C9    C     C_R   0.552204 0.658953 0.057038 -0.279082
C10   C     C_R   0.437103 0.345754 0.943692 -0.293312
C11   C     C_R   0.784755 0.555411 0.440496 0.025187
C12   C     C_R   0.215290 0.443418 0.558432 0.021501
C13   C     C_R   0.803295 0.442096 0.560567 0.090448
C14   C     C_R   0.196836 0.557587 0.439017 0.090457
C15   C     C_R   0.907709 0.437663 0.560204 -0.079875
C16   C     C_R   0.092413 0.561947 0.439221 -0.068131
C17   C     C_R   0.948510 0.498650 0.500151 0.032118
C18   C     C_R   0.051527 0.501297 0.499507 0.028170
C19   C     C_R   0.886429 0.556720 0.440116 -0.024056
C20   C     C_R   0.113662 0.441908 0.558423 -0.029114
C21   C     C_R   0.973286 0.375789 0.617672 0.242680
C22   C     C_R   0.026829 0.622036 0.380320 0.248027
C23   C     C_R   0.516701 0.317043 0.500549 0.828224
C24   C     C_R   0.483259 0.682936 0.498826 0.831511
C25   C     C_R   0.073983 0.379759 0.615727 -0.256319
C26   C     C_R   0.926465 0.616090 0.380353 -0.276303
C27   C     C_1   0.471269 0.786350 0.496989 -0.162846
C28   C     C_1   0.528466 0.213599 0.500591 -0.163905
C29   C     C_2   0.458200 0.977925 0.499607 -0.050208
C30   C     C_2   0.540961 0.022098 0.496407 -0.048113
C31   C     C_1   0.536223 0.126441 0.499518 -0.045069
C32   C     C_1   0.463130 0.873533 0.496900 -0.049455
C33   C     C_R   0.474970 0.426356 0.810776 -0.236219
C34   C     C_R   0.522287 0.574375 0.189994 -0.236533
C35   C     C_R   0.503233 0.506464 0.767466 -0.095254
C36   C     C_R   0.495447 0.493409 0.232955 -0.092555
C37   C     C_R   0.526034 0.589229 0.815384 -0.080373
C38   C     C_R   0.469339 0.412261 0.184467 -0.073650
C39   C     C_R   0.525908 0.588096 0.910350 0.026290
C40   C     C_R   0.463724 0.417069 0.089701 0.035237
Cu1   Cu    Cu3+1 0.597420 0.500010 0.499990 0.942928
Cu2   Cu    Cu3+1 0.402580 0.499990 0.500010 0.934871
H1    H     H_    0.455136 0.364756 0.772013 0.130306
H2    H     H_    0.543174 0.635328 0.229088 0.129869
H3    H     H_    0.575233 0.717834 0.097484 0.143144
H4    H     H_    0.412556 0.287308 0.903564 0.137328
H5    H     H_    0.737784 0.600250 0.393973 0.129428
H6    H     H_    0.262296 0.397721 0.604292 0.132028
H7    H     H_    0.122310 0.331804 0.658524 0.137391
H8    H     H_    0.879177 0.660118 0.333425 0.133198
N1    N     N_R   0.743820 0.499960 0.499930 -0.204028
N2    N     N_R   0.256180 0.500040 0.500070 -0.206912
O1    O     O_R   0.582280 0.500030 0.370250 -0.588233
O2    O     O_R   0.417720 0.499970 0.629750 -0.587851
O3    O     O_R   0.417740 0.500020 0.370270 -0.584549
O4    O     O_R   0.582260 0.499980 0.629730 -0.577826
O5    O     O_R   0.593900 0.362160 0.500010 -0.586425
O6    O     O_R   0.406100 0.637840 0.499990 -0.589716
O7    O     O_R   0.429360 0.362150 0.500030 -0.576677
O8    O     O_R   0.570640 0.637850 0.499970 -0.569988
C41   C     C_R   0.638519 0.966690 0.488716 0.154280
C42   C     C_R   0.712877 0.979055 0.552656 -0.166540
C43   C     C_R   0.802695 0.922451 0.549529 -0.155945
C44   C     C_R   0.819362 0.853971 0.482018 -0.113156
C45   C     C_R   0.747148 0.843863 0.416109 -0.136292
C46   C     C_R   0.657275 0.900348 0.418975 -0.131457
H9    H     H_    0.700293 0.030242 0.606476 0.108432
H10   H     H_    0.858922 0.930786 0.600151 0.125229
H11   H     H_    0.888224 0.808886 0.480963 0.138181
H12   H     H_    0.760322 0.791974 0.362999 0.108014
H13   H     H_    0.601937 0.891508 0.367556 0.109774
C47   C     C_R   0.361175 0.032355 0.512797 0.148221
C48   C     C_R   0.282584 0.019212 0.453692 -0.172610
C49   C     C_R   0.190915 0.069368 0.466464 -0.154831
C50   C     C_R   0.176725 0.132097 0.538824 -0.108314
C51   C     C_R   0.254040 0.144188 0.598899 -0.143027
C52   C     C_R   0.345764 0.094249 0.586339 -0.140828
H14   H     H_    0.292573 0.971118 0.397216 0.112504
H15   H     H_    0.130869 0.059552 0.420255 0.128237
H16   H     H_    0.105702 0.170754 0.548636 0.123272
H17   H     H_    0.242946 0.191686 0.655621 0.109371
H18   H     H_    0.404530 0.103212 0.634303 0.112212
C53   C     C_R   0.537600 0.678949 0.765290 0.152866
C54   C     C_R   0.456140 0.746926 0.747675 -0.137567
C55   C     C_R   0.467979 0.838773 0.714184 -0.147312
C56   C     C_R   0.560811 0.862307 0.696449 -0.099415
C57   C     C_R   0.641551 0.792990 0.709057 -0.119903
C58   C     C_R   0.630131 0.701393 0.743531 -0.095383
H19   H     H_    0.384321 0.730443 0.764058 0.121657
H20   H     H_    0.405461 0.892261 0.703326 0.133487
H21   H     H_    0.569901 0.934337 0.672978 0.123957
H22   H     H_    0.713282 0.811193 0.694713 0.130439
H23   H     H_    0.693575 0.650453 0.758032 0.103384
C59   C     C_R   0.463634 0.319023 0.231951 0.137253
C60   C     C_R   0.381891 0.303924 0.280196 -0.094307
C61   C     C_R   0.371148 0.211540 0.313211 -0.130106
C62   C     C_R   0.442277 0.133935 0.298926 -0.102838
C63   C     C_R   0.526010 0.149313 0.254724 -0.143121
C64   C     C_R   0.536854 0.241536 0.221373 -0.134809
H24   H     H_    0.324723 0.362187 0.289001 0.125134
H25   H     H_    0.306922 0.199848 0.348556 0.144100
H26   H     H_    0.432970 0.061971 0.322613 0.124840
H27   H     H_    0.581630 0.089353 0.244855 0.123729
H28   H     H_    0.600496 0.251885 0.184485 0.119433
N3    N     N_2   0.583748 0.752042 0.928217 -0.416121
H29   H     H_    0.655335 0.759576 0.945450 0.241954
C65   C     C_3   0.520359 0.840702 0.942465 -0.687019
H30   H     H_    0.544195 0.900226 0.902180 0.229052
H31   H     H_    0.523388 0.862107 0.013661 0.203813
H32   H     H_    0.444178 0.831092 0.921588 0.235290
N4    N     N_2   0.380936 0.267025 0.071915 -0.411968
H33   H     H_    0.396398 0.200597 0.041400 0.245051
C66   C     C_3   0.277520 0.292778 0.079610 -0.698021
H34   H     H_    0.246320 0.233726 0.114805 0.226040
H35   H     H_    0.241202 0.302819 0.012463 0.217009
H36   H     H_    0.263155 0.360920 0.118409 0.226445
C67   C     C_R   0.759703 0.393219 0.634062 0.232538
C68   C     C_R   0.734660 0.297914 0.625008 -0.087621
C69   C     C_R   0.699503 0.250905 0.697321 -0.176588
C70   C     C_R   0.693419 0.296703 0.780086 -0.125647
C71   C     C_R   0.723562 0.389146 0.791024 -0.137432
C72   C     C_R   0.757525 0.436827 0.718611 -0.095819
H37   H     H_    0.743554 0.259734 0.562439 0.123172
H38   H     H_    0.678121 0.178494 0.689604 0.116762
H39   H     H_    0.666596 0.260048 0.836046 0.127526
H40   H     H_    0.720788 0.423795 0.855591 0.129295
H41   H     H_    0.783533 0.507022 0.728287 0.092481
C73   C     C_R   0.240520 0.606502 0.365468 0.233451
C74   C     C_R   0.240651 0.564261 0.280200 -0.136557
C75   C     C_R   0.273664 0.612776 0.207833 -0.128788
C76   C     C_R   0.305086 0.704591 0.219449 -0.116310
C77   C     C_R   0.301087 0.749051 0.302881 -0.186563
C78   C     C_R   0.266620 0.701341 0.375110 -0.057096
H42   H     H_    0.213209 0.494808 0.269652 0.092928
H43   H     H_    0.274782 0.579211 0.142758 0.131776
H44   H     H_    0.331243 0.741833 0.163503 0.129714
H45   H     H_    0.323135 0.821170 0.311177 0.117218
H46   H     H_    0.258589 0.738953 0.438038 0.122604
N5    N     N_2   0.940540 0.302630 0.671744 -0.433119
H47   H     H_    0.953394 0.233910 0.645148 0.241346
C79   C     C_3   0.967098 0.305535 0.765837 -0.689231
H48   H     H_    0.922363 0.258554 0.802689 0.235210
H49   H     H_    0.953398 0.380863 0.791682 0.234033
H50   H     H_    0.044760 0.277777 0.778255 0.205173
N6    N     N_2   0.059359 0.689357 0.320006 -0.427328
H51   H     H_    0.036148 0.678997 0.254974 0.251406
C80   C     C_3   0.041898 0.790193 0.346280 -0.719247
H52   H     H_    0.081918 0.835213 0.302679 0.233992
H53   H     H_    0.068098 0.799649 0.416272 0.229721
H54   H     H_    0.963226 0.816085 0.338881 0.218040

loop_
_geom_bond_atom_site_label_1
_geom_bond_atom_site_label_2
_ccdc_geom_bond_type
C2    C35   S    
C57   C58   A    
C50   C51   A    
C9    H3    S    
Cu1   Cu2   S    
C11   H5    S    
C60   C61   A    
C24   C27   S    
C12   H6    S    
C73   C74   A    
Cu2   O6    S    
C6    C9    A    
C62   C63   A    
C55   C56   A    
C23   O7    A    
N3    C65   S    
C11   C19   A    
C29   C30   D    
C42   H9    S    
C53   C54   A    
C52   H18   S    
C80   H53   S    
C66   H34   S    
C29   C32   S    
C56   H21   S    
C26   H8    S    
C30   C31   S    
C20   C25   A    
C63   H27   S    
C14   C73   S    
C23   O5    A    
C48   C49   A    
C72   H41   S    
C19   C26   A    
C1    O1    A    
C68   C69   A    
C80   H52   S    
N6    C80   S    
C13   N1    A    
C79   H48   S    
C41   C46   A    
C14   N2    A    
C4    C40   A    
C77   C78   A    
C5    C33   A    
C10   H4    S    
C65   H30   S    
C7    N3    S    
C50   H16   S    
C18   C20   A    
C62   H26   S    
C24   O8    A    
C29   C47   S    
C53   C58   A    
C3    C39   A    
C78   H46   S    
C61   H25   S    
C65   H31   S    
C12   C20   A    
C41   C42   A    
C12   N2    A    
N6    H51   S    
C49   C50   A    
C43   C44   A    
C33   H1    S    
C80   H54   S    
C34   H2    S    
C54   C55   A    
C4    C6    A    
C76   H44   S    
C2    O2    A    
C8    N4    S    
C58   H23   S    
C70   H39   S    
C17   C19   A    
C77   H45   S    
C69   H38   S    
C48   H14   S    
C3    C4    A    
C6    C34   A    
Cu2   O7    S    
C67   C72   A    
Cu1   O4    S    
C47   C52   A    
Cu2   O3    S    
C46   H13   S    
C22   N6    S    
C15   C21   A    
C55   H20   S    
C61   C62   A    
C38   C59   S    
C42   C43   A    
C17   C18   A    
N4    C66   S    
C16   C18   A    
C44   H11   S    
C51   C52   A    
C69   C70   A    
Cu1   O1    S    
C71   C72   A    
C8    C10   A    
C75   H43   S    
C45   C46   A    
C49   H15   S    
C13   C15   A    
C65   H32   S    
C14   C16   A    
C79   H50   S    
C23   C28   S    
C54   H19   S    
C21   N5    S    
C76   C77   A    
C70   C71   A    
C56   C57   A    
C74   C75   A    
C15   C17   A    
C21   C25   A    
C43   H10   S    
C16   C22   A    
N4    H33   S    
C35   C37   A    
C27   C32   T    
C60   H24   S    
C28   C31   T    
Cu1   O8    S    
C47   C48   A    
C3    C5    A    
C51   H17   S    
C13   C67   S    
N5    H47   S    
N3    H29   S    
C67   C68   A    
C44   C45   A    
C66   H36   S    
C79   H49   S    
C75   C76   A    
C1    O3    A    
Cu1   O5    S    
C5    C10   A    
C37   C39   A    
C2    O4    A    
C73   C78   A    
Cu2   O2    S    
C38   C40   A    
N5    C79   S    
C59   C64   A    
C36   C38   A    
C33   C35   A    
C64   H28   S    
C34   C36   A    
C68   H37   S    
C59   C60   A    
C25   H7    S    
C11   N1    A    
C74   H42   S    
C7    C9    A    
C71   H40   S    
C24   O6    A    
C63   C64   A    
C22   C26   A    
C30   C41   S    
C7    C39   A    
C37   C53   S    
C8    C40   A    
C57   H22   S    
Cu1   N1    S    
C45   H12   S    
C1    C36   S    
Cu2   N2    S    
C66   H35   S    
