data_mof_unit_15113.cif
_audit_creation_date              2012-12-10T16:52:31-0500
_audit_creation_method            fapswitch 2.2
_symmetry_space_group_name_H-M    P1
_symmetry_Int_Tables_number       1
_space_group_crystal_system       triclinic
_cell_length_a                    19.232729
_cell_length_b                    18.929099
_cell_length_c                    18.642019
_cell_angle_alpha                 109.23055
_cell_angle_beta                  110.181969
_cell_angle_gamma                 110.322613
_cell_volume                      5137.08539621

loop_
_atom_site_label
_atom_site_type_symbol
_atom_type_description
_atom_site_fract_x
_atom_site_fract_y
_atom_site_fract_z
_atom_type_partial_charge
C1    C     C_R   0.619531 0.619166 0.501253 0.944366
C2    C     C_R   0.376123 0.380590 0.493281 0.962361
C3    C     C_R   0.236493 0.470594 0.301762 -0.228080
C4    C     C_R   0.764274 0.565808 0.735803 -0.230612
C5    C     C_R   0.173761 0.472641 0.239402 0.441503
C6    C     C_R   0.830871 0.563282 0.793139 0.440747
C7    C     C_R   0.187697 0.492110 0.176583 -0.187129
C8    C     C_R   0.812094 0.488233 0.801926 -0.177121
C9    C     C_R   0.800508 0.656178 0.577228 0.371932
C10   C     C_R   0.205545 0.234996 0.323011 0.408454
C11   C     C_R   0.887470 0.692776 0.642753 0.406861
C12   C     C_R   0.121035 0.171463 0.248557 0.428787
C13   C     C_R   0.947027 0.781122 0.677986 -0.344105
C14   C     C_R   0.067797 0.103090 0.253439 -0.322605
C15   C     C_R   0.923947 0.827071 0.639620 -0.175558
C16   C     C_R   0.094583 0.102819 0.332178 -0.196979
C17   C     C_R   0.839801 0.788897 0.568479 -0.004508
C18   C     C_R   0.168803 0.176439 0.412441 -0.027604
C19   C     C_R   0.774735 0.708834 0.548186 -0.129648
C20   C     C_R   0.228267 0.242429 0.408388 -0.133241
C21   C     C_R   0.687678 0.687822 0.504269 -0.225968
C22   C     C_R   0.308149 0.310915 0.489217 -0.222594
C23   C     C_R   0.380988 0.498279 0.380330 0.852875
C24   C     C_R   0.617055 0.499399 0.619393 0.873455
C25   C     C_R   0.667467 0.743473 0.478091 0.367198
C26   C     C_R   0.328587 0.312088 0.569691 0.310330
C27   C     C_R   0.731307 0.812148 0.481491 0.336823
C28   C     C_R   0.266559 0.249675 0.574152 0.312899
C29   C     C_R   0.817566 0.830534 0.520716 -0.282421
C30   C     C_R   0.185783 0.182648 0.495471 -0.222856
C31   C     C_R   0.001655 0.618871 0.119968 0.755497
C32   C     C_R   0.999166 0.380959 0.881013 0.801386
C33   C     C_R   0.118896 0.495401 0.113810 0.833923
C34   C     C_R   0.880799 0.494580 0.875549 0.834297
C35   C     C_R   0.001760 0.118462 0.622025 0.762422
C36   C     C_R   0.002136 0.885178 0.378636 0.821458
C37   C     C_R   0.881951 0.887202 0.506997 0.836945
C38   C     C_R   0.119041 0.118633 0.499513 0.812346
C39   C     C_R   0.873756 0.663264 0.060413 -0.275311
C40   C     C_R   0.046024 0.267367 0.926963 -0.283561
C41   C     C_R   0.829704 0.697867 0.023670 -0.328484
C42   C     C_R   0.083073 0.226096 0.958911 -0.333720
C43   C     C_R   0.847096 0.780991 0.076870 0.403599
C44   C     C_R   0.113300 0.182492 0.914242 0.438667
C45   C     C_R   0.422430 0.562189 0.272026 -0.290045
C46   C     C_R   0.574003 0.343428 0.630124 -0.281771
C47   C     C_R   0.897732 0.822638 0.171012 0.362455
C48   C     C_R   0.091395 0.166160 0.826774 0.338546
C49   C     C_R   0.944975 0.787103 0.210761 -0.042633
C50   C     C_R   0.044256 0.202546 0.787868 -0.046606
C51   C     C_R   0.937880 0.711101 0.151011 0.048597
C52   C     C_R   0.029833 0.260239 0.844480 0.015751
C53   C     C_R   0.997556 0.685691 0.181658 -0.020427
C54   C     C_R   0.003346 0.313666 0.819941 -0.037285
C55   C     C_R   0.058639 0.728380 0.271049 -0.227551
C56   C     C_R   0.985769 0.307421 0.738741 -0.250301
C57   C     C_R   0.059009 0.793982 0.332082 -0.200812
C58   C     C_R   0.986158 0.243207 0.677184 -0.227042
C59   C     C_R   0.002030 0.823100 0.305187 -0.082932
C60   C     C_R   0.012002 0.188405 0.697807 -0.072744
C61   C     C_R   0.445958 0.601040 0.226246 0.360668
C62   C     C_R   0.553110 0.264974 0.629088 0.338861
C63   C     C_R   0.381786 0.595778 0.156203 0.276841
C64   C     C_R   0.616280 0.260418 0.689148 0.347968
C65   C     C_R   0.293288 0.540451 0.124698 0.348039
C66   C     C_R   0.704183 0.327470 0.736042 0.321144
C67   C     C_R   0.270749 0.517988 0.183193 -0.100016
C68   C     C_R   0.726073 0.411605 0.744545 -0.114183
C69   C     C_R   0.336764 0.524862 0.254793 -0.086554
C70   C     C_R   0.659112 0.417726 0.688481 -0.054493
C71   C     C_R   0.317117 0.497468 0.310483 -0.093256
C72   C     C_R   0.679584 0.495926 0.686473 -0.113045
Cu1   Cu    Cu3+1 0.500020 0.438200 0.438210 0.925927
Cu2   Cu    Cu3+1 0.499980 0.561800 0.561790 0.904451
Cu3   Cu    Cu3+1 0.938190 0.438210 0.000010 0.971459
Cu4   Cu    Cu3+1 0.061810 0.561790 0.999990 0.961002
Cu5   Cu    Cu3+1 0.938200 0.000020 0.438210 0.906326
Cu6   Cu    Cu3+1 0.061800 0.999980 0.561790 0.916656
H1    H     H_    0.011384 0.815686 0.735128 0.155703
H2    H     H_    0.005714 0.048685 0.196577 0.185572
H3    H     H_    0.970640 0.895086 0.671199 0.155694
H4    H     H_    0.055284 0.044024 0.328990 0.227961
H5    H     H_    0.104960 0.709145 0.293959 0.126419
H6    H     H_    0.967807 0.350333 0.721338 0.136097
H7    H     H_    0.862110 0.601425 0.015139 0.164325
H8    H     H_    0.032870 0.307092 0.970427 0.200189
H9    H     H_    0.789644 0.662851 0.952116 0.149951
H10   H     H_    0.092888 0.233478 0.022194 0.186338
H11   H     H_    0.104721 0.821740 0.401601 0.165737
H12   H     H_    0.966646 0.237109 0.612482 0.166832
O1    O     O_R   0.590200 0.537990 0.447830 -0.574943
O2    O     O_R   0.409800 0.462010 0.552170 -0.603473
O3    O     O_R   0.052170 0.090160 0.642370 -0.563544
O4    O     O_R   0.947830 0.909840 0.357630 -0.568286
O5    O     O_R   0.857630 0.909850 0.447810 -0.559004
O6    O     O_R   0.142370 0.090150 0.552190 -0.565591
O7    O     O_R   0.962000 0.909820 0.552180 -0.614264
O8    O     O_R   0.038000 0.090180 0.447820 -0.592842
O9    O     O_R   0.590170 0.642360 0.552190 -0.603776
O10   O     O_R   0.409830 0.357640 0.447810 -0.583734
O11   O     O_R   0.409850 0.447820 0.357640 -0.590356
O12   O     O_R   0.590150 0.552180 0.642360 -0.617360
O13   O     O_R   0.409820 0.552200 0.462010 -0.618125
O14   O     O_R   0.590180 0.447800 0.537990 -0.575968
O15   O     O_R   0.947790 0.538000 0.090170 -0.594047
O16   O     O_R   0.052210 0.462000 0.909830 -0.565528
O17   O     O_R   0.052190 0.642370 0.090170 -0.592155
O18   O     O_R   0.947810 0.357630 0.909830 -0.578964
O19   O     O_R   0.037970 0.447810 0.090190 -0.566415
O20   O     O_R   0.962030 0.552190 0.909810 -0.571560
O21   O     O_R   0.142360 0.552180 0.090180 -0.549188
O22   O     O_R   0.857640 0.447820 0.909820 -0.552091
O23   O     O_R   0.947800 0.090190 0.538000 -0.611491
O24   O     O_R   0.052200 0.909810 0.462000 -0.594381
H13   H     H_    0.223340 0.451516 0.346666 0.157697
H14   H     H_    0.779457 0.620908 0.725294 0.169636
O25   O     O_3   0.706165 0.854612 0.439279 -0.549999
C73   C     C_3   0.737781 0.941706 0.502971 0.099547
H15   H     H_    0.809192 0.983463 0.536893 0.145156
H16   H     H_    0.722404 0.944056 0.555661 0.051081
C74   C     C_3   0.695900 0.982005 0.457001 -0.336327
H17   H     H_    0.624613 0.944507 0.427697 0.195287
H18   H     H_    0.721414 0.050377 0.507054 0.170484
C75   C     C_3   0.714186 0.982792 0.383707 -0.745792
H19   H     H_    0.686248 0.914941 0.330613 0.262487
H20   H     H_    0.684071 0.014095 0.353695 0.206957
H21   H     H_    0.785046 0.020614 0.411271 0.257508
O26   O     O_3   0.291248 0.246644 0.651978 -0.605660
C76   C     C_3   0.256012 0.280592 0.700106 0.086995
H22   H     H_    0.198696 0.225258 0.687626 0.215060
H23   H     H_    0.233518 0.321808 0.680237 0.068503
C77   C     C_3   0.324885 0.336014 0.800260 -0.391421
H24   H     H_    0.380335 0.325559 0.813153 0.234099
H25   H     H_    0.349490 0.406622 0.823496 0.187925
C78   C     C_3   0.291444 0.313487 0.857083 -0.868222
H26   H     H_    0.229303 0.311373 0.840147 0.261611
H27   H     H_    0.340406 0.363670 0.928036 0.225850
H28   H     H_    0.283353 0.249564 0.847231 0.294090
O27   O     O_3   0.830020 0.830779 0.040302 -0.609788
C79   C     C_3   0.742970 0.785340 0.970429 0.034165
H29   H     H_    0.698177 0.761706 0.993322 0.132490
H30   H     H_    0.729204 0.729723 0.911398 0.147054
C80   C     C_3   0.727097 0.847595 0.941194 -0.329319
H31   H     H_    0.742252 0.905951 0.998542 0.223754
H32   H     H_    0.770506 0.869708 0.916479 0.216281
C81   C     C_3   0.633276 0.803248 0.867336 -0.932506
H33   H     H_    0.616013 0.744054 0.809145 0.259887
H34   H     H_    0.625086 0.849443 0.845844 0.255449
H35   H     H_    0.588685 0.784344 0.891730 0.255444
O28   O     O_3   0.162857 0.152342 0.953350 -0.635276
C82   C     C_3   0.235794 0.218505 0.039421 0.030047
H36   H     H_    0.266906 0.186210 0.066372 0.163005
H37   H     H_    0.217630 0.248173 0.086345 0.144191
C83   C     C_3   0.303034 0.290098 0.037755 -0.360984
H38   H     H_    0.321074 0.259968 0.990837 0.224276
H39   H     H_    0.275092 0.326663 0.015689 0.211361
C84   C     C_3   0.384642 0.354363 0.129611 -0.936548
H40   H     H_    0.368047 0.383728 0.178431 0.278250
H41   H     H_    0.430414 0.407355 0.127072 0.241343
H42   H     H_    0.416757 0.320480 0.151559 0.249748
O29   O     O_3   0.914425 0.905994 0.220166 -0.607939
C85   C     C_3   0.836692 0.905881 0.207209 0.154400
H43   H     H_    0.827886 0.907652 0.263353 0.164793
H44   H     H_    0.776056 0.846900 0.146959 0.106408
C86   C     C_3   0.843763 0.987799 0.204640 -0.336300
H45   H     H_    0.900012 0.047055 0.268555 0.230081
H46   H     H_    0.854762 0.988818 0.150346 0.225828
C87   C     C_3   0.761636 0.990299 0.189245 -0.971485
H47   H     H_    0.704681 0.932235 0.124966 0.258942
H48   H     H_    0.768949 0.050368 0.187352 0.266043
H49   H     H_    0.750255 0.991227 0.243912 0.253155
O30   O     O_3   0.137980 0.139337 0.793879 -0.605964
C88   C     C_3   0.123303 0.056096 0.781355 0.146565
H50   H     H_    0.088994 0.009862 0.709433 0.180112
H51   H     H_    0.082409 0.027391 0.805997 0.130634
C89   C     C_3   0.209893 0.060508 0.821793 -0.336091
H52   H     H_    0.246133 0.082473 0.790546 0.204980
H53   H     H_    0.250064 0.108339 0.894102 0.246326
C90   C     C_3   0.196047 0.971297 0.807064 -0.955355
H54   H     H_    0.163094 0.949859 0.841003 0.259280
H55   H     H_    0.259750 0.976056 0.835051 0.259242
H56   H     H_    0.156156 0.921679 0.734929 0.254143
H57   H     H_    0.473450 0.566810 0.325167 0.212053
H58   H     H_    0.523116 0.343973 0.582124 0.203629
O31   O     O_3   0.532935 0.653286 0.257656 -0.555104
C91   C     C_3   0.556804 0.608872 0.202802 0.066918
H59   H     H_    0.511884 0.582510 0.131192 0.154600
H60   H     H_    0.557200 0.554119 0.212693 0.127184
C92   C     C_3   0.648276 0.673446 0.229367 -0.273358
H61   H     H_    0.649645 0.730835 0.224436 0.223103
H62   H     H_    0.694567 0.697148 0.299489 0.232010
C93   C     C_3   0.677348 0.631420 0.169922 -0.963037
H63   H     H_    0.677721 0.574581 0.174711 0.262460
H64   H     H_    0.743991 0.680152 0.191469 0.258312
H65   H     H_    0.633204 0.609196 0.099679 0.254877
O32   O     O_3   0.480384 0.187964 0.555279 -0.592957
C94   C     C_3   0.407023 0.168190 0.563916 0.121067
H66   H     H_    0.362530 0.177924 0.516937 0.164228
H67   H     H_    0.421570 0.209375 0.631926 0.151590
C95   C     C_3   0.361550 0.071587 0.536903 -0.381039
H68   H     H_    0.348113 0.030696 0.469634 0.233784
H69   H     H_    0.404749 0.061176 0.584311 0.226968
C96   C     C_3   0.276393 0.041491 0.535287 -0.834762
H70   H     H_    0.287627 0.082753 0.601183 0.284665
H71   H     H_    0.247627 0.972446 0.519444 0.238619
H72   H     H_    0.230121 0.045167 0.483170 0.256746
O33   O     O_3   0.404358 0.639528 0.113864 -0.631265
C97   C     C_3   0.437685 0.729989 0.167297 0.071002
H73   H     H_    0.477173 0.765672 0.145543 0.158952
H74   H     H_    0.482230 0.757010 0.239185 0.183941
C98   C     C_3   0.364210 0.748749 0.154956 -0.356137
H75   H     H_    0.322226 0.724772 0.083598 0.220217
H76   H     H_    0.323892 0.713972 0.176616 0.227866
C99   C     C_3   0.400115 0.846636 0.209322 -0.928346
H77   H     H_    0.441107 0.871653 0.281194 0.255393
H78   H     H_    0.345629 0.858254 0.199195 0.261334
H79   H     H_    0.439468 0.883148 0.187991 0.256180
O34   O     O_3   0.593879 0.184646 0.692982 -0.608144
C100  C     C_3   0.566679 0.190119 0.755278 0.022207
H80   H     H_    0.524175 0.122146 0.737392 0.165188
H81   H     H_    0.526849 0.221246 0.752734 0.121012
C101  C     C_3   0.643937 0.238243 0.850339 -0.326831
H82   H     H_    0.681557 0.205058 0.853429 0.219503
H83   H     H_    0.687322 0.306890 0.870678 0.234468
C102  C     C_3   0.613557 0.239729 0.916104 -0.932669
H84   H     H_    0.577048 0.274134 0.915609 0.255341
H85   H     H_    0.670670 0.274935 0.984153 0.259638
H86   H     H_    0.571332 0.171895 0.898775 0.255370
O35   O     O_3   0.230320 0.510758 0.039069 -0.569601
C103  C     C_3   0.246199 0.466120 0.974491 0.145867
H87   H     H_    0.187388 0.400468 0.925734 0.157348
H88   H     H_    0.298721 0.453025 0.001651 0.064863
C104  C     C_3   0.267628 0.516781 0.927605 -0.265309
H89   H     H_    0.276076 0.582282 0.961002 0.249158
H90   H     H_    0.329906 0.527164 0.932096 0.191759
C105  C     C_3   0.198006 0.469078 0.829688 -0.918214
H91   H     H_    0.184492 0.401612 0.793938 0.255569
H92   H     H_    0.220567 0.505162 0.798216 0.238576
H93   H     H_    0.137693 0.466624 0.823416 0.286291
O36   O     O_3   0.767418 0.307566 0.766963 -0.578161
C106  C     C_3   0.762697 0.244159 0.695099 0.135258
H94   H     H_    0.827899 0.270700 0.703962 0.145484
H95   H     H_    0.720140 0.232520 0.628617 0.081796
C107  C     C_3   0.732642 0.155986 0.692862 -0.278487
H96   H     H_    0.712139 0.157095 0.741703 0.260790
H97   H     H_    0.675760 0.102682 0.625800 0.189945
C108  C     C_3   0.802603 0.132697 0.713955 -0.940952
H98   H     H_    0.829316 0.134628 0.670095 0.255556
H99   H     H_    0.774440 0.065627 0.703666 0.234485
H100  H     H_    0.854861 0.178635 0.784585 0.292336
O37   O     O_3   0.098701 0.456154 0.241674 -0.593358
C109  C     C_3   0.105113 0.536518 0.288743 0.091273
H101  H     H_    0.038620 0.525491 0.259596 0.178147
H102  H     H_    0.144517 0.590352 0.281812 0.093272
C110  C     C_3   0.141218 0.565613 0.387299 -0.373252
H103  H     H_    0.100555 0.512473 0.393723 0.230591
H104  H     H_    0.208530 0.579055 0.418404 0.215855
C111  C     C_3   0.142463 0.648666 0.437058 -0.930074
H105  H     H_    0.183972 0.703005 0.432598 0.252341
H106  H     H_    0.169466 0.668494 0.508224 0.258907
H107  H     H_    0.075712 0.637007 0.408869 0.261328
O38   O     O_3   0.915397 0.626513 0.826341 -0.579178
C112  C     C_3   0.947000 0.701705 0.906489 0.093978
H108  H     H_    0.018883 0.735075 0.942965 0.174478
H109  H     H_    0.927150 0.684904 0.950533 0.130522
C113  C     C_3   0.921430 0.765533 0.889678 -0.382935
H110  H     H_    0.928671 0.770251 0.834545 0.244380
H111  H     H_    0.852720 0.741318 0.870860 0.204433
C114  C     C_3   0.977750 0.856846 0.972248 -0.879225
H112  H     H_    0.975110 0.853949 0.029825 0.284085
H113  H     H_    0.953706 0.899378 0.959192 0.248354
H114  H     H_    0.046143 0.886112 0.988776 0.240760
O39   O     O_3   0.581899 0.722744 0.439706 -0.590121
C115  C     C_3   0.573555 0.790504 0.489740 0.097584
H115  H     H_    0.574674 0.832873 0.460461 0.179514
H116  H     H_    0.625171 0.830515 0.561690 0.102814
C116  C     C_3   0.485798 0.751003 0.482751 -0.336974
H117  H     H_    0.433324 0.705456 0.411803 0.232541
H118  H     H_    0.485425 0.714023 0.518108 0.251010
C117  C     C_3   0.468050 0.821876 0.524146 -0.953816
H119  H     H_    0.519247 0.867944 0.595468 0.258331
H120  H     H_    0.404367 0.790995 0.518883 0.263140
H121  H     H_    0.466110 0.858904 0.488735 0.258141
O40   O     O_3   0.415175 0.366208 0.638450 -0.631324
C118  C     C_3   0.425542 0.424189 0.717219 0.111021
H122  H     H_    0.442913 0.401498 0.764385 0.173651
H123  H     H_    0.367169 0.429154 0.707312 0.123117
C119  C     C_3   0.501918 0.516059 0.759789 -0.323105
H124  H     H_    0.560872 0.513420 0.767975 0.226707
H125  H     H_    0.487166 0.544347 0.717185 0.251446
C120  C     C_3   0.519461 0.575463 0.850450 -1.007663
H126  H     H_    0.460106 0.575784 0.844624 0.260958
H127  H     H_    0.570338 0.642939 0.877021 0.262526
H128  H     H_    0.541810 0.553402 0.897505 0.259957
O41   O     O_3   0.741172 0.568565 0.540471 -0.594057
C121  C     C_3   0.763038 0.514553 0.491088 0.119077
H129  H     H_    0.795950 0.492063 0.532124 0.180902
H130  H     H_    0.806458 0.548331 0.470946 0.101134
C122  C     C_3   0.680635 0.434078 0.406363 -0.308850
H131  H     H_    0.635823 0.398427 0.423619 0.246243
H132  H     H_    0.647706 0.455239 0.363619 0.224354
C123  C     C_3   0.701222 0.371811 0.354110 -0.978627
H133  H     H_    0.744735 0.405295 0.334403 0.262377
H134  H     H_    0.640179 0.314265 0.293071 0.261299
H135  H     H_    0.732977 0.348435 0.394832 0.261165
O42   O     O_3   0.266539 0.287055 0.311107 -0.601026
C124  C     C_3   0.281257 0.235527 0.249171 0.105897
H136  H     H_    0.332962 0.281277 0.245531 0.174833
H137  H     H_    0.223562 0.194999 0.181337 0.141037
C125  C     C_3   0.310508 0.176248 0.273908 -0.396878
H138  H     H_    0.370977 0.215680 0.339809 0.255699
H139  H     H_    0.259668 0.127735 0.276273 0.207651
C126  C     C_3   0.327165 0.126052 0.205442 -0.941902
H140  H     H_    0.266892 0.083354 0.138796 0.254365
H141  H     H_    0.348459 0.084257 0.224694 0.269685
H142  H     H_    0.378841 0.172365 0.202069 0.249135
O43   O     O_3   0.907402 0.641962 0.676067 -0.594452
C127  C     C_3   0.990445 0.654379 0.696450 0.108367
H143  H     H_    0.999548 0.613175 0.725293 0.192328
H144  H     H_    0.043835 0.722270 0.749434 0.128572
C128  C     C_3   0.997805 0.624083 0.613469 -0.421639
H145  H     H_    0.946402 0.554226 0.564525 0.212202
H146  H     H_    0.989231 0.663520 0.582067 0.220005
C129  C     C_3   0.085992 0.633463 0.636979 -0.904573
H147  H     H_    0.138582 0.703320 0.683562 0.256050
H148  H     H_    0.088630 0.609284 0.575616 0.260728
H149  H     H_    0.096434 0.594258 0.668094 0.253054
O44   O     O_3   0.093391 0.182119 0.175126 -0.590118
C130  C     C_3   0.040115 0.102211 0.092419 0.035366
H150  H     H_    0.047281 0.047336 0.095928 0.104228
H151  H     H_    0.061621 0.111410 0.046371 0.170368
C131  C     C_3   0.944813 0.076825 0.052286 -0.348811
H152  H     H_    0.903500 0.008598 0.995126 0.172276
H153  H     H_    0.925316 0.079572 0.102139 0.215779
C132  C     C_3   0.928055 0.136852 0.019956 -0.768847
H154  H     H_    0.972634 0.206572 0.074023 0.290443
H155  H     H_    0.860219 0.120399 0.998174 0.225866
H156  H     H_    0.936728 0.127238 0.962331 0.237603

loop_
_geom_bond_atom_site_label_1
_geom_bond_atom_site_label_2
_ccdc_geom_bond_type
C63   C65   A    
C84   H40   S    
Cu1   O10   S    
C130  H151  S    
C120  H126  S    
C62   O32   S    
C1    O9    A    
C110  H104  S    
C24   O14   A    
C39   C41   A    
C96   H71   S    
C46   C62   A    
O40   C118  S    
C57   C59   A    
C58   C60   A    
C80   H31   S    
C10   O42   S    
C102  H86   S    
C107  H96   S    
C30   C38   S    
C112  H109  S    
C115  H115  S    
Cu2   O2    S    
C94   H67   S    
C62   C64   A    
C9    C19   A    
C89   C90   S    
C23   O13   A    
Cu6   O6    S    
C129  H147  S    
C49   C51   A    
C2    C22   S    
C50   C52   A    
C131  C132  S    
C33   O21   A    
C48   C50   A    
C1    O1    A    
C41   C43   A    
C42   C44   A    
Cu5   O23   S    
C85   H44   S    
C27   O25   S    
C41   H9    S    
C125  H139  S    
C45   C69   A    
C93   H65   S    
C112  H108  S    
C79   H29   S    
C132  H155  S    
C44   O28   S    
C35   C60   S    
C64   C66   A    
Cu3   Cu4   S    
O35   C103  S    
C85   C86   S    
O42   C124  S    
C117  H119  S    
C103  H88   S    
C83   H38   S    
C75   H21   S    
C87   H47   S    
Cu3   O15   S    
C84   H42   S    
C114  H113  S    
C39   H7    S    
C55   H5    S    
C81   H33   S    
C108  H100  S    
C78   H27   S    
Cu1   O11   S    
C127  C128  S    
C66   O36   S    
C31   O17   A    
O32   C94   S    
O27   C79   S    
C107  C108  S    
C12   O44   S    
C118  H123  S    
C11   C13   A    
C23   O11   A    
C129  H149  S    
C35   O23   A    
C82   H37   S    
C73   H16   S    
C46   C70   A    
C132  H154  S    
C77   H25   S    
C128  H145  S    
C87   H49   S    
C67   C69   A    
C91   H59   S    
C43   C47   A    
C44   C48   A    
C93   H64   S    
C109  H101  S    
C39   C51   A    
C27   C29   A    
C34   O22   A    
C53   C55   A    
C79   C80   S    
C38   O8    A    
C36   O24   A    
O26   C76   S    
C126  H140  S    
Cu3   O22   S    
C120  H127  S    
C99   H78   S    
C126  H141  S    
C40   H8    S    
Cu5   O4    S    
C105  H91   S    
C61   C63   A    
C106  H94   S    
C46   H58   S    
C92   H62   S    
C127  H144  S    
C121  C122  S    
C104  H89   S    
C26   O40   S    
C9    C11   A    
C40   C42   A    
C86   H46   S    
C116  H117  S    
C31   O15   A    
C92   H61   S    
O39   C115  S    
C88   H51   S    
C123  H134  S    
C74   H18   S    
C7    C33   S    
C131  H152  S    
C10   C20   A    
C101  C102  S    
C51   C53   A    
C119  H125  S    
C122  H132  S    
C128  C129  S    
Cu6   O7    S    
C61   O31   S    
C6    O38   S    
C8    C34   S    
C101  H83   S    
C113  H111  S    
C109  C110  S    
C95   H69   S    
C34   O20   A    
C29   C37   S    
C9    O41   S    
C24   C72   S    
C75   H20   S    
C76   H22   S    
C21   C25   A    
Cu4   O16   S    
O44   C130  S    
C113  C114  S    
O38   C112  S    
C49   C59   A    
C105  H93   S    
C65   O35   S    
C106  C107  S    
C50   C60   A    
C90   H56   S    
C13   C15   A    
C111  H105  S    
O25   C73   S    
C100  C101  S    
Cu4   O21   S    
C121  H130  S    
O36   C106  S    
C102  H85   S    
C56   C58   A    
C115  H116  S    
C94   H66   S    
C122  C123  S    
C7    C67   A    
C98   C99   S    
C42   H10   S    
C129  H148  S    
C116  C117  S    
O28   C82   S    
C80   C81   S    
C112  C113  S    
C115  C116  S    
C17   C29   A    
Cu1   Cu2   S    
C117  H121  S    
C36   C59   S    
O29   C85   S    
C78   H26   S    
Cu5   Cu6   S    
C57   H11   S    
C79   H30   S    
C37   O5    A    
C25   O39   S    
C97   H73   S    
C65   C67   A    
C82   H36   S    
C83   H39   S    
Cu2   O12   S    
C76   C77   S    
C87   H48   S    
C110  C111  S    
Cu3   O18   S    
C84   H41   S    
C63   O33   S    
C114  H112  S    
Cu6   O24   S    
C32   C54   S    
C56   H6    S    
C81   H34   S    
C108  H99   S    
C96   H72   S    
O33   C97   S    
C23   C71   S    
C83   C84   S    
C15   H3    S    
C100  H80   S    
C5    C7    A    
C6    C8    A    
C124  H136  S    
C94   C95   S    
C3    C71   A    
C122  H131  S    
C119  C120  S    
C118  H122  S    
C81   H35   S    
C98   H75   S    
C4    C72   A    
O37   C109  S    
C58   H12   S    
C74   H17   S    
C4    C6    A    
C20   C22   A    
C25   C27   A    
C91   H60   S    
O41   C121  S    
C13   H1    S    
C45   H57   S    
C109  H102  S    
C85   H43   S    
C15   C17   A    
C125  H138  S    
C19   C21   A    
C4    H14   S    
C131  H153  S    
C3    C5    A    
C132  H156  S    
Cu2   O9    S    
C64   O34   S    
C124  C125  S    
C91   C92   S    
C3    H13   S    
C93   H63   S    
O31   C91   S    
C97   C98   S    
C45   C61   A    
C105  H92   S    
C24   O12   A    
C103  H87   S    
C90   H54   S    
C47   O29   S    
C36   O4    A    
Cu4   O20   S    
C22   C26   A    
C114  H114  S    
C38   O6    A    
C28   O26   S    
C125  C126  S    
C78   H28   S    
C66   C68   A    
C96   H70   S    
C1    C21   S    
C86   H45   S    
C130  H150  S    
C5    O37   S    
C37   O7    A    
C47   C49   A    
C88   H50   S    
C123  H135  S    
C117  H120  S    
C118  C119  S    
C95   C96   S    
Cu6   O3    S    
C103  C104  S    
C82   C83   S    
C69   C71   A    
C73   H15   S    
C74   C75   S    
C48   O30   S    
Cu1   O14   S    
C107  H97   S    
C77   H24   S    
C11   O43   S    
C43   O27   S    
C18   C30   A    
C14   H2    S    
C2    O10   A    
C32   O16   A    
O43   C127  S    
C104  C105  S    
C52   C54   A    
C35   O3    A    
C54   C56   A    
Cu3   O19   S    
C120  H128  S    
Cu1   O1    S    
C99   H77   S    
C95   H68   S    
C126  H142  S    
C128  H146  S    
C40   C52   A    
Cu5   O5    S    
C106  H95   S    
C73   C74   S    
C92   C93   S    
C111  H106  S    
C127  H143  S    
C100  H81   S    
C16   H4    S    
C102  H84   S    
Cu5   O8    S    
C55   C57   A    
C31   C53   S    
C2    O2    A    
C104  H90   S    
C10   C12   A    
C97   H74   S    
C89   H52   S    
C98   H76   S    
C12   C14   A    
C8    C68   A    
C86   C87   S    
C116  H118  S    
C130  C131  S    
C14   C16   A    
C111  H107  S    
C33   O19   A    
C110  H103  S    
O30   C88   S    
C88   C89   S    
C80   H32   S    
C123  H133  S    
C121  H129  S    
C99   H79   S    
C108  H98   S    
Cu4   O17   S    
C26   C28   A    
C119  H124  S    
C28   C30   A    
C124  H137  S    
O34   C100  S    
C77   C78   S    
C89   H53   S    
C17   C19   A    
C18   C20   A    
C101  H82   S    
C113  H110  S    
C16   C18   A    
C32   O18   A    
C68   C70   A    
Cu2   O13   S    
C70   C72   A    
C90   H55   S    
C75   H19   S    
C76   H23   S    
