data_mof_unit_35789.cif
_audit_creation_date              2012-12-11T16:57:20-0500
_audit_creation_method            fapswitch 2.2
_symmetry_space_group_name_H-M    P1
_symmetry_Int_Tables_number       1
_space_group_crystal_system       triclinic
_cell_length_a                    14.451123
_cell_length_b                    16.321977
_cell_length_c                    6.943443
_cell_angle_alpha                 90.050752
_cell_angle_beta                  99.130254
_cell_angle_gamma                 89.936693
_cell_volume                      1617.00461088

loop_
_atom_site_label
_atom_site_type_symbol
_atom_type_description
_atom_site_fract_x
_atom_site_fract_y
_atom_site_fract_z
_atom_type_partial_charge
O1    O     O_R   0.584990 0.413650 0.534420 -0.543542
O2    O     O_R   0.584990 0.586350 0.534420 -0.543149
O3    O     O_R   0.596190 0.585230 0.208380 -0.534661
O4    O     O_R   0.596190 0.414770 0.208380 -0.514852
O5    O     O_R   0.415010 0.586420 0.976930 -0.541780
O6    O     O_R   0.415010 0.413580 0.976930 -0.541369
C1    C     C_R   0.618928 0.614356 0.384548 0.704413
C2    C     C_R   0.619626 0.386124 0.384889 0.718928
O7    O     O_3   0.440560 0.500000 0.319140 -0.375493
V1    V     V_3+5 0.511030 0.500000 0.068070 1.463478
O8    O     O_R   0.403810 0.414840 0.643540 -0.546328
O9    O     O_R   0.403810 0.585160 0.643540 -0.545811
C3    C     C_R   0.382413 0.385867 0.805646 0.748583
C4    C     C_R   0.380874 0.613202 0.805535 0.741292
V2    V     V_3+5 0.488970 0.500000 0.560620 1.437349
O10   O     O_3   0.559440 0.500000 0.859420 -0.353202
H1    H     H_    0.323956 0.699569 0.096324 0.152987
H2    H     H_    0.312289 0.309957 0.096452 0.156258
C5    C     C_2   0.305833 0.675440 0.793855 -0.318153
C6    C     C_2   0.318890 0.314869 0.794673 -0.311738
C7    C     C_2   0.282224 0.711864 0.954793 -0.194300
C8    C     C_2   0.291709 0.281096 0.955022 -0.192093
H3    H     H_    0.244027 0.810919 0.238453 0.144344
H4    H     H_    0.211395 0.215717 0.240184 0.162513
C9    C     C_2   0.192910 0.816794 0.106382 -0.381334
C10   C     C_2   0.196740 0.180398 0.106157 -0.381525
C11   C     C_2   0.200495 0.768261 0.949317 0.036727
C12   C     C_2   0.235186 0.204450 0.947592 0.025285
H5    H     H_    0.267955 0.689118 0.650114 0.166524
H6    H     H_    0.297522 0.288442 0.651341 0.153486
C13   C     C_R   0.755272 0.689998 0.586447 0.111420
C14   C     C_R   0.756055 0.310684 0.589268 0.094066
C15   C     C_R   0.689592 0.682172 0.414966 -0.111992
C16   C     C_R   0.691423 0.319045 0.415744 -0.124586
C17   C     C_R   0.695848 0.740773 0.267278 -0.114391
C18   C     C_R   0.698808 0.261283 0.266830 -0.144173
H7    H     H_    0.648096 0.737513 0.130949 0.109663
H8    H     H_    0.651594 0.264982 0.129932 0.126713
C19   C     C_R   0.760291 0.806956 0.297978 -0.168645
C20   C     C_R   0.762961 0.194997 0.297130 -0.194615
H9    H     H_    0.761074 0.851762 0.183658 0.117941
H10   H     H_    0.764460 0.150773 0.181657 0.125834
C21   C     C_R   0.818478 0.818137 0.479542 -0.113490
C22   C     C_R   0.819552 0.182656 0.479724 -0.111189
C23   C     C_R   0.814658 0.757407 0.618556 0.147759
C24   C     C_R   0.814675 0.242212 0.621162 0.147178
C25   C     C_3   0.805030 0.764045 0.827542 -0.445136
C26   C     C_3   0.799893 0.231571 0.826117 -0.476301
C27   C     C_3   0.745623 0.686340 0.798008 -0.224658
C28   C     C_3   0.741575 0.309679 0.798038 -0.233991
H11   H     H_    0.763749 0.819067 0.855233 0.149414
H12   H     H_    0.757113 0.176289 0.843396 0.156315
H13   H     H_    0.873578 0.757903 0.925121 0.220258
H14   H     H_    0.866504 0.235650 0.930856 0.198009
H15   H     H_    0.672429 0.693898 0.825148 0.100458
H16   H     H_    0.666887 0.301337 0.814234 0.116056
O11   O     O_R   0.921430 0.915960 0.371040 -0.544749
O12   O     O_R   0.921430 0.084040 0.371040 -0.537965
O13   O     O_R   0.910450 0.087500 0.697310 -0.547823
O14   O     O_R   0.910450 0.912500 0.697310 -0.541830
O15   O     O_R   0.091710 0.087460 0.928430 -0.533314
O16   O     O_R   0.091710 0.912540 0.928430 -0.531184
C29   C     C_R   0.886559 0.113000 0.518212 0.705223
C30   C     C_R   0.886270 0.887220 0.518099 0.698378
O17   O     O_3   0.065970 0.000000 0.586140 -0.352657
V3    V     V_3+5 0.995640 0.000000 0.837400 1.476935
O18   O     O_R   0.103020 0.915700 0.261710 -0.536145
O19   O     O_R   0.103020 0.084300 0.261710 -0.520754
C31   C     C_R   0.122955 0.884185 0.099567 0.772601
C32   C     C_R   0.127587 0.112291 0.100015 0.782765
V4    V     V_3+5 0.017940 0.000000 0.344880 1.478563
O20   O     O_3   0.947330 1.000000 0.046180 -0.389991
C33   C     C_2   0.124040 0.764730 0.778744 0.807464
O21   O     O_2   0.046070 0.741543 0.801338 -0.571610
O22   O     O_R   0.140608 0.789281 0.594591 -0.669936
H17   H     H_    0.083003 0.783312 0.491237 0.288624
C34   C     C_2   0.226668 0.153333 0.768539 0.804646
O23   O     O_2   0.179886 0.177561 0.617065 -0.567961
O24   O     O_R   0.270324 0.076693 0.775984 -0.668674
H18   H     H_    0.259325 0.047416 0.645512 0.291130
C35   C     C_2   0.797459 0.615101 0.901800 0.860190
O25   O     O_2   0.817315 0.555549 0.809697 -0.536849
O26   O     O_R   0.827882 0.620089 0.102843 -0.662264
H19   H     H_    0.872796 0.574529 0.153731 0.297370
C36   C     C_2   0.790029 0.379475 0.914613 0.882343
O27   O     O_2   0.872625 0.394503 0.909787 -0.530427
O28   O     O_R   0.741053 0.424716 0.034963 -0.643136
H20   H     H_    0.783075 0.461195 0.128611 0.290290

loop_
_geom_bond_atom_site_label_1
_geom_bond_atom_site_label_2
_ccdc_geom_bond_type
O15   C32   A    
O28   H20   S    
O1    C2    A    
C33   O22   S    
C33   O21   D    
O2    C1    A    
O4    C2    A    
C35   O25   D    
C19   H9    S    
C6    H6    S    
C34   O23   D    
C26   H14   S    
C5    C7    D    
H4    C10   S    
O3    C1    A    
O13   V3    S    
C36   O27   D    
O12   V4    S    
V2    O10   S    
C23   C25   S    
C27   C35   S    
C28   C36   S    
O8    V2    S    
O15   V3    S    
V3    O20   S    
C13   C15   A    
O1    V2    S    
O7    V1    S    
C16   C18   A    
C25   H13   S    
C20   H10   S    
C7    C11   S    
O14   V3    S    
C8    C12   S    
C1    C15   S    
C13   C27   S    
C35   O26   S    
C22   C24   A    
C21   C30   S    
C34   O24   S    
C22   C29   S    
C24   C26   S    
O16   V3    S    
C36   O28   S    
C18   C20   A    
C25   C27   S    
C25   H11   S    
C27   H15   S    
C28   H16   S    
O16   C31   A    
O18   C31   A    
C14   C16   A    
C17   C19   A    
O22   H17   S    
C12   C34   S    
O26   H19   S    
O9    V2    S    
C20   C22   A    
C2    C16   S    
O11   V4    S    
O2    V2    S    
C21   C23   A    
C14   C28   S    
O5    C4    A    
C6    C8    D    
C10   C32   S    
O13   C29   A    
C9    C31   S    
O4    V1    S    
C5    H5    S    
O11   C30   A    
O12   C29   A    
C3    C6    S    
C17   H7    S    
H2    C8    S    
C14   C24   A    
C4    C5    S    
O9    C4    A    
O6    V1    S    
C19   C21   A    
C9    C11   D    
C10   C12   D    
O14   C30   A    
C18   H8    S    
O7    V2    S    
O5    V1    S    
O3    V1    S    
O17   V4    S    
O6    C3    A    
O8    C3    A    
O19   V4    S    
C26   C28   S    
C15   C17   A    
O18   V4    S    
H3    C9    S    
H1    C7    S    
O24   H18   S    
C26   H12   S    
V4    O20   S    
O19   C32   A    
O17   V3    S    
C13   C23   A    
V1    O10   S    
C11   C33   S    
