data_mof_unit_15498.cif
_audit_creation_date              2012-12-10T18:10:44-0500
_audit_creation_method            fapswitch 2.2
_symmetry_space_group_name_H-M    P1
_symmetry_Int_Tables_number       1
_space_group_crystal_system       triclinic
_cell_length_a                    12.584037
_cell_length_b                    13.046791
_cell_length_c                    15.725843
_cell_angle_alpha                 90.288911
_cell_angle_beta                  102.211175
_cell_angle_gamma                 83.721166
_cell_volume                      2507.90108313

loop_
_atom_site_label
_atom_site_type_symbol
_atom_type_description
_atom_site_fract_x
_atom_site_fract_y
_atom_site_fract_z
_atom_type_partial_charge
C1    C     C_R   0.441642 0.688783 0.475696 0.894841
C2    C     C_R   0.594082 0.198640 0.500915 -0.071897
C3    C     C_R   0.299068 0.830263 0.413569 -0.214187
C4    C     C_R   0.500211 0.501093 0.661417 0.907607
C5    C     C_R   0.267972 0.932703 0.387763 -0.125451
C6    C     C_R   0.347013 0.000633 0.393968 -0.163540
C7    C     C_R   0.459225 0.965112 0.422471 0.008508
C8    C     C_R   0.490757 0.858005 0.426036 0.009320
C9    C     C_R   0.540743 0.031567 0.450880 0.072348
C10   C     C_R   0.652476 0.991668 0.470153 0.126492
C11   C     C_R   0.682003 0.889010 0.453758 -0.420069
C12   C     C_3   0.420747 0.426025 0.034137 -0.457226
C13   C     C_R   0.601234 0.822907 0.422440 0.490694
C14   C     C_R   0.513486 0.134698 0.468336 -0.238367
C15   C     C_R   0.704626 0.159021 0.518524 -0.210740
C16   C     C_R   0.559876 0.308087 0.508357 0.851160
C17   C     C_R   0.410398 0.792401 0.435875 -0.096508
C18   C     C_R   0.101269 0.316597 0.415683 0.444904
C19   C     C_R   0.799328 0.635609 0.596803 0.044683
C20   C     C_R   0.902406 0.669487 0.612355 -0.290001
C21   C     C_R   0.982893 0.619786 0.573381 -0.192097
C22   C     C_R   0.960413 0.535289 0.518362 0.041995
C23   C     C_3   0.495138 0.505362 0.082196 0.121318
C24   C     C_R   0.853821 0.504339 0.504177 0.175039
C25   C     C_R   0.040449 0.477774 0.480301 -0.136272
C26   C     C_R   0.015477 0.384667 0.436602 -0.061339
C27   C     C_R   0.906550 0.361898 0.414954 0.420631
C28   C     C_R   0.499327 0.499927 0.338450 0.912821
C29   C     C_R   0.827746 0.421864 0.449381 -0.357326
C30   C     C_R   0.146491 0.506454 0.487085 -0.058520
C31   C     C_R   0.202582 0.351684 0.421305 -0.118754
C32   C     C_3   0.416046 0.429643 0.935036 0.356997
C33   C     C_3   0.449928 0.616343 0.942036 -0.521834
C34   C     C_3   0.612836 0.470525 0.069657 -0.600746
C35   C     C_3   0.461651 0.617714 0.042355 0.358185
C36   C     C_1   0.496843 0.501899 0.249206 -0.193740
C37   C     C_3   0.494991 0.507153 0.915957 0.091304
C38   C     C_3   0.267819 0.394197 0.824504 0.068283
C39   C     C_3   0.152737 0.437013 0.777093 -0.300204
C40   C     C_3   0.108237 0.368601 0.701860 -0.960033
C41   C     C_3   0.721358 0.724901 0.349404 0.112427
C42   C     C_3   0.724659 0.639941 0.282515 -0.329683
C43   C     C_3   0.829342 0.635395 0.247415 -1.011216
C44   C     C_3   0.796123 0.292842 0.294600 0.089622
C45   C     C_3   0.614746 0.482532 0.972033 0.294277
C46   C     C_3   0.711324 0.217628 0.295929 -0.313226
C47   C     C_3   0.627262 0.219186 0.210463 -1.008929
C48   C     C_3   0.084986 0.156656 0.469618 0.136135
C49   C     C_3   0.192817 0.145691 0.538372 -0.432670
C50   C     C_3   0.190461 0.067154 0.609277 -0.942588
C51   C     C_3   0.276173 0.636237 0.059009 0.112664
C52   C     C_3   0.184542 0.721517 0.064327 -0.339102
C53   C     C_3   0.074737 0.678473 0.055353 -0.968025
C54   C     C_3   0.652238 0.306324 0.934100 0.106220
C55   C     C_3   0.752666 0.227325 0.940341 -0.317520
C56   C     C_1   0.495385 0.503817 0.173660 -0.042079
C57   C     C_3   0.720965 0.117523 0.931975 -0.987086
C58   C     C_1   0.497720 0.507275 0.825044 -0.020057
C59   C     C_1   0.499817 0.504925 0.750133 -0.198434
C60   C     C_R   0.733719 0.055697 0.503205 -0.171064
H1    H     H_    0.337374 0.436638 0.047559 0.184013
H2    H     H_    0.919965 0.734011 0.654599 0.152733
H3    H     H_    0.497223 0.676060 0.922179 0.143697
H4    H     H_    0.534229 0.659762 0.066761 0.112185
H5    H     H_    0.654139 0.554314 0.968021 0.134220
H6    H     H_    0.640735 0.390743 0.094567 0.210209
H7    H     H_    0.454156 0.346999 0.059668 0.143974
H8    H     H_    0.768236 0.207982 0.542606 0.167346
H9    H     H_    0.819581 0.025992 0.516717 0.133083
H10   H     H_    0.429008 0.166138 0.458489 0.145084
H11   H     H_    0.235995 0.780944 0.416430 0.155344
H12   H     H_    0.443405 0.350633 0.916068 0.021247
H13   H     H_    0.264139 0.317108 0.853189 0.136415
H14   H     H_    0.321974 0.386073 0.776740 0.150245
H15   H     H_    0.097231 0.442252 0.823714 0.222475
H16   H     H_    0.154518 0.515812 0.751188 0.227652
H17   H     H_    0.158215 0.368928 0.651576 0.266402
H18   H     H_    0.022525 0.398490 0.671951 0.274455
H19   H     H_    0.109420 0.288237 0.725322 0.260720
H20   H     H_    0.794340 0.708131 0.403230 0.148448
H21   H     H_    0.725638 0.798842 0.315569 0.132013
H22   H     H_    0.723002 0.564146 0.312878 0.244437
H23   H     H_    0.671864 0.519113 0.108638 0.171130
H24   H     H_    0.652575 0.654757 0.227828 0.224288
H25   H     H_    0.832351 0.708597 0.212687 0.271313
H26   H     H_    0.832029 0.570937 0.201364 0.266040
H27   H     H_    0.902353 0.621845 0.301552 0.274311
H28   H     H_    0.832414 0.277979 0.236546 0.173175
H29   H     H_    0.755033 0.373438 0.287409 0.110522
H30   H     H_    0.753361 0.138023 0.308934 0.242451
H31   H     H_    0.667980 0.238742 0.349031 0.218163
H32   H     H_    0.577581 0.295231 0.200387 0.268788
H33   H     H_    0.571619 0.159370 0.213058 0.275931
H34   H     H_    0.768177 0.861637 0.463969 0.143436
H35   H     H_    0.668161 0.202938 0.155019 0.263366
H36   H     H_    0.065422 0.078566 0.447663 0.161289
H37   H     H_    0.017132 0.189434 0.500317 0.156988
H38   H     H_    0.262341 0.121256 0.507474 0.235296
H39   H     H_    0.206826 0.221093 0.569225 0.214625
H40   H     H_    0.121787 0.090770 0.641971 0.257834
H41   H     H_    0.268435 0.062444 0.658569 0.268450
H42   H     H_    0.180860 0.989687 0.580913 0.264980
H43   H     H_    0.736060 0.674806 0.626008 0.135649
H44   H     H_    0.747024 0.400220 0.433681 0.220528
H45   H     H_    0.318749 0.080242 0.375868 0.139650
H46   H     H_    0.364033 0.637812 0.907192 0.235437
H47   H     H_    0.280601 0.579724 0.112540 0.154417
H48   H     H_    0.254913 0.599327 0.994948 0.186045
H49   H     H_    0.203991 0.760450 0.127920 0.238707
H50   H     H_    0.178271 0.779654 0.011551 0.225522
H51   H     H_    0.052723 0.640530 0.991604 0.268717
H52   H     H_    0.010025 0.742297 0.059305 0.267570
H53   H     H_    0.078500 0.621639 0.108574 0.270497
H54   H     H_    0.597731 0.299495 0.869252 0.137348
H55   H     H_    0.610095 0.287151 0.986181 0.121510
H56   H     H_    0.182155 0.960811 0.367558 0.149664
H57   H     H_    0.795829 0.243024 0.887779 0.230937
H58   H     H_    0.809523 0.234397 0.004121 0.223394
H59   H     H_    0.679853 0.099376 0.985140 0.264806
H60   H     H_    0.795616 0.062171 0.936511 0.270186
H61   H     H_    0.665144 0.108264 0.868163 0.266047
H62   H     H_    0.268257 0.301681 0.403292 0.151785
H63   H     H_    0.171707 0.576445 0.517546 0.140744
H64   H     H_    0.062155 0.647529 0.589225 0.137866
N1    N     N_R   0.222200 0.444690 0.455710 -0.124469
N2    N     N_R   0.776960 0.554780 0.543830 -0.106371
O1    O     O_R   0.366740 0.627160 0.478850 -0.630046
O2    O     O_3   0.624802 0.728509 0.383387 -0.608492
O3    O     O_3   0.881120 0.273174 0.369461 -0.624983
O4    O     O_3   0.091188 0.214328 0.394609 -0.624144
O5    O     O_3   0.375801 0.680080 0.070605 -0.634049
O6    O     O_3   0.686663 0.406043 0.941175 -0.625218
O7    O     O_R   0.544830 0.662520 0.507140 -0.586137
O8    O     O_R   0.410920 0.482310 0.608710 -0.611585
O9    O     O_R   0.589010 0.517670 0.637000 -0.607660
O10   O     O_R   0.455170 0.337480 0.492860 -0.626143
O11   O     O_R   0.633260 0.372840 0.521150 -0.638687
O12   O     O_R   0.410990 0.482330 0.363000 -0.610293
O13   O     O_R   0.589080 0.517690 0.391290 -0.614867
O14   O     O_3   0.306649 0.462556 0.890981 -0.657094
Zn1   Zn    Zn3+2 0.381090 0.476390 0.481110 0.931574
Zn2   Zn    Zn3+2 0.618910 0.523610 0.518890 0.954918

loop_
_geom_bond_atom_site_label_1
_geom_bond_atom_site_label_2
_ccdc_geom_bond_type
O11   Zn2   S    
C8    C13   A    
C27   C29   A    
C41   C42   S    
C3    H11   S    
C16   O11   A    
C42   H22   S    
C34   H6    S    
C41   H20   S    
C23   C56   S    
C32   H12   S    
C48   H37   S    
C12   C23   S    
O7    Zn2   S    
C52   H49   S    
C32   O14   S    
O1    Zn1   S    
C38   C39   S    
O13   Zn2   S    
C15   C60   A    
C24   C29   A    
C49   H38   S    
C46   C47   S    
C13   O2    S    
C19   H43   S    
O9    Zn2   S    
C19   C20   A    
C44   C46   S    
C51   H48   S    
C22   C25   A    
C18   C26   A    
C35   H4    S    
C39   H15   S    
C2    C16   S    
C9    C10   A    
C37   C58   S    
C57   H59   S    
C53   H51   S    
C30   N1    A    
C21   C22   A    
C12   C32   S    
C24   N2    A    
C14   H10   S    
C41   O2    S    
C48   O4    S    
C28   O13   A    
C47   H32   S    
C1    O7    A    
C25   C26   A    
C53   H53   S    
C47   H33   S    
C12   H7    S    
C51   C52   S    
C43   H25   S    
C7    C8    A    
C28   O12   A    
N1    Zn1   S    
C39   C40   S    
C51   O5    S    
C46   H31   S    
C58   C59   T    
C32   C37   S    
N2    Zn2   S    
C33   C37   S    
C29   H44   S    
C10   C60   A    
C9    C14   A    
O10   Zn1   S    
C36   C56   T    
C49   H39   S    
C52   H50   S    
C33   H3    S    
C23   C34   S    
C41   H21   S    
C54   H55   S    
C26   C27   A    
C40   H19   S    
C42   H24   S    
C34   C45   S    
C39   H16   S    
C30   H63   S    
C2    C15   A    
C45   O6    S    
C57   H60   S    
C53   H52   S    
C48   C49   S    
C50   H42   S    
C23   C35   S    
C4    O9    A    
C5    H56   S    
C45   H5    S    
C27   O3    S    
C40   H18   S    
C18   O4    S    
C34   H23   S    
C31   N1    A    
C37   C45   S    
C16   O10   A    
C35   O5    S    
C52   C53   S    
C11   H34   S    
C4    O8    A    
C55   H57   S    
C25   C30   A    
C7    C9    A    
C54   C55   S    
C38   O14   S    
C48   H36   S    
C43   H26   S    
C50   H40   S    
C33   H46   S    
C1    O1    A    
C31   H62   S    
C3    C5    A    
O12   Zn1   S    
C6    C7    A    
C46   H30   S    
C54   O6    S    
C19   N2    A    
C1    C17   S    
C8    C17   A    
C43   H27   S    
C21   H64   S    
C55   C57   S    
C44   O3    S    
O8    Zn1   S    
C12   H1    S    
C11   C13   A    
C5    C6    A    
C60   H9    S    
C15   H8    S    
C54   H54   S    
C4    C59   S    
C33   C35   S    
C6    H45   S    
C38   H14   S    
C3    C17   A    
C22   C24   A    
C20   H2    S    
C2    C14   A    
C10   C11   A    
C57   H61   S    
C20   C21   A    
C28   C36   S    
C50   H41   S    
C51   H47   S    
C49   C50   S    
C42   C43   S    
C47   H35   S    
C40   H17   S    
C18   C31   A    
C44   H28   S    
C55   H58   S    
C44   H29   S    
C38   H13   S    
