data_mof_unit_42696.cif
_audit_creation_date              2012-12-10T20:42:37-0500
_audit_creation_method            fapswitch 2.2
_symmetry_space_group_name_H-M    P1
_symmetry_Int_Tables_number       1
_space_group_crystal_system       triclinic
_cell_length_a                    8.893698
_cell_length_b                    10.69933
_cell_length_c                    9.936129
_cell_angle_alpha                 89.391319
_cell_angle_beta                  90.490725
_cell_angle_gamma                 90.929657
_cell_volume                      945.277245872

loop_
_atom_site_label
_atom_site_type_symbol
_atom_type_description
_atom_site_fract_x
_atom_site_fract_y
_atom_site_fract_z
_atom_type_partial_charge
C1    C     C_R   0.508723 0.259939 0.500175 0.897240
C2    C     C_R   0.568800 0.934843 0.379178 -0.275859
C3    C     C_R   0.540324 0.870339 0.499650 -0.129372
C4    C     C_R   0.548655 0.933730 0.620744 0.036222
C5    C     C_3   0.455104 0.919629 0.744847 -0.112212
C6    C     C_3   0.453902 0.063018 0.746343 0.174205
C7    C     C_R   0.370301 0.478657 0.070014 0.122054
C8    C     C_R   0.619940 0.545703 0.073504 0.158131
C9    C     C_R   0.621431 0.544080 0.930018 0.078412
C10   C     C_R   0.369603 0.481147 0.928510 0.144012
C11   C     C_3   0.261261 0.374165 0.920691 -0.477134
C12   C     C_R   0.218968 0.499841 0.499639 0.933026
C13   C     C_3   0.266608 0.367060 0.073913 -0.125058
C14   C     C_R   0.508014 0.739633 0.499539 0.879394
C15   C     C_R   0.781048 0.500178 0.500376 0.926054
C16   C     C_1   0.065475 0.499964 0.499527 -0.226702
C17   C     C_1   0.934527 0.500077 0.500541 -0.209523
C18   C     C_R   0.548247 0.061854 0.620955 -0.008069
C19   C     C_R   0.541069 0.128590 0.499404 -0.122325
C20   C     C_R   0.570396 0.064933 0.377828 0.092249
H1    H     H_    0.309687 0.292581 0.872842 0.217192
H2    H     H_    0.578998 0.885692 0.284925 0.169282
N1    N     N_R   0.499010 0.499140 0.142800 -0.127500
N2    N     N_R   0.499010 0.499180 0.857150 -0.126970
O1    O     O_R   0.500020 0.316790 0.614690 -0.616532
O2    O     O_R   0.500000 0.316760 0.385350 -0.596190
O3    O     O_R   0.285350 0.500020 0.614650 -0.605188
O4    O     O_R   0.285340 0.499980 0.385310 -0.626935
O5    O     O_R   0.500000 0.683240 0.614650 -0.612264
O6    O     O_R   0.499980 0.683210 0.385310 -0.615151
O7    O     O_R   0.714660 0.500020 0.614690 -0.650089
O8    O     O_R   0.714650 0.499980 0.385350 -0.587823
Zn1   Zn    Zn3+2 0.500010 0.500020 0.653130 0.932810
Zn2   Zn    Zn3+2 0.499990 0.499980 0.346870 0.956886
N3    N     N_3   0.592515 0.129917 0.252370 -0.423396
H3    H     H_    0.696738 0.104497 0.214215 0.179986
H4    H     H_    0.509290 0.099801 0.184566 0.180425
N4    N     N_3   0.119703 0.392063 0.132596 -0.440337
H5    H     H_    0.121032 0.360604 0.232465 0.211686
H6    H     H_    0.100147 0.488219 0.133622 0.199398
H7    H     H_    0.319720 0.280865 0.114572 0.175294
H8    H     H_    0.343686 0.874218 0.725278 0.152539
N5    N     N_3   0.536343 0.858961 0.856137 -0.437092
H9    H     H_    0.487923 0.885188 0.946878 0.194208
H10   H     H_    0.649974 0.885645 0.857664 0.185159
N6    N     N_3   0.303094 0.112963 0.723638 -0.455758
H11   H     H_    0.235475 0.083917 0.804090 0.180562
H12   H     H_    0.255112 0.074399 0.636592 0.163856
N7    N     N_3   0.531642 0.121080 0.861625 -0.466040
H13   H     H_    0.643626 0.093019 0.865850 0.167632
H14   H     H_    0.538655 0.217352 0.844527 0.216336
N8    N     N_3   0.744337 0.599119 0.145832 -0.388165
H15   H     H_    0.757776 0.692358 0.115057 0.167519
H16   H     H_    0.841101 0.551027 0.120245 0.182483
N9    N     N_3   0.752330 0.593728 0.865210 -0.483967
H17   H     H_    0.720774 0.655279 0.788276 0.245307
H18   H     H_    0.816001 0.519812 0.830477 0.213559
H19   H     H_    0.150960 0.402951 0.877936 0.212531

loop_
_geom_bond_atom_site_label_1
_geom_bond_atom_site_label_2
_ccdc_geom_bond_type
C2    H2    S    
C7    C10   A    
C1    O1    A    
N5    H9    S    
O7    Zn1   S    
C9    N2    A    
C15   O7    A    
C9    N9    S    
C11   H19   S    
N5    H10   S    
C11   H1    S    
C8    N8    S    
N2    Zn1   S    
N9    H17   S    
N1    Zn2   S    
C4    C18   A    
C13   H7    S    
C2    C3    A    
C5    N5    S    
O4    Zn2   S    
C15   O8    A    
C12   C16   S    
O3    Zn1   S    
N4    H6    S    
C11   C13   S    
C13   N4    S    
N4    H5    S    
C3    C14   S    
C14   O6    A    
C7    N1    A    
C5    C6    S    
N3    H4    S    
N8    H16   S    
C18   C19   A    
N9    H18   S    
C6    N7    S    
C6    N6    S    
C1    O2    A    
C6    C18   S    
N6    H12   S    
C1    C19   S    
C16   C17   T    
C10   C11   S    
O6    Zn2   S    
C14   O5    A    
C2    C20   A    
C3    C4    A    
O5    Zn1   S    
C7    C13   S    
C8    N1    A    
N8    H15   S    
C12   O4    A    
C5    H8    S    
N7    H13   S    
C15   C17   S    
N6    H11   S    
C8    C9    A    
C12   O3    A    
C10   N2    A    
C20   N3    S    
O2    Zn2   S    
C19   C20   A    
O1    Zn1   S    
C4    C5    S    
N7    H14   S    
N3    H3    S    
O8    Zn2   S    
