data_mof_unit_10288.cif
_audit_creation_date              2012-12-10T17:54:28-0500
_audit_creation_method            fapswitch 2.2
_symmetry_space_group_name_H-M    P1
_symmetry_Int_Tables_number       1
_space_group_crystal_system       triclinic
_cell_length_a                    27.741639
_cell_length_b                    10.720889
_cell_length_c                    9.870946
_cell_angle_alpha                 89.165368
_cell_angle_beta                  89.954513
_cell_angle_gamma                 91.75094
_cell_volume                      2934.08339596

loop_
_atom_site_label
_atom_site_type_symbol
_atom_type_description
_atom_site_fract_x
_atom_site_fract_y
_atom_site_fract_z
_atom_type_partial_charge
C1    C     C_R   0.502827 0.259738 0.502074 0.875476
C2    C     C_R   0.973045 0.383008 0.474322 0.045581
C3    C     C_R   0.976081 0.607900 0.526730 0.046338
C4    C     C_R   0.406052 0.499213 0.500076 0.851914
C5    C     C_R   0.949346 0.495783 0.500402 0.071131
C6    C     C_R   0.944723 0.275904 0.440663 -0.215978
C7    C     C_R   0.894798 0.278190 0.438694 -0.134545
C8    C     C_R   0.871205 0.387263 0.469477 -0.022258
C9    C     C_R   0.898282 0.496459 0.500154 -0.051459
C10   C     C_R   0.874169 0.606336 0.530590 -0.021319
C11   C     C_R   0.823743 0.604910 0.529909 0.504569
C12   C     C_R   0.277819 0.482636 0.378741 -0.102835
C13   C     C_R   0.820830 0.390031 0.469726 0.505127
C14   C     C_R   0.722020 0.494048 0.377037 -0.099406
C15   C     C_R   0.671957 0.494829 0.376884 -0.213297
C16   C     C_R   0.494913 0.738802 0.499593 0.893467
C17   C     C_R   0.672054 0.504204 0.622780 -0.213396
C18   C     C_R   0.722116 0.503605 0.622530 -0.098993
C19   C     C_R   0.747047 0.498446 0.499764 0.319500
C20   C     C_R   0.024025 0.381074 0.481538 0.046854
C21   C     C_R   0.050779 0.494493 0.500830 0.070757
C22   C     C_R   0.027097 0.608543 0.519915 0.046311
C23   C     C_R   0.252999 0.492439 0.501139 0.324464
C24   C     C_R   0.049389 0.269053 0.471163 -0.215410
C25   C     C_R   0.105407 0.718385 0.528657 -0.135233
C26   C     C_R   0.950660 0.715693 0.560209 -0.216412
C27   C     C_R   0.900694 0.714733 0.561666 -0.136810
C28   C     C_R   0.593961 0.500172 0.499959 0.885023
C29   C     C_R   0.055476 0.719916 0.530423 -0.215235
C30   C     C_R   0.506713 0.106496 0.762752 -0.161068
C31   C     C_R   0.490242 0.042773 0.878850 -0.145129
C32   C     C_R   0.465041 0.929577 0.866953 -0.152633
C33   C     C_R   0.460713 0.874500 0.740455 -0.145252
C34   C     C_R   0.101841 0.493875 0.501003 -0.051831
C35   C     C_R   0.481516 0.933280 0.623841 0.099197
C36   C     C_R   0.497813 0.057506 0.631813 0.097207
C37   C     C_R   0.504347 0.125648 0.507858 -0.119417
C38   C     C_R   0.504653 0.064436 0.383772 -0.212766
C39   C     C_R   0.498529 0.937522 0.380579 -0.209170
C40   C     C_R   0.176367 0.382601 0.487146 0.503682
C41   C     C_R   0.488524 0.871133 0.500314 -0.127994
C42   C     C_R   0.436135 0.337299 0.142898 -0.177183
C43   C     C_R   0.404530 0.257906 0.073553 -0.211520
C44   C     C_R   0.404472 0.258336 0.933375 -0.178535
C45   C     C_R   0.125928 0.381036 0.486648 -0.020734
C46   C     C_R   0.436147 0.337835 0.861830 -0.167751
C47   C     C_R   0.468514 0.419938 0.928785 0.149206
C48   C     C_R   0.468524 0.419847 0.073640 0.170726
C49   C     C_R   0.529975 0.576962 0.070344 -0.127359
C50   C     C_R   0.529961 0.576924 0.926940 -0.118742
C51   C     C_R   0.179308 0.603419 0.515205 0.504780
C52   C     C_R   0.278073 0.503704 0.623242 -0.101986
C53   C     C_R   0.328153 0.505578 0.623120 -0.222948
C54   C     C_R   0.327909 0.484928 0.378143 -0.219888
C55   C     C_R   0.099355 0.269373 0.473282 -0.137318
C56   C     C_R   0.128947 0.606116 0.515487 -0.022205
C57   C     C_R   0.353401 0.496756 0.500402 -0.036529
C58   C     C_R   0.646629 0.499811 0.499861 -0.045676
H1    H     H_    0.346568 0.477363 0.282320 0.166063
H2    H     H_    0.527823 0.191132 0.778840 0.173362
H3    H     H_    0.496258 0.082569 0.977841 0.146161
H4    H     H_    0.258223 0.474040 0.284331 0.138369
H5    H     H_    0.450328 0.882374 0.956165 0.142085
H6    H     H_    0.502652 0.891447 0.284433 0.169513
H7    H     H_    0.554416 0.639739 0.123429 0.148824
H8    H     H_    0.433984 0.330976 0.250315 0.209958
H9    H     H_    0.380028 0.195429 0.129117 0.164385
H10   H     H_    0.380075 0.195852 0.879548 0.165439
H11   H     H_    0.434569 0.331045 0.754541 0.211960
H12   H     H_    0.258670 0.511208 0.717872 0.138131
H13   H     H_    0.554381 0.639717 0.871703 0.156134
H14   H     H_    0.117091 0.181179 0.464531 0.189520
H15   H     H_    0.653184 0.491364 0.280786 0.162784
H16   H     H_    0.741449 0.490309 0.282054 0.140262
H17   H     H_    0.874732 0.193614 0.412664 0.192974
H18   H     H_    0.959947 0.188878 0.412280 0.142173
H19   H     H_    0.031765 0.178522 0.464102 0.138874
H20   H     H_    0.347003 0.514490 0.718713 0.165386
H21   H     H_    0.441010 0.786059 0.734838 0.160387
H22   H     H_    0.125517 0.806136 0.537481 0.191974
H23   H     H_    0.968216 0.802265 0.588855 0.141493
H24   H     H_    0.653361 0.508169 0.718920 0.161831
H25   H     H_    0.882920 0.799798 0.587560 0.191312
H26   H     H_    0.741614 0.506840 0.717478 0.140176
H27   H     H_    0.040319 0.810858 0.537271 0.139333
H28   H     H_    0.510372 0.114274 0.288503 0.171938
N1    N     N_R   0.201710 0.492749 0.501242 -0.358810
N2    N     N_R   0.798377 0.497785 0.499743 -0.358182
N3    N     N_R   0.499540 0.498800 0.142780 -0.122045
N4    N     N_R   0.499520 0.498720 0.857170 -0.127656
O1    O     O_R   0.500000 0.316780 0.614690 -0.653777
O2    O     O_R   0.571250 0.499990 0.614680 -0.620157
O3    O     O_R   0.571240 0.499970 0.385350 -0.617745
O4    O     O_2   0.200002 0.275194 0.474172 -0.553575
O5    O     O_2   0.794392 0.285900 0.441240 -0.551303
O6    O     O_2   0.205797 0.710321 0.528187 -0.551414
O7    O     O_2   0.800141 0.709711 0.558184 -0.551975
O8    O     O_R   0.500000 0.316750 0.385360 -0.638431
O9    O     O_R   0.428760 0.500030 0.614650 -0.647977
O10   O     O_R   0.428750 0.500010 0.385320 -0.639136
O11   O     O_R   0.500000 0.683250 0.614640 -0.622830
O12   O     O_R   0.500000 0.683220 0.385310 -0.617941
Zn1   Zn    Zn3+2 0.500000 0.500020 0.653130 0.928016
Zn2   Zn    Zn3+2 0.500000 0.499980 0.346870 0.939046

loop_
_geom_bond_atom_site_label_1
_geom_bond_atom_site_label_2
_ccdc_geom_bond_type
C10   C27   A    
O9    Zn1   S    
C34   C56   A    
C8    C13   A    
C22   C29   A    
C25   H22   S    
C31   H3    S    
C35   C36   A    
C25   C56   A    
C43   C44   A    
C7    C8    A    
C39   C41   A    
C31   C32   A    
C24   C55   A    
C39   H6    S    
C12   C23   A    
C26   C27   A    
C49   H7    S    
C38   H28   S    
C14   H16   S    
C40   N1    A    
C36   C37   A    
C17   H24   S    
C30   C31   A    
O10   Zn2   S    
C18   C19   A    
C46   H11   S    
O2    Zn1   S    
C50   N4    A    
C20   C24   A    
C8    C9    A    
C30   H2    S    
C4    C57   S    
C18   H26   S    
C40   O4    S    
C9    C10   A    
C29   H27   S    
C55   H14   S    
C1    C37   S    
C17   C58   A    
C1    O1    A    
C23   N1    S    
C21   C22   A    
C2    C6    A    
O3    Zn2   S    
C44   C46   A    
C54   H1    S    
C25   C29   A    
C40   C45   A    
C2    C20   A    
C19   N2    S    
C51   N1    A    
C53   C57   A    
C33   H21   S    
C7    H17   S    
C21   C34   A    
C28   O3    A    
C50   H13   S    
C43   H9    S    
C5    C9    A    
C37   C38   A    
O1    Zn1   S    
C15   C58   A    
C12   H4    S    
C24   H19   S    
C47   C48   A    
C11   N2    A    
C17   C18   A    
C28   O2    A    
C34   C45   A    
C42   C48   A    
O12   Zn2   S    
C16   O12   A    
C15   H15   S    
C13   O5    S    
C26   H23   S    
C48   N3    A    
C4    O10   A    
N3    Zn2   S    
C47   N4    A    
C44   H10   S    
C2    C5    A    
C42   C43   A    
C52   C53   A    
C46   C47   A    
C14   C19   A    
C3    C26   A    
C51   C56   A    
C32   H5    S    
C49   N3    A    
C3    C5    A    
C1    O8    A    
C6    H18   S    
C6    C7    A    
C28   C58   S    
C51   O6    S    
C30   C36   A    
C11   O7    S    
C32   C33   A    
C27   H25   S    
C53   H20   S    
C23   C52   A    
C38   C39   A    
O8    Zn2   S    
C13   N2    A    
C33   C35   A    
C35   C41   A    
N4    Zn1   S    
C52   H12   S    
C10   C11   A    
C16   O11   A    
C20   C21   A    
C45   C55   A    
O11   Zn1   S    
C49   C50   A    
C4    O9    A    
C42   H8    S    
C14   C15   A    
C3    C22   A    
C16   C41   S    
C12   C54   A    
C54   C57   A    
