data_mof_unit_18361.cif
_audit_creation_date              2012-12-10T18:42:35-0500
_audit_creation_method            fapswitch 2.2
_symmetry_space_group_name_H-M    P1
_symmetry_Int_Tables_number       1
_space_group_crystal_system       triclinic
_cell_length_a                    8.69909
_cell_length_b                    10.592164
_cell_length_c                    9.890517
_cell_angle_alpha                 91.989455
_cell_angle_beta                  98.911492
_cell_angle_gamma                 90.296336
_cell_volume                      899.738938999

loop_
_atom_site_label
_atom_site_type_symbol
_atom_type_description
_atom_site_fract_x
_atom_site_fract_y
_atom_site_fract_z
_atom_type_partial_charge
C1    C     C_R   0.501518 0.260555 0.497995 1.004892
C2    C     C_R   0.498473 0.739445 0.502004 1.004899
C3    C     C_R   0.201471 0.498817 0.464021 0.902129
C4    C     C_R   0.798530 0.501177 0.535978 0.902147
C5    C     C_2   0.036747 0.508865 0.445281 0.212518
C6    C     C_2   0.963254 0.491118 0.554716 0.212497
C7    C     C_R   0.637723 0.065033 0.483562 0.494692
C8    C     C_R   0.362263 0.934968 0.516439 0.494642
C9    C     C_R   0.641174 0.934729 0.494962 -0.008947
C10   C     C_R   0.358814 0.065273 0.505041 -0.008941
C11   C     C_R   0.501653 0.872152 0.506973 -0.263258
C12   C     C_R   0.498335 0.127849 0.493029 -0.263238
C13   C     C_R   0.573894 0.593437 0.086840 -0.118409
C14   C     C_R   0.426105 0.406562 0.913161 -0.118437
C15   C     C_R   0.575470 0.593963 0.943680 0.219445
C16   C     C_R   0.424530 0.406037 0.056321 0.219438
H1    H     H_    0.632768 0.667541 0.153821 0.168965
H2    H     H_    0.367235 0.332456 0.846182 0.168971
N1    N     N_R   0.499960 0.499970 0.857200 -0.099331
N2    N     N_R   0.500040 0.500030 0.142800 -0.099336
O1    O     O_R   0.499990 0.316750 0.614620 -0.619875
O2    O     O_R   0.500010 0.683250 0.385380 -0.619863
O3    O     O_R   0.499990 0.316780 0.385290 -0.636625
O4    O     O_R   0.500010 0.683220 0.614710 -0.636646
O5    O     O_R   0.271750 0.499990 0.587840 -0.582427
O6    O     O_R   0.728250 0.500010 0.412160 -0.582409
O7    O     O_R   0.271750 0.500010 0.358510 -0.630141
O8    O     O_R   0.728250 0.499990 0.641490 -0.630119
Zn1   Zn    Zn3+2 0.500000 0.499980 0.653120 0.953299
Zn2   Zn    Zn3+2 0.500000 0.500020 0.346880 0.953308
O9    O     O_3   0.961965 0.560962 0.325201 -0.607390
C17   C     C_3   0.968678 0.478203 0.210753 -0.235236
H3    H     H_    0.989105 0.377612 0.237077 0.108554
H4    H     H_    0.059718 0.511368 0.152708 0.182893
H5    H     H_    0.856285 0.481044 0.141162 0.178347
O10   O     O_3   0.038035 0.439010 0.674790 -0.607402
C18   C     C_3   0.031310 0.521751 0.789252 -0.235227
H6    H     H_    0.940277 0.488561 0.847297 0.182886
H7    H     H_    0.010864 0.622348 0.762946 0.108535
H8    H     H_    0.143708 0.518913 0.858837 0.178348
O11   O     O_3   0.771816 0.133032 0.473801 -0.606185
C19   C     C_3   0.790547 0.135056 0.334654 -0.329944
H9    H     H_    0.896808 0.190555 0.326947 0.181821
H10   H     H_    0.691349 0.181595 0.271794 0.178586
H11   H     H_    0.806164 0.038510 0.291324 0.174323
O12   O     O_3   0.228162 0.866969 0.526174 -0.606194
C20   C     C_3   0.209425 0.864911 0.665316 -0.329752
H12   H     H_    0.193771 0.961480 0.708660 0.174304
H13   H     H_    0.308667 0.818368 0.728164 0.178584
H14   H     H_    0.103144 0.809363 0.673014 0.181765
C21   C     C_3   0.791373 0.862445 0.497449 -0.799475
H15   H     H_    0.784151 0.799306 0.404671 0.252768
H16   H     H_    0.894050 0.925360 0.501249 0.285798
H17   H     H_    0.811569 0.804467 0.589841 0.199966
C22   C     C_3   0.208614 0.137558 0.502547 -0.799477
H18   H     H_    0.215840 0.200713 0.595311 0.252770
H19   H     H_    0.188413 0.195518 0.410141 0.199965
H20   H     H_    0.105936 0.074645 0.498766 0.285798
C23   C     C_3   0.659687 0.700966 0.890358 -0.871631
H21   H     H_    0.730766 0.666709 0.813804 0.261175
H22   H     H_    0.574854 0.771900 0.846454 0.244113
H23   H     H_    0.740863 0.749939 0.973773 0.204541
C24   C     C_3   0.340329 0.299031 0.109650 -0.871634
H24   H     H_    0.425176 0.228064 0.153470 0.244076
H25   H     H_    0.269347 0.333271 0.186292 0.261242
H26   H     H_    0.259060 0.250113 0.026250 0.204546

loop_
_geom_bond_atom_site_label_1
_geom_bond_atom_site_label_2
_ccdc_geom_bond_type
O1    Zn1   S    
C2    O2    A    
C4    O6    A    
C22   H18   S    
C24   H25   S    
C1    O1    A    
C18   H6    S    
C16   C24   S    
C20   H14   S    
O11   C19   S    
C14   H2    S    
C20   H12   S    
C9    C21   S    
C13   C15   A    
C13   H1    S    
C16   N2    A    
C21   H17   S    
C17   H3    S    
C3    O7    A    
C24   H26   S    
C23   H21   S    
C20   H13   S    
N2    Zn2   S    
O7    Zn2   S    
C15   N1    A    
C10   C22   S    
C9    C11   A    
C5    C6    D    
C1    C12   S    
C10   C12   A    
C8    C11   A    
C2    C11   S    
C4    C6    S    
O10   C18   S    
C4    O8    A    
C6    O10   S    
C1    O3    A    
C18   H8    S    
C8    O12   S    
C22   H19   S    
C2    O4    A    
C7    C12   A    
C18   H7    S    
C14   C16   A    
C23   H22   S    
C19   H9    S    
C21   H16   S    
C24   H24   S    
N1    Zn1   S    
C17   H5    S    
C3    O5    A    
C21   H15   S    
O3    Zn2   S    
O5    Zn1   S    
C8    C10   A    
C22   H20   S    
C7    C9    A    
O12   C20   S    
O8    Zn1   S    
C23   H23   S    
O2    Zn2   S    
C13   N2    A    
C3    C5    S    
O4    Zn1   S    
C15   C23   S    
C14   N1    A    
C19   H11   S    
C19   H10   S    
O9    C17   S    
C7    O11   S    
C5    O9    S    
O6    Zn2   S    
C17   H4    S    
