data_mof_unit_22721.cif
_audit_creation_date              2012-12-10T17:35:37-0500
_audit_creation_method            fapswitch 2.2
_symmetry_space_group_name_H-M    P1
_symmetry_Int_Tables_number       1
_space_group_crystal_system       triclinic
_cell_length_a                    10.738868
_cell_length_b                    12.313005
_cell_length_c                    13.182079
_cell_angle_alpha                 116.550202
_cell_angle_beta                  77.52306
_cell_angle_gamma                 101.38497
_cell_volume                      1512.218231

loop_
_atom_site_label
_atom_site_type_symbol
_atom_type_description
_atom_site_fract_x
_atom_site_fract_y
_atom_site_fract_z
_atom_type_partial_charge
C1    C     C_R   0.511152 0.854812 0.286575 0.806107
C2    C     C_3   0.121790 0.998614 0.499915 0.049094
C3    C     C_3   0.075590 0.121648 0.592616 -0.470363
C4    C     C_3   0.041799 0.893074 0.528920 -0.425426
C5    C     C_R   0.331241 0.273813 0.022071 -0.189064
C6    C     C_R   0.455059 0.227623 0.834491 -0.050372
C7    C     C_R   0.591989 0.815787 0.084766 -0.181314
C8    C     C_R   0.615967 0.737282 0.969676 -0.137553
C9    C     C_R   0.571831 0.613631 0.932257 -0.173245
C10   C     C_R   0.497800 0.566188 0.009581 0.072570
C11   C     C_R   0.460875 0.649208 0.124422 0.095215
C12   C     C_R   0.739490 0.000604 0.501960 0.789768
C13   C     C_R   0.457814 0.439259 0.976365 0.074339
C14   C     C_R   0.371826 0.398744 0.054058 0.164022
C15   C     C_R   0.324856 0.483407 0.161798 -0.245624
C16   C     C_R   0.367193 0.606699 0.195987 -0.146936
C17   C     C_R   0.501656 0.350926 0.868346 -0.253389
C18   C     C_R   0.371929 0.188540 0.912304 -0.199943
C19   C     C_R   0.517526 0.772763 0.163686 -0.069374
C20   C     C_R   0.706289 0.348323 0.330000 -0.298873
C21   C     C_R   0.325219 0.758675 0.644760 0.076562
C22   C     C_R   0.287516 0.661737 0.676167 -0.246258
C23   C     C_R   0.481217 0.145028 0.713397 0.791644
C24   C     C_R   0.353292 0.558708 0.621730 -0.192213
C25   C     C_R   0.458394 0.551325 0.534594 -0.010013
C26   C     C_R   0.493714 0.653309 0.505506 0.305404
C27   C     C_R   0.529775 0.447250 0.475454 -0.036561
C28   C     C_R   0.634525 0.447924 0.389244 0.178703
C29   C     C_R   0.667413 0.547956 0.362484 -0.282595
C30   C     C_R   0.598756 0.648053 0.419173 -0.156949
C31   C     C_R   0.502462 0.341682 0.497561 0.020514
C32   C     C_R   0.674598 0.247821 0.355991 0.069915
C33   C     C_R   0.260089 0.000071 0.500069 0.827724
C34   C     C_3   0.952637 0.980221 0.382713 -0.500683
C35   C     C_3   0.097567 0.982383 0.381224 0.100135
C36   C     C_3   0.932672 0.124068 0.590985 -0.383404
C37   C     C_3   0.897730 0.891861 0.528895 0.405930
C38   C     C_3   0.876844 0.999424 0.503100 0.025467
Cu1   Cu    Cu3+1 0.529690 0.098270 0.475420 0.934623
Cu2   Cu    Cu3+1 0.470310 0.901730 0.524580 0.942933
H1    H     H_    0.939323 0.053468 0.359704 0.177665
H2    H     H_    0.062913 0.902081 0.611134 0.163976
H3    H     H_    0.876221 0.148293 0.677731 0.166691
H4    H     H_    0.089599 0.135345 0.678874 0.164750
H5    H     H_    0.334623 0.093136 0.886991 0.150316
H6    H     H_    0.254908 0.454256 0.220152 0.145318
H7    H     H_    0.265268 0.242501 0.080940 0.135720
H8    H     H_    0.571575 0.375440 0.807782 0.147428
H9    H     H_    0.634431 0.910096 0.112367 0.147615
H10   H     H_    0.594817 0.558435 0.841758 0.131406
H11   H     H_    0.672525 0.771836 0.909396 0.142335
H12   H     H_    0.913986 0.892301 0.316687 0.188428
H13   H     H_    0.321867 0.667813 0.278129 0.201039
H14   H     H_    0.729602 0.170643 0.310603 0.117007
H15   H     H_    0.747569 0.549097 0.296711 0.154016
H16   H     H_    0.786495 0.348282 0.263994 0.136489
H17   H     H_    0.424545 0.333152 0.561417 0.120069
H18   H     H_    0.273619 0.838232 0.687535 0.116023
H19   H     H_    0.319981 0.486505 0.649558 0.134803
H20   H     H_    0.206990 0.666477 0.742990 0.150039
H21   H     H_    0.632183 0.719488 0.392073 0.194485
H22   H     H_    0.150344 0.061407 0.364297 0.153278
H23   H     H_    0.925297 0.197962 0.566527 0.183601
H24   H     H_    0.133813 0.199438 0.576650 0.177828
H25   H     H_    0.872800 0.806749 0.452774 0.102472
H26   H     H_    0.072920 0.803465 0.463927 0.183696
N1    N     N_R   0.574690 0.246280 0.438200 -0.178719
N2    N     N_R   0.426100 0.754320 0.561190 -0.203900
O1    O     O_R   0.537340 0.972510 0.318130 -0.572225
O2    O     O_R   0.487200 0.806530 0.359650 -0.618733
O3    O     O_R   0.707380 0.082980 0.479220 -0.596270
O4    O     O_R   0.657240 0.917000 0.520740 -0.556688
O5    O     O_R   0.512800 0.193470 0.640350 -0.590797
O6    O     O_R   0.462660 0.027490 0.681870 -0.581393
O7    O     O_R   0.342760 0.083000 0.479260 -0.588107
O8    O     O_R   0.292620 0.917020 0.520780 -0.597191
Br1   Br    Br    0.162495 0.836882 0.253695 -0.616025
O9    O     O_3   0.810027 0.878292 0.622258 -0.551445
C39   C     C_3   0.849979 0.940829 0.731431 -0.308116
H27   H     H_    0.915254 0.025603 0.743612 0.148257
H28   H     H_    0.896176 0.878578 0.748264 0.159255
H29   H     H_    0.763647 0.966368 0.796928 0.185086

loop_
_geom_bond_atom_site_label_1
_geom_bond_atom_site_label_2
_ccdc_geom_bond_type
C2    C35   S    
C17   H8    S    
C20   H16   S    
C7    C8    A    
C3    H24   S    
C31   N1    A    
C5    H7    S    
C11   C19   A    
C29   C30   A    
Cu2   O2    S    
C28   C29   A    
C22   H20   S    
C15   C16   A    
C34   C35   S    
C16   H13   S    
C33   O7    A    
C8    C9    A    
C37   H25   S    
Cu1   O7    S    
C36   H23   S    
C9    C10   A    
C12   O4    A    
C21   C22   A    
C34   H1    S    
C23   O5    A    
C32   H14   S    
C6    C18   A    
C3    H4    S    
C1    C19   S    
C27   C31   A    
C24   C25   A    
C7    H9    S    
Cu1   Cu2   S    
C39   H28   S    
O9    C39   S    
C5    C18   A    
C29   H15   S    
C25   C26   A    
C35   Br1   S    
C1    O1    A    
Cu2   O8    S    
C2    C4    S    
C37   C38   S    
C11   C16   A    
C33   O8    A    
Cu1   O1    S    
C8    H11   S    
C5    C14   A    
C32   N1    A    
C2    C33   S    
C12   O3    A    
C26   C30   A    
C7    C19   A    
C21   N2    A    
C22   C24   A    
C23   O6    A    
C18   H5    S    
C20   C32   A    
C6    C17   A    
Cu2   O4    S    
C34   C38   S    
Cu1   N1    S    
C9    H10   S    
C10   C13   A    
C39   H29   S    
C25   C27   A    
C20   C28   A    
C37   O9    S    
C34   H12   S    
C1    O2    A    
C13   C17   A    
C26   N2    A    
C31   H17   S    
C36   C38   S    
C2    C3    S    
C21   H18   S    
C4    H26   S    
C4    H2    S    
C3    C36   S    
C24   H19   S    
C6    C23   S    
Cu2   O6    S    
C35   H22   S    
Cu1   O5    S    
C12   C38   S    
C10   C11   A    
C39   H27   S    
C4    C37   S    
Cu2   N2    S    
C30   H21   S    
C27   C28   A    
Cu1   O3    S    
C14   C15   A    
C36   H3    S    
C15   H6    S    
C13   C14   A    
