data_mof_unit_7729.cif
_audit_creation_date              2012-12-11T15:18:38-0500
_audit_creation_method            fapswitch 2.2
_symmetry_space_group_name_H-M    P1
_symmetry_Int_Tables_number       1
_space_group_crystal_system       triclinic
_cell_length_a                    6.933001
_cell_length_b                    19.817164
_cell_length_c                    23.864065
_cell_angle_alpha                 93.676087
_cell_angle_beta                  91.168146
_cell_angle_gamma                 88.660064
_cell_volume                      3270.51451491

loop_
_atom_site_label
_atom_site_type_symbol
_atom_type_description
_atom_site_fract_x
_atom_site_fract_y
_atom_site_fract_z
_atom_type_partial_charge
O1    O     O_R   0.620100 0.812200 0.810870 -0.539292
O2    O     O_R   0.379900 0.187800 0.189130 -0.539702
O3    O     O_R   0.296960 0.671650 0.794750 -0.528572
O4    O     O_R   0.703040 0.328350 0.205250 -0.528145
O5    O     O_R   0.120160 0.687800 0.689130 -0.543663
O6    O     O_R   0.879840 0.312200 0.310870 -0.543179
C1    C     C_R   0.468500 0.646842 0.804276 0.776946
C2    C     C_R   0.531499 0.353152 0.195717 0.778847
O7    O     O_R   0.290810 0.810670 0.817290 -0.535776
O8    O     O_R   0.709190 0.189330 0.182710 -0.535145
O9    O     O_R   0.113980 0.827820 0.711840 -0.543809
O10   O     O_R   0.886020 0.172180 0.288160 -0.539399
C3    C     C_R   0.459382 0.831800 0.834187 0.748068
C4    C     C_R   0.540621 0.168246 0.165793 0.744827
O11   O     O_R   0.626290 0.672180 0.788160 -0.530694
O12   O     O_R   0.373710 0.327820 0.211840 -0.530060
O13   O     O_3   0.451520 0.755460 0.715370 -0.380031
O14   O     O_3   0.548480 0.244540 0.284630 -0.379096
V1    V     V_3+5 0.179200 0.748980 0.756420 1.446218
V2    V     V_3+5 0.820800 0.251020 0.243580 1.445177
O15   O     O_R   0.783880 0.828350 0.705250 -0.540317
O16   O     O_R   0.216120 0.171650 0.294750 -0.546529
C5    C     C_R   0.950577 0.852114 0.693870 0.687693
C6    C     C_R   0.049700 0.147432 0.305839 0.681221
O17   O     O_R   0.790030 0.689320 0.682700 -0.545592
O18   O     O_R   0.209970 0.310680 0.317300 -0.546348
C7    C     C_R   0.959024 0.668359 0.665553 0.698834
C8    C     C_R   0.040970 0.331727 0.334394 0.700325
V3    V     V_3+5 0.678400 0.751010 0.743570 1.425787
V4    V     V_3+5 0.321600 0.248990 0.256430 1.414758
O19   O     O_3   0.955950 0.744540 0.784620 -0.355548
O20   O     O_3   0.044050 0.255460 0.215380 -0.354077
C9    C     C_R   0.181314 0.426134 0.396300 -0.218337
C10   C     C_R   0.818481 0.574185 0.603486 -0.217722
C11   C     C_R   0.030882 0.380695 0.384011 -0.081642
C12   C     C_R   0.969024 0.619548 0.615838 -0.081877
C13   C     C_R   0.868620 0.383156 0.418688 -0.226335
C14   C     C_R   0.131155 0.617188 0.581107 -0.226257
C15   C     C_R   0.856312 0.430045 0.465249 0.092235
C16   C     C_R   0.143329 0.570389 0.534478 0.091830
C17   C     C_R   0.006255 0.476180 0.476724 0.053089
C18   C     C_R   0.993398 0.524248 0.522998 0.052684
C19   C     C_R   0.168881 0.474397 0.441955 0.091049
C20   C     C_R   0.830781 0.526018 0.557771 0.090305
C21   C     C_R   0.696457 0.431741 0.500516 -0.191095
C22   C     C_R   0.303036 0.568770 0.499154 -0.190742
C23   C     C_R   0.683934 0.479236 0.546389 -0.180740
C24   C     C_R   0.315589 0.521254 0.453288 -0.181057
H1    H     H_    0.306177 0.424901 0.369586 0.120951
H2    H     H_    0.693648 0.575381 0.630210 0.120864
H3    H     H_    0.752604 0.348076 0.409734 0.123337
H4    H     H_    0.247197 0.652250 0.590086 0.124649
H5    H     H_    0.580261 0.396584 0.492412 0.132456
H6    H     H_    0.419114 0.603988 0.507218 0.133733
H7    H     H_    0.558544 0.479630 0.572796 0.135814
H8    H     H_    0.440918 0.520889 0.426860 0.135767
C25   C     C_R   0.956438 0.913659 0.661598 -0.057463
C26   C     C_R   0.053321 0.085256 0.337861 -0.065579
C27   C     C_R   0.008418 0.034122 0.663914 -0.176931
C28   C     C_R   0.183541 0.971460 0.344453 -0.187469
C29   C     C_R   0.000325 0.974411 0.691223 -0.199043
C30   C     C_R   0.161718 0.029996 0.315733 -0.198736
C31   C     C_R   0.927099 0.912474 0.602341 0.071771
C32   C     C_R   0.967825 0.081678 0.391352 0.069705
C33   C     C_R   0.975127 0.971062 0.573158 0.049722
C34   C     C_R   0.025306 0.027220 0.425814 0.047880
C35   C     C_R   0.995230 0.033970 0.604804 0.058603
C36   C     C_R   0.117467 0.968708 0.399739 0.058661
C37   C     C_R   0.011715 0.969249 0.514275 0.011606
C38   C     C_R   0.003140 0.029661 0.485454 0.011008
C39   C     C_R   0.008534 0.091453 0.517738 -0.200093
C40   C     C_R   0.091512 0.910965 0.486289 -0.203362
C41   C     C_R   0.008350 0.094945 0.576851 0.123326
C42   C     C_R   0.148454 0.909680 0.429969 0.124053
H9    H     H_    0.226086 0.031476 0.274815 0.120352
H10   H     H_    0.021167 0.976057 0.736415 0.115084
H11   H     H_    0.032634 0.079934 0.689915 0.122818
H12   H     H_    0.261362 0.929611 0.323414 0.122148
H13   H     H_    0.031705 0.136794 0.496347 0.138431
H14   H     H_    0.126335 0.868166 0.510640 0.139651
C43   C     C_R   0.489261 0.586661 0.837084 -0.082372
C44   C     C_R   0.510736 0.413323 0.162899 -0.082876
C45   C     C_R   0.617246 0.472529 0.839759 -0.092110
C46   C     C_R   0.382721 0.527447 0.160208 -0.091687
C47   C     C_R   0.555752 0.526743 0.809432 -0.232236
C48   C     C_R   0.444244 0.473245 0.190543 -0.231896
C49   C     C_R   0.471782 0.590937 0.896095 0.195966
C50   C     C_R   0.528200 0.409033 0.103887 0.196060
C51   C     C_R   0.506917 0.531814 0.926778 0.024297
C52   C     C_R   0.493035 0.468146 0.073193 0.024300
C53   C     C_R   0.601424 0.475292 0.898436 0.038307
C54   C     C_R   0.398517 0.524670 0.101530 0.038122
C55   C     C_R   0.461283 0.527208 0.984743 0.018721
C56   C     C_R   0.538650 0.472744 0.015226 0.018720
C57   C     C_R   0.667896 0.426944 0.987638 -0.119340
C58   C     C_R   0.332014 0.573002 0.012326 -0.119289
C59   C     C_R   0.688028 0.424579 0.929739 0.263122
C60   C     C_R   0.311877 0.575371 0.070224 0.263201
H15   H     H_    0.426814 0.476328 0.235683 0.117075
H16   H     H_    0.573197 0.523670 0.764293 0.116870
H17   H     H_    0.680085 0.428933 0.816744 0.174186
H18   H     H_    0.319879 0.571046 0.183219 0.174369
H19   H     H_    0.757372 0.392751 0.010708 0.198719
H20   H     H_    0.242531 0.607191 0.989251 0.198700
C61   C     C_R   0.665987 0.066493 0.110113 -0.223541
C62   C     C_R   0.335007 0.934001 0.889552 -0.220143
C63   C     C_R   0.530889 0.119407 0.116249 -0.081672
C64   C     C_R   0.469233 0.880769 0.883661 -0.081628
C65   C     C_R   0.385742 0.125584 0.075609 -0.164710
C66   C     C_R   0.614091 0.874511 0.924386 -0.165185
C67   C     C_R   0.372810 0.079636 0.027883 0.048918
C68   C     C_R   0.627675 0.920691 0.971947 0.049108
C69   C     C_R   0.506657 0.024064 0.023110 -0.032188
C70   C     C_R   0.494053 0.976343 0.976640 -0.032816
C71   C     C_R   0.656274 0.017514 0.064348 0.063239
C72   C     C_R   0.344779 0.983014 0.935308 0.063467
C73   C     C_R   0.229621 0.088566 0.985154 0.078967
C74   C     C_R   0.771481 0.911974 0.014559 0.079359
C75   C     C_R   0.208938 0.038114 0.940270 0.111515
C76   C     C_R   0.792692 0.962618 0.059262 0.111266
H21   H     H_    0.775423 0.063983 0.142722 0.129459
H22   H     H_    0.226219 0.936700 0.856776 0.126831
H23   H     H_    0.284701 0.167428 0.082187 0.155020
H24   H     H_    0.714560 0.832469 0.917962 0.155070
Br1   Br    Br    0.850733 0.353298 0.896829 -0.541651
Br2   Br    Br    0.149121 0.646641 0.103127 -0.540438
Br3   Br    Br    0.536895 0.318507 0.067580 -0.604347
Br4   Br    Br    0.463107 0.681454 0.932418 -0.604633
C77   C     C_3   0.110465 0.154595 0.985034 -0.346621
C78   C     C_3   0.931979 0.153227 0.021432 -0.688759
H25   H     H_    0.828415 0.115892 0.003053 0.222143
H26   H     H_    0.970731 0.139971 0.064721 0.216165
H27   H     H_    0.859301 0.203808 0.023603 0.268820
H28   H     H_    0.200463 0.198342 0.999024 0.217780
H29   H     H_    0.064593 0.166871 0.942115 0.213327
C79   C     C_3   0.890942 0.846030 0.014746 -0.346029
C80   C     C_3   0.068329 0.847150 0.977876 -0.689392
H30   H     H_    0.028553 0.860572 0.934697 0.216043
H31   H     H_    0.172909 0.884248 0.996047 0.222201
H32   H     H_    0.140294 0.796448 0.975464 0.268532
H33   H     H_    0.938172 0.834148 0.057647 0.212782
H34   H     H_    0.800685 0.802181 0.001215 0.217480
C81   C     C_3   0.038651 0.041973 0.898701 -0.351854
C82   C     C_3   0.095795 0.072442 0.844246 -0.746958
H35   H     H_    0.147114 0.124752 0.852866 0.241647
H36   H     H_    0.212287 0.042106 0.822851 0.218247
H37   H     H_    0.968499 0.074051 0.815328 0.218382
H38   H     H_    0.975702 0.991374 0.889600 0.169985
H39   H     H_    0.915340 0.071755 0.916688 0.194900
C83   C     C_3   0.964694 0.959452 0.100311 -0.357793
C84   C     C_3   0.910719 0.929526 0.155299 -0.733541
H40   H     H_    0.791680 0.958914 0.176326 0.219040
H41   H     H_    0.864308 0.876517 0.147437 0.239468
H42   H     H_    0.038151 0.929998 0.184269 0.218837
H43   H     H_    0.087756 0.929732 0.082102 0.194575
H44   H     H_    0.026847 0.010286 0.108794 0.170822
C85   C     C_3   0.021988 0.162937 0.610713 -0.346921
C86   C     C_3   0.018914 0.226299 0.577136 -0.760535
H45   H     H_    0.149162 0.227245 0.550876 0.222149
H46   H     H_    0.886090 0.228595 0.550412 0.223421
H47   H     H_    0.019607 0.271993 0.606618 0.228533
H48   H     H_    0.897993 0.168149 0.639603 0.185448
H49   H     H_    0.157463 0.163021 0.636428 0.183269
C87   C     C_3   0.243024 0.846202 0.401576 -0.343879
C88   C     C_3   0.258116 0.783606 0.436007 -0.766975
H50   H     H_    0.355314 0.792921 0.473104 0.220310
H51   H     H_    0.113133 0.769147 0.449487 0.226786
H52   H     H_    0.320337 0.740525 0.409729 0.227129
H53   H     H_    0.158519 0.831630 0.362769 0.186431
H54   H     H_    0.391502 0.858417 0.389405 0.181259
C89   C     C_3   0.793557 0.127481 0.405726 -0.397222
C90   C     C_3   0.613966 0.102924 0.372860 -0.651943
H55   H     H_    0.636825 0.099662 0.326927 0.228301
H56   H     H_    0.575401 0.052061 0.385598 0.215566
H57   H     H_    0.490769 0.138404 0.382215 0.206510
H58   H     H_    0.753488 0.127930 0.450270 0.186861
H59   H     H_    0.823145 0.180621 0.397059 0.168200
C91   C     C_3   0.809726 0.855325 0.573820 -0.385381
C92   C     C_3   0.594510 0.866705 0.585051 -0.695294
H60   H     H_    0.565979 0.873801 0.630593 0.238374
H61   H     H_    0.539991 0.912293 0.564410 0.223327
H62   H     H_    0.513133 0.822322 0.567577 0.195063
H63   H     H_    0.821188 0.851203 0.527679 0.190619
H64   H     H_    0.859479 0.805777 0.588761 0.159338

loop_
_geom_bond_atom_site_label_1
_geom_bond_atom_site_label_2
_ccdc_geom_bond_type
C26   C30   A    
C14   C16   A    
C89   C90   S    
C31   C33   A    
C55   C56   A    
O11   V3    S    
C40   C42   A    
C46   H18   S    
C17   C18   A    
C87   H54   S    
O4    C2    A    
V1    O19   S    
C27   H11   S    
C68   C70   A    
C91   C92   S    
C54   C60   A    
C15   C17   A    
C34   C38   A    
C16   C22   A    
C80   H31   S    
C28   H12   S    
C88   H50   S    
C31   C91   S    
C2    C44   S    
C87   C88   S    
C11   C13   A    
C46   C48   A    
C77   C78   S    
C50   Br3   S    
O3    C1    A    
C73   C75   A    
C13   H3    S    
C33   C37   A    
C14   H4    S    
C34   C36   A    
C36   C42   A    
C81   C82   S    
C41   C85   S    
C75   C81   S    
C28   C30   A    
C84   H42   S    
O7    C3    A    
C79   H34   S    
C86   H47   S    
C66   H24   S    
O5    C7    A    
O7    V1    S    
C85   C86   S    
O6    C8    A    
C8    C11   S    
O8    V2    S    
C33   C35   A    
C58   C60   A    
C84   H40   S    
O3    V1    S    
C38   C39   A    
C35   C41   A    
C51   C53   A    
C20   C23   A    
C73   C77   S    
C19   C24   A    
C85   H49   S    
C10   C12   A    
C91   H63   S    
C90   H57   S    
C43   C47   A    
C15   C21   A    
C92   H62   S    
C27   C35   A    
C16   C18   A    
C80   H30   S    
C21   H5    S    
C88   H51   S    
C83   H44   S    
C86   H46   S    
C17   C19   A    
C22   H6    S    
C87   H53   S    
C37   C38   A    
C18   C20   A    
C3    C64   S    
C39   H13   S    
C49   Br4   S    
C90   H56   S    
C52   C56   A    
C74   C76   A    
C21   C23   A    
C29   H10   S    
O17   V3    S    
C81   H38   S    
C80   H32   S    
C22   C24   A    
C10   H2    S    
C27   C29   A    
C57   H19   S    
V4    O20   S    
C82   H37   S    
C10   C20   A    
C59   Br1   S    
O8    C4    A    
C39   C41   A    
C65   H23   S    
C1    O11   A    
C26   C32   A    
C44   C48   A    
O15   V3    S    
C40   H14   S    
C62   C72   A    
C9    C19   A    
C37   C40   A    
C78   H26   S    
C62   H22   S    
C79   H33   S    
C68   C74   A    
C82   H36   S    
C61   C63   A    
C52   C54   A    
C81   H39   S    
V3    O19   S    
O9    V1    S    
C77   H29   S    
O10   V2    S    
C5    C25   S    
O1    V3    S    
C61   H21   S    
C67   C69   A    
C53   C59   A    
C48   H15   S    
C43   C49   A    
O14   V4    S    
C6    C26   S    
C4    C63   S    
C45   C47   A    
C50   C52   A    
O18   V4    S    
C55   C58   A    
C83   H43   S    
O15   C5    A    
C86   H45   S    
O16   C6    A    
C30   H9    S    
C78   H27   S    
O1    C3    A    
O12   V4    S    
O13   V1    S    
C12   C14   A    
C74   C79   S    
C90   H55   S    
C23   H7    S    
C69   C70   A    
V2    O20   S    
C24   H8    S    
C45   H17   S    
C1    C43   S    
O18   C8    A    
C61   C71   A    
C89   H59   S    
C25   C31   A    
C82   H35   S    
C70   C72   A    
C57   C59   A    
C25   C29   A    
O5    V1    S    
C7    C12   S    
C88   H52   S    
C45   C53   A    
C89   H58   S    
O10   C6    A    
C76   C83   S    
C72   C75   A    
C67   C73   A    
O2    V4    S    
C32   C89   S    
C58   H20   S    
C78   H25   S    
C13   C15   A    
C47   H16   S    
O16   V4    S    
O13   V3    S    
C42   C87   S    
C63   C65   A    
C62   C64   A    
O6    V2    S    
C44   C50   A    
C65   C67   A    
O9    C5    A    
C9    C11   A    
C64   C66   A    
O14   V2    S    
C84   H41   S    
C51   C55   A    
C56   C57   A    
O2    C4    A    
C66   C68   A    
C77   H28   S    
C92   H60   S    
O4    V2    S    
C60   Br2   S    
C28   C36   A    
C2    O12   A    
C71   C76   A    
C49   C51   A    
C83   C84   S    
C79   C80   S    
C46   C54   A    
C92   H61   S    
C9    H1    S    
C85   H48   S    
C91   H64   S    
C32   C34   A    
C69   C71   A    
O17   C7    A    
