data_mof_unit_38567.cif
_audit_creation_date              2012-12-11T14:49:40-0500
_audit_creation_method            fapswitch 2.2
_symmetry_space_group_name_H-M    P1
_symmetry_Int_Tables_number       1
_space_group_crystal_system       triclinic
_cell_length_a                    17.126935
_cell_length_b                    7.081501
_cell_length_c                    16.704756
_cell_angle_alpha                 90.518187
_cell_angle_beta                  100.586445
_cell_angle_gamma                 90.661355
_cell_volume                      1991.27997274

loop_
_atom_site_label
_atom_site_type_symbol
_atom_type_description
_atom_site_fract_x
_atom_site_fract_y
_atom_site_fract_z
_atom_type_partial_charge
O1    O     O_R   0.579510 0.506290 0.439030 -0.530202
O2    O     O_R   0.420490 0.006290 0.560970 -0.530426
O3    O     O_R   0.412540 0.170090 0.405290 -0.540538
O4    O     O_R   0.587460 0.670090 0.594710 -0.545384
C1    C     C_R   0.383878 0.345870 0.382736 0.663848
C2    C     C_R   0.615568 0.848322 0.617301 0.686833
O5    O     O_R   0.578390 0.176230 0.429330 -0.540998
O6    O     O_R   0.421610 0.676230 0.570670 -0.542577
O7    O     O_R   0.587530 0.011250 0.585190 -0.535672
O8    O     O_R   0.412470 0.511250 0.414810 -0.536595
C3    C     C_R   0.604341 0.344285 0.413541 0.707367
C4    C     C_R   0.395524 0.843745 0.586301 0.702555
O9    O     O_3   0.502800 0.340940 0.551110 -0.372627
O10   O     O_3   0.497200 0.840940 0.448890 -0.367550
V1    V     V_3+5 0.499480 0.064020 0.490520 1.371730
V2    V     V_3+5 0.500520 0.564020 0.509480 1.363922
C5    C     C_R   0.166383 0.927132 0.861368 -0.098769
C6    C     C_R   0.833020 0.425595 0.137918 -0.099167
C7    C     C_R   0.334466 0.845470 0.639807 -0.068241
C8    C     C_R   0.665033 0.346848 0.359702 -0.066938
C9    C     C_R   0.222727 0.684047 0.682463 -0.186871
C10   C     C_R   0.776324 0.188627 0.316815 -0.187671
C11   C     C_R   0.275386 0.703619 0.628389 -0.213325
C12   C     C_R   0.723879 0.208260 0.370989 -0.213270
C13   C     C_R   0.339318 0.971807 0.707046 0.105803
C14   C     C_R   0.660115 0.470099 0.292439 0.105146
C15   C     C_R   0.278346 0.969249 0.755357 0.130305
C16   C     C_R   0.720799 0.467561 0.243671 0.128878
C17   C     C_R   0.223840 0.813755 0.746480 0.089568
C18   C     C_R   0.775212 0.315143 0.252703 0.090660
C19   C     C_R   0.170024 0.791088 0.800717 -0.244278
C20   C     C_R   0.829152 0.292508 0.198666 -0.243657
C21   C     C_R   0.215577 0.087961 0.865311 -0.178705
C22   C     C_R   0.783658 0.583268 0.133384 -0.177209
C23   C     C_R   0.269078 0.114689 0.812225 0.147523
C24   C     C_R   0.730071 0.610208 0.186350 0.147783
H1    H     H_    0.209544 0.200108 0.907953 0.136693
H2    H     H_    0.789643 0.692971 0.090290 0.135120
H3    H     H_    0.271878 0.602277 0.578812 0.127309
H4    H     H_    0.727420 0.109400 0.420638 0.126962
C25   C     C_3   0.748256 0.763802 0.836492 0.038809
C26   C     C_3   0.247838 0.260300 0.163972 0.038101
H5    H     H_    0.777553 0.624481 0.848801 0.121232
H6    H     H_    0.214252 0.123685 0.153893 0.124567
C27   C     C_3   0.679690 0.731570 0.760369 0.008500
C28   C     C_3   0.317722 0.229371 0.237937 0.009195
H7    H     H_    0.691962 0.591772 0.735244 0.136496
H8    H     H_    0.305776 0.088579 0.260754 0.135111
H9    H     H_    0.855687 0.671636 0.747278 0.160606
H10   H     H_    0.121429 0.225909 0.251561 0.158013
C29   C     C_3   0.837997 0.821406 0.736580 -0.409403
C30   C     C_3   0.159120 0.355717 0.264352 -0.387039
C31   C     C_3   0.773540 0.099663 0.793935 -0.312717
C32   C     C_3   0.234373 0.601976 0.202841 -0.324336
C33   C     C_3   0.811964 0.904428 0.814161 -0.002616
C34   C     C_3   0.188558 0.413106 0.185353 0.001857
H11   H     H_    0.759835 0.165267 0.850466 0.143052
H12   H     H_    0.255633 0.647211 0.146932 0.140775
C35   C     C_3   0.686971 0.874851 0.689121 0.052366
C36   C     C_3   0.312348 0.369923 0.310523 0.055415
C37   C     C_3   0.769647 0.835203 0.661106 -0.063500
C38   C     C_3   0.229378 0.328334 0.337671 -0.055060
C39   C     C_3   0.697565 0.088960 0.724449 0.337151
C40   C     C_3   0.304308 0.586218 0.278473 0.349842
H13   H     H_    0.891569 0.898921 0.724578 0.134440
H14   H     H_    0.119209 0.466882 0.280790 0.132561
H15   H     H_    0.788448 0.957657 0.628695 0.167806
H16   H     H_    0.221303 0.429278 0.386341 0.156031
O11   O     O_R   0.087500 0.266000 0.085220 -0.543383
O12   O     O_R   0.912500 0.766000 0.914780 -0.544166
O13   O     O_R   0.921600 0.589950 0.070670 -0.542060
O14   O     O_R   0.078400 0.089950 0.929330 -0.542557
C41   C     C_R   0.895530 0.422671 0.086506 0.707664
C42   C     C_R   0.104280 0.923145 0.913295 0.707184
O15   O     O_R   0.087460 0.596020 0.094710 -0.542774
O16   O     O_R   0.912540 0.096020 0.905290 -0.542649
O17   O     O_R   0.079520 0.760970 0.939020 -0.535876
O18   O     O_R   0.920480 0.260970 0.060980 -0.536207
C43   C     C_R   0.116363 0.427931 0.116703 0.686043
C44   C     C_R   0.884220 0.924728 0.882774 0.690270
O19   O     O_3   0.997180 0.425140 0.948910 -0.372792
O20   O     O_3   0.002820 0.925140 0.051090 -0.372673
V3    V     V_3+5 0.000520 0.702080 0.009480 1.378917
V4    V     V_3+5 0.999480 0.202080 0.990520 1.377668
H17   H     H_    0.129135 0.671524 0.793813 0.125850
H18   H     H_    0.870057 0.175545 0.205876 0.125940
C45   C     C_3   0.769885 0.676911 0.597456 -0.836434
H19   H     H_    0.756412 0.735906 0.535016 0.204014
H20   H     H_    0.828590 0.607746 0.604576 0.223646
H21   H     H_    0.723592 0.571044 0.599741 0.230461
C46   C     C_3   0.219444 0.139630 0.378259 -0.869435
H22   H     H_    0.168786 0.146648 0.411295 0.221507
H23   H     H_    0.203389 0.031045 0.330496 0.224445
H24   H     H_    0.272737 0.102360 0.423275 0.231780
H25   H     H_    0.820707 0.192560 0.777500 0.133581
H26   H     H_    0.192182 0.715307 0.211550 0.135964
C47   C     C_3   0.625915 0.159640 0.760393 -0.763272
H27   H     H_    0.635374 0.310064 0.777737 0.195956
H28   H     H_    0.570377 0.150018 0.715181 0.227048
H29   H     H_    0.618578 0.092333 0.817074 0.193280
C48   C     C_3   0.379897 0.666716 0.251187 -0.744493
H30   H     H_    0.371251 0.816947 0.235745 0.191071
H31   H     H_    0.433634 0.661717 0.298580 0.237883
H32   H     H_    0.391062 0.602087 0.194415 0.182101
C49   C     C_3   0.707629 0.237330 0.657129 -0.753787
H33   H     H_    0.712425 0.177492 0.596891 0.180307
H34   H     H_    0.655412 0.330778 0.642684 0.235262
H35   H     H_    0.760155 0.330479 0.675725 0.175101
C50   C     C_3   0.284664 0.721559 0.346986 -0.750616
H36   H     H_    0.219692 0.736064 0.342479 0.167096
H37   H     H_    0.302380 0.674495 0.410341 0.198665
H38   H     H_    0.314238 0.860098 0.346345 0.223619
H39   H     H_    0.180259 0.567666 0.673577 0.129533
H40   H     H_    0.818681 0.074757 0.325732 0.129691
C51   C     C_3   0.304462 0.311038 0.810983 -0.794210
H41   H     H_    0.316844 0.346416 0.750025 0.229631
H42   H     H_    0.261729 0.418483 0.824342 0.211565
H43   H     H_    0.358903 0.325904 0.858310 0.210382
C52   C     C_3   0.694765 0.804842 0.187082 -0.792953
H44   H     H_    0.684747 0.844943 0.248613 0.228601
H45   H     H_    0.736477 0.913481 0.171104 0.211124
H46   H     H_    0.639042 0.812776 0.141416 0.210404
C53   C     C_3   0.417507 0.072789 0.736500 -0.791961
H47   H     H_    0.466294 0.977122 0.729030 0.189547
H48   H     H_    0.421843 0.203477 0.701307 0.224784
H49   H     H_    0.427897 0.103627 0.802690 0.216106
C54   C     C_3   0.582430 0.568861 0.263975 -0.791177
H50   H     H_    0.532720 0.476304 0.273965 0.191030
H51   H     H_    0.580531 0.703806 0.297822 0.223788
H52   H     H_    0.570730 0.591449 0.197400 0.214419
C55   C     C_3   0.721889 0.814845 0.917741 -0.779253
H53   H     H_    0.774402 0.835627 0.966725 0.189952
H54   H     H_    0.687473 0.945648 0.914884 0.212925
H55   H     H_    0.686263 0.697881 0.937265 0.210489
C56   C     C_3   0.275255 0.299768 0.082241 -0.780972
H56   H     H_    0.224344 0.335843 0.034095 0.191465
H57   H     H_    0.318577 0.418391 0.087314 0.215034
H58   H     H_    0.302605 0.171922 0.060846 0.208654
C57   C     C_3   0.596000 0.699909 0.781830 -0.808607
H59   H     H_    0.573448 0.820593 0.811852 0.222528
H60   H     H_    0.550908 0.659834 0.727902 0.217167
H61   H     H_    0.597751 0.581723 0.825068 0.205094
C58   C     C_3   0.400994 0.202077 0.215384 -0.812966
H62   H     H_    0.423324 0.323694 0.185791 0.220455
H63   H     H_    0.446363 0.165607 0.268948 0.216030
H64   H     H_    0.398678 0.082558 0.171635 0.207959

loop_
_geom_bond_atom_site_label_1
_geom_bond_atom_site_label_2
_ccdc_geom_bond_type
C56   H58   S    
C45   H19   S    
C48   H30   S    
C19   H17   S    
O19   V4    S    
C31   H25   S    
C51   H42   S    
C31   C33   S    
O1    C3    A    
C55   H55   S    
O2    C4    A    
O16   V4    S    
C2    O7    A    
C47   H27   S    
O3    V1    S    
C56   H56   S    
O5    C3    A    
C49   H34   S    
C34   C43   S    
C5    C21   A    
C50   H37   S    
C26   C28   S    
C21   C23   A    
C57   H61   S    
C53   H48   S    
C15   C17   A    
O17   V3    S    
C58   H62   S    
C27   C57   S    
C36   C38   S    
C29   H13   S    
C27   H7    S    
C24   C52   S    
C25   C33   S    
C37   C45   S    
C26   C34   S    
C45   H21   S    
C30   C34   S    
C8    C12   A    
H9    C29   S    
C42   O17   A    
C29   C37   S    
H10   C30   S    
C41   O18   A    
C23   C51   S    
C39   C49   S    
C32   H26   S    
O5    V1    S    
O6    V2    S    
C56   H57   S    
C25   H5    S    
C26   H6    S    
O19   V3    S    
O13   V3    S    
C52   H45   S    
C40   C48   S    
C49   H35   S    
C28   H8    S    
C3    C8    S    
C35   C37   S    
O12   C44   A    
C53   H47   S    
O14   C42   A    
C47   H28   S    
C50   H38   S    
C46   H22   S    
O13   C41   A    
C31   H11   S    
C53   H49   S    
C29   C33   S    
C15   C23   A    
C9    C17   A    
C21   H1    S    
C26   C56   S    
O4    V2    S    
C7    C11   A    
C54   H51   S    
O2    V1    S    
C46   H23   S    
C13   C53   S    
C37   H15   S    
O6    C4    A    
C51   H43   S    
C20   H18   S    
C38   C46   S    
O1    V2    S    
C57   H60   S    
C52   H44   S    
O12   V3    S    
C6    C22   A    
C16   C24   A    
O14   V4    S    
C9    H39   S    
C6    C41   S    
O20   V4    S    
C9    C11   A    
C5    C42   S    
C5    C19   A    
C10   C12   A    
O11   C43   A    
O4    C2    A    
C6    C20   A    
C58   H64   S    
C55   H53   S    
O3    C1    A    
C47   H29   S    
C30   H14   S    
C25   C55   S    
C32   H12   S    
C52   H46   S    
C58   H63   S    
C27   C35   S    
C10   C18   A    
C1    C36   S    
C28   C36   S    
C22   H2    S    
C14   C16   A    
C2    C35   S    
O16   C44   A    
C55   H54   S    
C57   H59   S    
C32   C34   S    
C28   C58   S    
C13   C15   A    
C49   H33   S    
C35   C39   S    
C48   H31   S    
C38   H16   S    
C36   C40   S    
C16   C18   A    
O7    V1    S    
C54   H52   S    
C1    O8    A    
C39   C47   S    
O11   V4    S    
O8    V2    S    
C50   H36   S    
C46   H24   S    
C18   C20   A    
C33   C44   S    
C31   C39   S    
O15   V3    S    
C40   C50   S    
C8    C14   A    
C11   H3    S    
C4    C7    S    
C12   H4    S    
C22   C24   A    
C14   C54   S    
C7    C13   A    
O18   V4    S    
C10   H40   S    
C32   C40   S    
C17   C19   A    
O20   V3    S    
O9    V2    S    
C45   H20   S    
C25   C27   S    
O10   V1    S    
C30   C38   S    
C48   H32   S    
C51   H41   S    
O15   C43   A    
C54   H50   S    
