data_mof_unit_23580.cif
_audit_creation_date              2012-12-10T18:11:38-0500
_audit_creation_method            fapswitch 2.2
_symmetry_space_group_name_H-M    P1
_symmetry_Int_Tables_number       1
_space_group_crystal_system       triclinic
_cell_length_a                    10.488331
_cell_length_b                    12.647989
_cell_length_c                    13.129183
_cell_angle_alpha                 82.323992
_cell_angle_beta                  90.623701
_cell_angle_gamma                 102.859357
_cell_volume                      1682.45122146

loop_
_atom_site_label
_atom_site_type_symbol
_atom_type_description
_atom_site_fract_x
_atom_site_fract_y
_atom_site_fract_z
_atom_type_partial_charge
C1    C     C_R   0.480281 0.438853 0.691101 0.846300
C2    C     C_3   0.063404 0.578793 0.427370 -0.175966
C3    C     C_3   0.988075 0.598962 0.520645 -0.122779
C4    C     C_3   0.878288 0.502629 0.500537 0.011828
C5    C     C_R   0.404351 0.699543 0.064693 -0.137555
C6    C     C_R   0.500761 0.596226 0.200212 -0.037426
C7    C     C_R   0.500652 0.301257 0.838264 -0.176200
C8    C     C_R   0.512703 0.273076 0.943132 -0.152734
C9    C     C_R   0.498661 0.346054 0.010389 -0.163553
C10   C     C_R   0.465796 0.447093 0.973483 0.086205
C11   C     C_R   0.433439 0.466864 0.869475 -0.005485
C12   C     C_R   0.742417 0.501065 0.500283 0.868600
C13   C     C_R   0.464057 0.529204 0.036257 -0.000693
C14   C     C_R   0.409744 0.620396 0.000157 0.026339
C15   C     C_R   0.360105 0.629726 0.901102 0.581532
C16   C     C_R   0.371942 0.553898 0.836528 -0.298469
C17   C     C_R   0.517548 0.523873 0.133646 -0.212910
C18   C     C_R   0.447540 0.686321 0.165378 -0.234316
C19   C     C_R   0.465345 0.399689 0.800736 -0.083585
C20   C     C_R   0.317734 0.086447 0.349379 -0.303618
C21   C     C_R   0.650206 0.796991 0.632839 0.042260
C22   C     C_R   0.676338 0.898294 0.667225 -0.272714
C23   C     C_R   0.512822 0.560959 0.308838 0.841348
C24   C     C_R   0.617475 0.979808 0.619992 -0.128760
C25   C     C_R   0.533766 0.961372 0.535594 0.039608
C26   C     C_R   0.507625 0.854884 0.505761 0.238019
C27   C     C_R   0.472706 0.041849 0.481089 -0.136893
C28   C     C_R   0.382011 0.010970 0.402793 0.130277
C29   C     C_R   0.356702 0.905243 0.377268 -0.254460
C30   C     C_R   0.419944 0.829034 0.427132 -0.202641
C31   C     C_R   0.497707 0.152457 0.498339 0.686214
C32   C     C_R   0.344273 0.192577 0.372293 -0.113121
C33   C     C_R   0.257629 0.498973 0.499731 0.838452
C34   C     C_3   0.936858 0.421511 0.572638 -0.155473
C35   C     C_3   0.049289 0.517772 0.592731 -0.180488
C36   C     C_3   0.121901 0.497621 0.499464 0.021934
C37   C     C_3   0.012142 0.401331 0.479356 -0.123571
C38   C     C_3   0.950960 0.482532 0.407268 -0.177214
H1    H     H_    0.094020 0.531724 0.668208 0.149939
H2    H     H_    0.568840 0.460987 0.161562 0.142656
H3    H     H_    0.522988 0.247763 0.786374 0.184603
H4    H     H_    0.510753 0.320113 0.090889 0.131134
H5    H     H_    0.538538 0.196501 0.972088 0.147628
H6    H     H_    0.330911 0.563342 0.760770 0.190167
H7    H     H_    0.295429 0.252180 0.331952 0.162045
H8    H     H_    0.288482 0.881461 0.317355 0.145515
H9    H     H_    0.247982 0.063584 0.290244 0.161320
H10   H     H_    0.694354 0.732745 0.670051 0.143623
H11   H     H_    0.880595 0.357822 0.631880 0.160650
H12   H     H_    0.637575 0.054021 0.654114 0.218384
H13   H     H_    0.740527 0.913177 0.731406 0.159359
H14   H     H_    0.397763 0.749758 0.403004 0.202794
H15   H     H_    0.025947 0.320837 0.462521 0.150444
H16   H     H_    0.906237 0.468598 0.331787 0.136903
H17   H     H_    0.119823 0.642503 0.368200 0.130383
H18   H     H_    0.974325 0.679474 0.537470 0.153492
H19   H     H_    0.433431 0.742969 0.216879 0.147588
H20   H     H_    0.362222 0.769078 0.038906 0.188548
N1    N     N_R   0.432930 0.222190 0.444670 -0.134517
N2    N     N_R   0.566370 0.776980 0.554790 -0.132951
O1    O     O_R   0.467970 0.366730 0.627150 -0.569698
O2    O     O_R   0.510820 0.544830 0.662520 -0.619892
O3    O     O_R   0.664630 0.410960 0.482340 -0.554218
O4    O     O_R   0.707470 0.589060 0.517710 -0.634269
O5    O     O_R   0.489180 0.455170 0.337480 -0.620741
O6    O     O_R   0.532030 0.633270 0.372850 -0.636226
O7    O     O_R   0.292530 0.410940 0.482290 -0.626160
O8    O     O_R   0.335370 0.589040 0.517660 -0.634300
Zn1   Zn    Zn3+2 0.471390 0.381080 0.476380 0.989758
Zn2   Zn    Zn3+2 0.528610 0.618920 0.523620 0.933130
F1    F     F_    0.588261 0.195179 0.564335 -0.699113
F2    F     F_    0.302715 0.713420 0.865690 -0.676271

loop_
_geom_bond_atom_site_label_1
_geom_bond_atom_site_label_2
_ccdc_geom_bond_type
C34   C37   S    
C32   H7    S    
C35   C36   S    
C8    H5    S    
C1    O2    A    
C3    H18   S    
C7    C8    A    
C15   F2    S    
C11   C19   A    
C9    H4    S    
C29   C30   A    
C5    H20   S    
C23   O6    A    
C36   C37   S    
C2    H17   S    
C12   O4    A    
O1    Zn1   S    
C15   C16   A    
C33   C36   S    
O2    Zn2   S    
C34   C35   S    
C11   C16   A    
C31   N1    A    
O3    Zn1   S    
C8    C9    A    
O4    Zn2   S    
C4    C12   S    
C9    C10   A    
C16   H6    S    
C21   H10   S    
C37   H15   S    
C31   F1    S    
C21   C22   A    
C24   H12   S    
C6    C18   A    
C4    C34   S    
C1    C19   S    
C27   C31   A    
C24   C25   A    
C21   N2    A    
C12   O3    A    
C5    C18   A    
C20   C28   A    
C25   C26   A    
O7    Zn1   S    
C17   H2    S    
C35   H1    S    
C37   C38   S    
C3    C35   S    
C2    C38   S    
C18   H19   S    
C38   H16   S    
N2    Zn2   S    
C5    C14   A    
N1    Zn1   S    
C4    C38   S    
C26   C30   A    
C7    C19   A    
C22   C24   A    
C3    C4    S    
C33   O7    A    
C20   C32   A    
C2    C36   S    
C6    C17   A    
C30   H14   S    
C28   C29   A    
C34   H11   S    
C10   C13   A    
C1    O1    A    
C25   C27   A    
C13   C17   A    
C29   H8    S    
C23   O5    A    
C2    C3    S    
O6    Zn2   S    
O5    Zn1   S    
C6    C23   S    
C7    H3    S    
C20   H9    S    
C10   C11   A    
O8    Zn2   S    
C27   C28   A    
C14   C15   A    
C32   N1    A    
C13   C14   A    
C26   N2    A    
C33   O8    A    
C22   H13   S    
