data_mof_unit_29392.cif
_audit_creation_date              2012-12-10T16:38:04-0500
_audit_creation_method            fapswitch 2.2
_symmetry_space_group_name_H-M    P1
_symmetry_Int_Tables_number       1
_space_group_crystal_system       triclinic
_cell_length_a                    28.105827
_cell_length_b                    18.435931
_cell_length_c                    17.033683
_cell_angle_alpha                 89.951687
_cell_angle_beta                  60.890206
_cell_angle_gamma                 89.88854
_cell_volume                      7711.27311196

loop_
_atom_site_label
_atom_site_type_symbol
_atom_type_description
_atom_site_fract_x
_atom_site_fract_y
_atom_site_fract_z
_atom_type_partial_charge
C1    C     C_R   0.705703 0.276442 0.673638 0.867484
C2    C     C_R   0.078668 0.501459 0.569439 0.076195
C3    C     C_R   0.187799 0.223584 0.911481 0.070694
C4    C     C_R   0.619573 0.326969 0.045320 -0.171519
C5    C     C_R   0.388624 0.688354 0.952987 -0.178297
C6    C     C_R   0.384108 0.326828 0.951094 -0.162895
C7    C     C_R   0.611898 0.687488 0.046636 -0.178304
C8    C     C_R   0.111610 0.811895 0.046728 -0.178707
C9    C     C_R   0.890724 0.184699 0.948289 -0.171143
C10   C     C_R   0.888431 0.812075 0.953043 -0.177462
C11   C     C_R   0.116912 0.171752 0.048216 -0.172579
C12   C     C_R   0.650044 0.315917 0.088942 -0.208866
C13   C     C_R   0.399574 0.998508 0.506049 0.070219
C14   C     C_R   0.361952 0.710462 0.906207 -0.196512
C15   C     C_R   0.353834 0.314664 0.907657 -0.184850
C16   C     C_R   0.638572 0.709464 0.093374 -0.196902
C17   C     C_R   0.138332 0.789956 0.093457 -0.196885
C18   C     C_R   0.864379 0.206317 0.900904 -0.189499
C19   C     C_R   0.861829 0.789851 0.906242 -0.193976
C20   C     C_R   0.147412 0.183311 0.091343 -0.209081
C21   C     C_R   0.777427 0.271512 0.761531 -0.165873
C22   C     C_R   0.224626 0.725363 0.235033 -0.167871
C23   C     C_R   0.252228 0.198605 0.210062 -0.168432
C24   C     C_R   0.578042 0.999033 0.569848 0.075481
C25   C     C_R   0.775729 0.724695 0.764554 -0.167949
C26   C     C_R   0.275642 0.775279 0.764594 -0.169327
C27   C     C_R   0.753078 0.304393 0.211191 -0.170748
C28   C     C_R   0.724593 0.774624 0.235014 -0.167095
C29   C     C_R   0.248682 0.300108 0.789438 -0.144574
C30   C     C_R   0.807333 0.256761 0.804789 -0.189682
C31   C     C_R   0.195999 0.742183 0.189894 -0.199971
C32   C     C_R   0.221074 0.186378 0.168049 -0.210664
C33   C     C_R   0.804361 0.741469 0.809683 -0.198275
C34   C     C_R   0.304329 0.758603 0.809712 -0.200866
C35   C     C_R   0.070717 0.371663 0.591437 -0.160945
C36   C     C_R   0.722306 0.317123 0.168705 -0.216942
C37   C     C_R   0.696033 0.757678 0.189856 -0.199504
C38   C     C_R   0.279942 0.312013 0.831340 -0.158355
C39   C     C_R   0.072589 0.102130 0.935954 0.905161
C40   C     C_R   0.928838 0.896330 0.062873 0.890406
C41   C     C_R   0.928166 0.103100 0.063447 0.903001
C42   C     C_R   0.071092 0.896244 0.937208 0.889914
C43   C     C_R   0.571241 0.603590 0.937046 0.890517
C44   C     C_R   0.427555 0.397727 0.063929 0.904870
C45   C     C_R   0.428965 0.603811 0.062729 0.890855
C46   C     C_R   0.919404 0.628120 0.459262 -0.160196
C47   C     C_R   0.572156 0.397260 0.936533 0.902097
C48   C     C_R   0.519051 0.128052 0.592446 -0.058752
C49   C     C_R   0.456822 0.869082 0.491330 -0.071216
C50   C     C_R   0.423837 0.124576 0.575016 -0.060383
C51   C     C_R   0.535000 0.866598 0.549264 -0.068560
C52   C     C_R   0.034695 0.633863 0.550182 -0.067614
C53   C     C_R   0.931584 0.373024 0.557764 -0.060453
C54   C     C_R   0.957000 0.631614 0.490959 -0.071746
C55   C     C_R   0.023075 0.371147 0.583938 -0.056997
C56   C     C_R   0.486133 0.190706 0.611573 0.334002
C57   C     C_R   0.885446 0.376213 0.547352 -0.167795
C58   C     C_R   0.481241 0.802717 0.494054 0.319794
C59   C     C_R   0.438165 0.188588 0.604501 0.331319
C60   C     C_R   0.518661 0.801092 0.526519 0.320536
C61   C     C_R   0.017420 0.699562 0.529185 0.320287
C62   C     C_R   0.948731 0.307227 0.579100 0.296913
C63   C     C_R   0.980159 0.698154 0.496346 0.318417
C64   C     C_R   0.994062 0.306432 0.593060 0.334511
C65   C     C_R   0.456125 0.062124 0.557223 -0.025650
C66   C     C_R   0.511744 0.932623 0.544242 -0.024309
C67   C     C_R   0.502015 0.063081 0.570066 -0.028937
C68   C     C_R   0.075090 0.632276 0.575500 -0.164569
C69   C     C_R   0.470100 0.933162 0.521281 -0.026139
C70   C     C_R   0.971336 0.567144 0.518737 -0.026519
C71   C     C_R   0.005326 0.436515 0.563189 -0.028182
C72   C     C_R   0.012475 0.567725 0.542979 -0.024791
C73   C     C_R   0.960764 0.436997 0.547209 -0.018488
C74   C     C_R   0.945150 0.501725 0.521124 0.039675
C75   C     C_R   0.031537 0.501940 0.560142 0.038734
C76   C     C_R   0.442186 0.998060 0.527527 0.041440
C77   C     C_R   0.530181 0.998292 0.562517 0.040947
C78   C     C_R   0.873121 0.437218 0.509739 0.033434
C79   C     C_R   0.575307 0.868132 0.574613 -0.163678
C80   C     C_R   0.103443 0.567327 0.569939 0.024871
C81   C     C_R   0.102057 0.435174 0.574609 0.030259
C82   C     C_R   0.887920 0.565261 0.470876 0.033420
C83   C     C_R   0.386586 0.935085 0.474000 0.034562
C84   C     C_R   0.601310 0.065435 0.574786 0.031043
C85   C     C_R   0.603364 0.933119 0.569306 0.025875
C86   C     C_R   0.368878 0.061845 0.518942 0.022034
C87   C     C_R   0.832258 0.436981 0.482589 -0.100697
C88   C     C_R   0.156447 0.565765 0.561082 -0.115044
C89   C     C_R   0.156010 0.435262 0.562201 -0.123962
C90   C     C_R   0.377988 0.121436 0.562683 -0.155052
C91   C     C_R   0.840874 0.564431 0.458595 -0.117724
C92   C     C_R   0.340081 0.935840 0.460459 -0.118501
C93   C     C_R   0.655656 0.065107 0.561695 -0.125148
C94   C     C_R   0.656429 0.934570 0.560139 -0.115253
C95   C     C_R   0.329957 0.062751 0.487829 -0.103980
C96   C     C_R   0.817437 0.499866 0.456769 -0.294584
C97   C     C_R   0.180809 0.500342 0.560486 -0.279972
C98   C     C_R   0.316373 0.000362 0.459232 -0.291654
C99   C     C_R   0.680663 0.999918 0.559401 -0.276260
C100  C     C_R   0.419027 0.872773 0.460148 -0.160595
C101  C     C_R   0.294180 0.722991 0.326597 0.888836
C102  C     C_R   0.568986 0.128725 0.593670 -0.157425
C103  C     C_R   0.728800 0.283789 0.947622 0.026438
C104  C     C_R   0.278642 0.730797 0.046655 0.021644
C105  C     C_R   0.282453 0.260311 0.042615 0.025530
C106  C     C_R   0.721784 0.729929 0.952933 0.022200
C107  C     C_R   0.221676 0.769819 0.952983 0.021651
C108  C     C_R   0.789377 0.253814 0.037491 0.026068
C109  C     C_R   0.778629 0.769267 0.046648 0.022068
C110  C     C_R   0.218733 0.237727 0.956412 0.021673
C111  C     C_R   0.783415 0.259174 0.898588 0.034181
C112  C     C_R   0.298851 0.266676 0.323026 0.902326
C113  C     C_R   0.222304 0.748340 0.095354 0.042441
C114  C     C_R   0.233413 0.220535 0.086481 0.048016
C115  C     C_R   0.778062 0.747631 0.904240 0.043860
C116  C     C_R   0.278030 0.752348 0.904263 0.043894
C117  C     C_R   0.738022 0.288427 0.083359 0.047996
C118  C     C_R   0.722365 0.751506 0.095316 0.042264
C119  C     C_R   0.267790 0.277457 0.912554 0.033355
C120  C     C_R   0.812526 0.239337 0.944565 0.036815
C121  C     C_R   0.193850 0.769069 0.048382 0.043547
C122  C     C_R   0.200294 0.212086 0.044966 0.050141
C123  C     C_R   0.705942 0.722839 0.673269 0.883656
C124  C     C_R   0.806440 0.768583 0.951248 0.043481
C125  C     C_R   0.306473 0.731536 0.951250 0.043712
C126  C     C_R   0.705586 0.296976 0.040767 0.046633
C127  C     C_R   0.693987 0.730595 0.048325 0.043690
C128  C     C_R   0.300959 0.285809 0.953988 0.034326
C129  C     C_R   0.643631 0.322624 0.951003 0.073586
C130  C     C_R   0.361574 0.686419 0.047190 0.071549
C131  C     C_R   0.361906 0.314855 0.044350 0.057596
C132  C     C_R   0.638888 0.685593 0.952435 0.072100
C133  C     C_R   0.138652 0.813901 0.952549 0.071852
C134  C     C_R   0.205901 0.777151 0.673310 0.884225
C135  C     C_R   0.866185 0.192956 0.042251 0.060756
C136  C     C_R   0.861413 0.813957 0.047264 0.071491
C137  C     C_R   0.138911 0.183987 0.955068 0.070796
C138  C     C_R   0.615970 0.343799 0.902562 -0.141410
C139  C     C_R   0.386593 0.659285 0.097043 -0.140595
C140  C     C_R   0.386810 0.340101 0.095464 -0.134009
C141  C     C_R   0.613818 0.658667 0.902606 -0.140406
C142  C     C_R   0.113553 0.840906 0.902786 -0.140797
C143  C     C_R   0.888459 0.162558 0.094916 -0.137763
C144  C     C_R   0.886379 0.841073 0.097194 -0.140453
C145  C     C_R   0.798978 0.233601 0.323145 0.903931
C146  C     C_R   0.113613 0.159397 0.904275 -0.139335
C147  C     C_R   0.636334 0.324307 0.814245 -0.290414
C148  C     C_R   0.364759 0.675612 0.186590 -0.290773
C149  C     C_R   0.367475 0.317974 0.183073 -0.298672
C150  C     C_R   0.635652 0.674995 0.813074 -0.292148
C151  C     C_R   0.135378 0.824604 0.813248 -0.292074
C152  C     C_R   0.867899 0.182495 0.183536 -0.295098
C153  C     C_R   0.864527 0.824734 0.186744 -0.291050
C154  C     C_R   0.132781 0.181798 0.816838 -0.295332
C155  C     C_R   0.687864 0.295876 0.766860 -0.112124
C156  C     C_R   0.794153 0.776999 0.326627 0.886588
C157  C     C_R   0.313200 0.704169 0.232935 -0.120212
C158  C     C_R   0.321987 0.274714 0.225149 -0.125126
C159  C     C_R   0.687120 0.703647 0.766777 -0.117906
C160  C     C_R   0.186967 0.796144 0.766866 -0.118119
C161  C     C_R   0.822863 0.226903 0.225298 -0.124729
C162  C     C_R   0.813087 0.795986 0.232998 -0.119786
C163  C     C_R   0.178420 0.224755 0.774650 -0.114743
C164  C     C_R   0.721216 0.287193 0.809125 0.055364
C165  C     C_R   0.281353 0.714589 0.188617 0.059217
C166  C     C_R   0.295285 0.249443 0.176075 0.070899
C167  C     C_R   0.201258 0.233136 0.676933 0.859090
C168  C     C_R   0.719017 0.713888 0.811017 0.060385
C169  C     C_R   0.218891 0.785908 0.811081 0.060567
C170  C     C_R   0.797402 0.255038 0.175584 0.069602
C171  C     C_R   0.781287 0.785529 0.188635 0.058880
C172  C     C_R   0.205508 0.249414 0.823399 0.054332
C173  C     C_R   0.690760 0.129583 0.536855 0.898003
C174  C     C_R   0.308427 0.871054 0.467550 0.880389
C175  C     C_R   0.303284 0.127983 0.483233 0.892081
C176  C     C_R   0.691262 0.870502 0.535558 0.882541
C177  C     C_R   0.191201 0.629653 0.536080 0.884146
C178  C     C_R   0.902526 0.501222 0.499453 0.067520
C179  C     C_R   0.804247 0.372066 0.480662 0.872422
C180  C     C_R   0.808533 0.629043 0.467327 0.879176
C181  C     C_R   0.190905 0.370510 0.536713 0.880927
C182  C     C_R   0.697703 0.297074 0.902789 0.075934
C183  C     C_R   0.307315 0.711462 0.093962 0.079104
C184  C     C_R   0.313171 0.274920 0.087780 0.075483
C185  C     C_R   0.693116 0.710603 0.905649 0.078552
C186  C     C_R   0.192960 0.789042 0.905723 0.078488
C187  C     C_R   0.817671 0.233904 0.085141 0.076846
C188  C     C_R   0.807238 0.788749 0.093986 0.079034
Cl1   Cl    Cl    0.014595 0.223248 0.619653 -0.583647
Cl2   Cl    Cl    0.960860 0.780898 0.466720 -0.573705
Cl3   Cl    Cl    0.917901 0.223677 0.578163 -0.597638
Cl4   Cl    Cl    0.045213 0.783712 0.536827 -0.571299
Cl5   Cl    Cl    0.548025 0.717167 0.531062 -0.575372
Cl6   Cl    Cl    0.398367 0.268351 0.627539 -0.608113
Cl7   Cl    Cl    0.463324 0.720383 0.461617 -0.579184
Cl8   Cl    Cl    0.504077 0.272496 0.645024 -0.590613
H1    H     H_    0.784455 0.499375 0.440833 0.195696
H2    H     H_    0.349078 0.165188 0.589427 0.221563
H3    H     H_    0.416119 0.827188 0.423223 0.219695
H4    H     H_    0.581710 0.178003 0.611947 0.217887
H5    H     H_    0.612907 0.335591 0.780397 0.203432
H6    H     H_    0.386840 0.661553 0.221929 0.199188
H7    H     H_    0.386427 0.338346 0.220955 0.195446
H8    H     H_    0.613569 0.661061 0.777757 0.199408
H9    H     H_    0.113239 0.838547 0.777971 0.199830
H10   H     H_    0.885376 0.159350 0.222396 0.197845
H11   H     H_    0.886538 0.838811 0.222136 0.199310
H12   H     H_    0.221838 0.500060 0.551017 0.200614
H13   H     H_    0.113525 0.161938 0.779193 0.204041
H14   H     H_    0.576522 0.337063 0.087255 0.167758
H15   H     H_    0.431406 0.674958 0.914046 0.165064
H16   H     H_    0.425712 0.343584 0.908831 0.191214
H17   H     H_    0.569135 0.674240 0.085666 0.166438
H18   H     H_    0.068792 0.825088 0.085696 0.165660
H19   H     H_    0.931404 0.163491 0.908687 0.184567
H20   H     H_    0.931157 0.825545 0.914066 0.165731
H21   H     H_    0.075248 0.155403 0.090763 0.175739
H22   H     H_    0.628754 0.319923 0.161391 0.153356
H23   H     H_    0.284289 0.001100 0.441168 0.195183
H24   H     H_    0.386142 0.709006 0.834129 0.157754
H25   H     H_    0.373565 0.325893 0.836460 0.200410
H26   H     H_    0.614397 0.707946 0.165448 0.160684
H27   H     H_    0.114114 0.791332 0.165523 0.159859
H28   H     H_    0.885401 0.194470 0.829992 0.185756
H29   H     H_    0.886004 0.791338 0.834159 0.159390
H30   H     H_    0.127750 0.171867 0.162464 0.155077
H31   H     H_    0.800605 0.272314 0.689970 0.194262
H32   H     H_    0.200616 0.717694 0.306729 0.190119
H33   H     H_    0.242592 0.164737 0.267403 0.182949
H34   H     H_    0.721748 0.000050 0.549689 0.202294
H35   H     H_    0.799702 0.717132 0.692818 0.187565
H36   H     H_    0.299580 0.782917 0.692868 0.187505
H37   H     H_    0.741489 0.336209 0.270717 0.184718
H38   H     H_    0.700539 0.782302 0.306708 0.191007
H39   H     H_    0.258294 0.334251 0.732334 0.191631
H40   H     H_    0.850023 0.246107 0.762451 0.194423
H41   H     H_    0.152726 0.748783 0.231767 0.161829
H42   H     H_    0.188598 0.147217 0.199079 0.153828
H43   H     H_    0.847632 0.748060 0.767830 0.158677
H44   H     H_    0.347630 0.752182 0.767857 0.157706
H45   H     H_    0.082809 0.322796 0.611752 0.215596
H46   H     H_    0.687759 0.353217 0.201736 0.153618
H47   H     H_    0.652774 0.751027 0.231709 0.163106
H48   H     H_    0.312355 0.351293 0.800575 0.178838
H49   H     H_    0.915931 0.674388 0.423765 0.220066
H50   H     H_    0.858661 0.331185 0.573179 0.201330
H51   H     H_    0.084503 0.682035 0.597952 0.219751
H52   H     H_    0.584751 0.818280 0.596986 0.220126
O1    O     O_R   0.746490 0.236330 0.638080 -0.639482
O2    O     O_R   0.325830 0.813840 0.483730 -0.635892
O3    O     O_R   0.325830 0.186160 0.483730 -0.626493
O4    O     O_R   0.674170 0.813840 0.516270 -0.631467
O5    O     O_R   0.174170 0.686160 0.516270 -0.631993
O6    O     O_R   0.825830 0.313840 0.483730 -0.633135
O7    O     O_R   0.825830 0.686160 0.483730 -0.636534
O8    O     O_R   0.174170 0.313840 0.516270 -0.617493
O9    O     O_R   0.739960 0.127620 0.525000 -0.613266
O10   O     O_R   0.260040 0.872380 0.475000 -0.615490
O11   O     O_R   0.260040 0.127620 0.475000 -0.630391
O12   O     O_R   0.253510 0.763670 0.361920 -0.633074
O13   O     O_R   0.739960 0.872380 0.525000 -0.620773
O14   O     O_R   0.239960 0.627620 0.525000 -0.623566
O15   O     O_R   0.760040 0.372380 0.475000 -0.633864
O16   O     O_R   0.760040 0.627620 0.475000 -0.616304
O17   O     O_R   0.239960 0.372380 0.525000 -0.625254
O18   O     O_R   0.680700 0.294870 0.629350 -0.617122
O19   O     O_R   0.319300 0.705130 0.370650 -0.615238
O20   O     O_R   0.319300 0.294870 0.370650 -0.609846
O21   O     O_R   0.680700 0.705130 0.629350 -0.616747
O22   O     O_R   0.180700 0.794870 0.629350 -0.616370
O23   O     O_R   0.253510 0.236330 0.361920 -0.636563
O24   O     O_R   0.819300 0.205130 0.370650 -0.607688
O25   O     O_R   0.819300 0.794870 0.370650 -0.615182
O26   O     O_R   0.180700 0.205130 0.629350 -0.614004
O27   O     O_R   0.062020 0.072840 0.007170 -0.627275
O28   O     O_R   0.937980 0.927160 0.992830 -0.614630
O29   O     O_R   0.937980 0.072840 0.992830 -0.619159
O30   O     O_R   0.062020 0.927160 0.007170 -0.616888
O31   O     O_R   0.562020 0.572840 0.007170 -0.617151
O32   O     O_R   0.437980 0.427160 0.992830 -0.623836
O33   O     O_R   0.437980 0.572840 0.992830 -0.615820
O34   O     O_R   0.746490 0.763670 0.638080 -0.633132
O35   O     O_R   0.562020 0.427160 0.007170 -0.623143
O36   O     O_R   0.947860 0.073950 0.109290 -0.615343
O37   O     O_R   0.052140 0.926050 0.890710 -0.612331
O38   O     O_R   0.052140 0.073950 0.890710 -0.609732
O39   O     O_R   0.947860 0.926050 0.109290 -0.613541
O40   O     O_R   0.447860 0.573950 0.109290 -0.613838
O41   O     O_R   0.552140 0.426050 0.890710 -0.605373
O42   O     O_R   0.552140 0.573950 0.890710 -0.612423
O43   O     O_R   0.447860 0.426050 0.109290 -0.616615
O44   O     O_R   0.246490 0.736330 0.638080 -0.635756
O45   O     O_R   0.753510 0.263670 0.361920 -0.640797
O46   O     O_R   0.753510 0.736330 0.361920 -0.632700
O47   O     O_R   0.246490 0.263670 0.638080 -0.642332
O48   O     O_R   0.674170 0.186160 0.516270 -0.622420
Zn1   Zn    Zn3+2 0.792340 0.208750 0.507670 1.037794
Zn2   Zn    Zn3+2 0.494040 0.500000 0.919480 0.991164
Zn3   Zn    Zn3+2 0.005960 0.000000 0.080520 0.970814
Zn4   Zn    Zn3+2 0.994040 0.000000 0.919480 0.994701
Zn5   Zn    Zn3+2 0.207660 0.791250 0.492330 1.033037
Zn6   Zn    Zn3+2 0.207660 0.208750 0.492330 1.019398
Zn7   Zn    Zn3+2 0.792340 0.791250 0.507670 1.030290
Zn8   Zn    Zn3+2 0.292340 0.708750 0.507670 1.023880
Zn9   Zn    Zn3+2 0.707660 0.291250 0.492330 1.006288
Zn10  Zn    Zn3+2 0.707660 0.708750 0.492330 1.032270
Zn11  Zn    Zn3+2 0.292340 0.291250 0.507670 1.019215
Zn12  Zn    Zn3+2 0.505960 0.500000 0.080520 0.969230

loop_
_geom_bond_atom_site_label_1
_geom_bond_atom_site_label_2
_ccdc_geom_bond_type
O32   Zn2   S    
C108  C120  A    
C16   H26   S    
O17   Zn11  S    
O5    Zn5   S    
C88   C177  S    
O13   Zn7   S    
O14   Zn8   S    
C50   C59   A    
C41   C143  S    
C8    H18   S    
C52   C61   A    
C180  O16   A    
C12   C126  A    
C54   C63   A    
C40   O28   A    
C58   C60   A    
C43   O42   A    
C58   Cl7   S    
C45   C139  S    
C61   C63   A    
C103  C126  A    
C95   C175  S    
C62   C64   A    
C131  C140  A    
C91   C96   A    
C179  O6    A    
C179  O15   A    
C50   C90   A    
C162  C171  A    
C170  C187  A    
C70   C74   A    
C4    C12   A    
C34   H44   S    
C24   C85   A    
C112  O20   A    
O8    Zn6   S    
C88   C97   A    
C119  C128  A    
C68   H51   S    
C49   C69   A    
C14   H24   S    
O26   Zn6   S    
C12   H22   S    
O27   Zn3   S    
C109  C118  A    
C21   H31   S    
C173  O48   A    
C11   C20   A    
C150  C159  A    
C165  C183  A    
C137  C146  A    
C166  C184  A    
O15   Zn9   S    
C86   C90   A    
C71   C73   A    
C106  C127  A    
C82   C91   A    
C51   C66   A    
C89   C181  S    
C142  C151  A    
C173  O9    A    
C52   C72   A    
C131  C184  A    
C105  C114  A    
C54   C70   A    
C82   C178  A    
C36   C117  A    
C7    C132  A    
C112  C158  S    
C38   C119  A    
C5    C130  A    
C83   C100  A    
C47   O41   A    
C79   C85   A    
C66   C77   A    
C40   O39   A    
C57   C78   A    
O33   Zn2   S    
C176  O4    A    
O46   Zn10  S    
O36   Zn3   S    
C8    C17   A    
C56   C59   A    
C106  C115  A    
C80   C88   A    
O6    Zn1   S    
C145  C161  S    
O2    Zn8   S    
C93   C173  S    
C84   C93   A    
C105  C184  A    
O7    Zn7   S    
C86   C95   A    
C24   C77   A    
C104  C183  A    
C43   O31   A    
O3    Zn11  S    
O43   Zn12  S    
C2    C81   A    
C55   C71   A    
C2    C75   A    
C28   H38   S    
C78   C87   A    
C134  C160  S    
C84   C102  A    
C67   C77   A    
C148  H6    S    
C9    H19   S    
C133  C142  A    
C45   O40   A    
C123  C159  S    
C33   H43   S    
C152  H10   S    
C130  C183  A    
C1    O1    A    
C22   H32   S    
C3    C110  A    
C20   H30   S    
C69   C76   A    
C85   C94   A    
C29   H39   S    
C46   C82   A    
C29   C38   A    
C149  C158  A    
C20   C122  A    
C152  C161  A    
C135  C143  A    
C48   C67   A    
C153  H11   S    
C136  C188  A    
C72   C75   A    
C112  O23   A    
C135  C187  A    
C180  O7    A    
C141  C150  A    
O22   Zn5   S    
C25   C168  A    
C139  C148  A    
C104  C125  A    
C147  H5    S    
C157  C165  A    
C92   C174  S    
C17   H27   S    
C181  O8    A    
C175  O3    A    
C91   C180  S    
C151  H9    S    
C23   H33   S    
C47   O35   A    
C9    C135  A    
C35   H45   S    
C116  C125  A    
O37   Zn4   S    
C118  C127  A    
O20   Zn11  S    
C147  C155  A    
O35   Zn12  S    
C117  C126  A    
C39   O27   A    
C132  C141  A    
C11   H21   S    
C59   Cl6   S    
C108  C117  A    
C57   H50   S    
C110  C119  A    
C174  O10   A    
C62   Cl3   S    
C134  O22   A    
C63   Cl2   S    
C36   H46   S    
C19   H29   S    
C10   H20   S    
C44   O32   A    
C28   C37   A    
C47   C138  S    
C148  C157  A    
C97   H12   S    
C149  H7    S    
C50   C65   A    
C51   C79   A    
C107  C116  A    
C41   O29   A    
C104  C113  A    
C9    C18   A    
C113  C121  A    
C51   C60   A    
C30   H40   S    
C140  C149  A    
C31   C113  A    
C25   C33   A    
O47   Zn11  S    
C129  C182  A    
C37   H47   S    
C44   O43   A    
C73   C74   A    
O42   Zn2   S    
C150  H8    S    
C41   O36   A    
C64   Cl1   S    
C107  C186  A    
C65   C76   A    
O39   Zn3   S    
C171  C188  A    
C145  O24   A    
C134  O44   A    
C169  C186  A    
C42   O30   A    
C151  C160  A    
C3    C172  A    
O48   Zn9   S    
C103  C111  A    
C56   Cl8   S    
C1    O18   A    
C65   C67   A    
C160  C169  A    
C3    C137  A    
C18   H28   S    
C93   C99   A    
C81   C89   A    
C123  O21   A    
C8    C133  A    
C101  C157  S    
C44   C140  S    
C21   C164  A    
C98   H23   S    
O19   Zn8   S    
C130  C139  A    
C167  O26   A    
O28   Zn4   S    
O12   Zn5   S    
C5    H15   S    
C33   C115  A    
C53   C57   A    
C132  C185  A    
C177  O14   A    
C102  H4    S    
O29   Zn4   S    
O30   Zn3   S    
C10   C19   A    
C48   C102  A    
C46   C54   A    
C27   C170  A    
C5    C14   A    
O34   Zn7   S    
C181  O17   A    
C17   C121  A    
C143  C152  A    
C15   C128  A    
C43   C141  S    
C107  C121  A    
O16   Zn10  S    
C158  C166  A    
C25   H35   S    
C115  C124  A    
C39   O38   A    
C78   C178  A    
C106  C185  A    
C6    C131  A    
C123  O34   A    
C4    C129  A    
C27   C36   A    
C38   H48   S    
C21   C30   A    
C13   C83   A    
O11   Zn6   S    
O4    Zn10  S    
C156  O46   A    
C153  C162  A    
C23   C32   A    
C11   C137  A    
C136  C144  A    
C110  C122  A    
O31   Zn12  S    
C32   H42   S    
C39   C146  S    
C42   O37   A    
C164  C182  A    
O21   Zn10  S    
C176  O13   A    
O23   Zn6   S    
O18   Zn9   S    
C94   C176  S    
C68   C80   A    
O1    Zn1   S    
C74   C178  A    
C103  C182  A    
C108  C187  A    
C35   C81   A    
C95   C98   A    
C92   C98   A    
C83   C92   A    
C14   C125  A    
O41   Zn2   S    
C10   C136  A    
C154  H13   S    
C66   C69   A    
C6    H16   S    
C34   C116  A    
C101  O12   A    
C4    H14   S    
C159  C168  A    
C144  C153  A    
C1    C155  S    
C6    C15   A    
C22   C165  A    
C26   C34   A    
O40   Zn12  S    
C129  C138  A    
C26   C169  A    
C146  C154  A    
C13   C86   A    
C42   C142  S    
C61   Cl4   S    
C52   C68   A    
C31   H41   S    
C156  C162  S    
O38   Zn4   S    
C16   C127  A    
C109  C188  A    
C167  O47   A    
C96   H1    S    
C19   C124  A    
C45   O33   A    
C22   C31   A    
C37   C118  A    
C35   C55   A    
C154  C163  A    
C174  O2    A    
C26   H36   S    
C49   C58   A    
C89   C97   A    
C111  C120  A    
C15   H25   S    
C163  C167  S    
C163  C172  A    
C23   C166  A    
O45   Zn9   S    
C53   C62   A    
C28   C171  A    
C13   C76   A    
C138  C147  A    
C87   C96   A    
C156  O25   A    
C60   Cl5   S    
C7    H17   S    
C133  C186  A    
C161  C170  A    
C40   C144  S    
C18   C120  A    
C99   H34   S    
O9    Zn1   S    
C48   C56   A    
C7    C16   A    
C168  C185  A    
C105  C128  A    
O10   Zn5   S    
C53   C73   A    
O25   Zn7   S    
C46   H49   S    
C109  C124  A    
C90   H2    S    
C55   C64   A    
C155  C164  A    
C177  O5    A    
C30   C111  A    
C79   H52   S    
C24   C84   A    
C145  O45   A    
C49   C100  A    
C71   C75   A    
C94   C99   A    
O44   Zn8   S    
C29   C172  A    
C101  O19   A    
C2    C80   A    
C27   H37   S    
C87   C179  S    
C114  C122  A    
C100  H3    S    
C70   C72   A    
C32   C114  A    
O24   Zn1   S    
C175  O11   A    
