data_mof_unit_16485.cif
_audit_creation_date              2013-03-05T15:52:43-0500
_audit_creation_method            fapswitch 2.2
_symmetry_space_group_name_H-M    P1
_symmetry_Int_Tables_number       1
_space_group_crystal_system       triclinic
_cell_length_a                    10.70739
_cell_length_b                    10.77213
_cell_length_c                    16.982543
_cell_angle_alpha                 99.608355
_cell_angle_beta                  99.417741
_cell_angle_gamma                 61.48627
_cell_volume                      1689.06270425

loop_
_atom_site_label
_atom_site_type_symbol
_atom_site_description
_atom_site_fract_x
_atom_site_fract_y
_atom_site_fract_z
_atom_type_partial_charge
O1    O     O_R   0.749250 0.499990 0.439200 -0.456983
O2    O     O_R   0.477870 0.725740 0.440280 -0.493196
C1    C     C_R   0.354883 0.775285 0.401562 0.582685
O3    O     O_R   0.260770 0.742210 0.412610 -0.458772
O4    O     O_R   0.297990 0.466320 0.394220 -0.463070
C2    C     C_R   0.370149 0.346719 0.357097 0.586206
O5    O     O_R   0.487720 0.253870 0.385870 -0.487957
O6    O     O_R   0.721940 0.304340 0.422320 -0.467675
C3    C     C_R   0.779681 0.375242 0.405694 0.562360
O7    O     O_R   0.750770 0.502570 0.614050 -0.459664
O8    O     O_R   0.479280 0.728140 0.602370 -0.465739
C4    C     C_R   0.381356 0.713746 0.631334 0.537309
O9    O     O_R   0.262290 0.744790 0.587460 -0.464763
O10   O     O_R   0.299400 0.468710 0.556310 -0.482690
C5    C     C_R   0.364733 0.345714 0.579732 0.548652
O11   O     O_R   0.489240 0.256450 0.560730 -0.450355
O12   O     O_R   0.723350 0.306730 0.584410 -0.501958
C6    C     C_R   0.771583 0.381900 0.630000 0.577723
Cr1   Cr    Cr6+3 0.608020 0.610770 0.522990 1.141335
Cr2   Cr    Cr6+3 0.289390 0.599570 0.488050 1.160866
Cr3   Cr    Cr6+3 0.602610 0.289690 0.489020 1.142578
O13   O     O_3   0.500010 0.500010 0.500020 -0.340610
C7    C     C_1   0.344248 0.336849 0.273703 0.075592
C8    C     C_1   0.332294 0.327334 0.202779 0.071412
C9    C     C_2   0.869350 0.318670 0.338520 0.181168
C10   C     C_2   0.837903 0.323818 0.162528 -0.077776
C11   C     C_2   0.882188 0.207011 0.200170 -0.093029
C12   C     C_2   0.860904 0.214420 0.284034 0.154861
H1    H     H_    0.939218 0.101066 0.169880 0.181519
H2    H     H_    0.779483 0.429768 0.192415 0.151205
C13   C     C_2   0.330609 0.849661 0.332355 -0.048751
C14   C     C_2   0.350938 0.816046 0.155909 0.198739
C15   C     C_2   0.421724 0.865680 0.215207 -0.142375
C16   C     C_2   0.441779 0.834420 0.297943 -0.107338
H3    H     H_    0.452296 0.944239 0.205332 0.154174
H4    H     H_    0.549317 0.790865 0.328119 0.190645
H5    H     H_    0.223787 0.895546 0.301046 0.156175
C17   C     C_2   0.298783 0.314167 0.637085 0.193002
C18   C     C_2   0.317219 0.308305 0.811273 -0.098237
C19   C     C_2   0.351441 0.194071 0.756205 -0.064297
C20   C     C_2   0.376430 0.197023 0.675351 0.339665
H6    H     H_    0.375303 0.091157 0.772735 0.165273
H7    H     H_    0.294608 0.412117 0.797182 0.121134
C21   C     C_1   0.814643 0.343244 0.709156 0.036750
C22   C     C_1   0.841968 0.314358 0.776779 0.000445
C23   C     C_1   0.358666 0.763315 0.713561 -0.011344
C24   C     C_1   0.326160 0.810778 0.780540 -0.019315
O14   O     O_R   0.170650 0.915100 0.051290 -0.468562
O15   O     O_R   0.941960 0.184500 0.049060 -0.507773
C25   C     C_R   0.895064 0.307145 0.087410 0.554590
O16   O     O_R   0.922640 0.402670 0.071640 -0.480002
O17   O     O_R   0.196880 0.368740 0.083740 -0.462066
C26   C     C_R   0.319235 0.300021 0.119524 0.588626
O18   O     O_R   0.411120 0.181190 0.091480 -0.507597
O19   O     O_R   0.364220 0.944920 0.062310 -0.524153
C27   C     C_R   0.294784 0.890155 0.083583 0.547456
O20   O     O_R   0.158740 0.906940 0.874970 -0.480941
O21   O     O_R   0.930920 0.176940 0.885610 -0.488701
C28   C     C_R   0.884896 0.297217 0.858877 0.545501
O22   O     O_R   0.910730 0.394510 0.895320 -0.498328
O23   O     O_R   0.185840 0.361180 0.920280 -0.469085
C29   C     C_R   0.305384 0.288829 0.891002 0.551005
O24   O     O_R   0.399210 0.173040 0.915160 -0.510410
O25   O     O_R   0.353170 0.937370 0.898860 -0.504243
C30   C     C_R   0.280650 0.880793 0.857263 0.548545
Cr4   Cr    Cr6+3 0.053780 0.052210 0.965970 1.085338
Cr5   Cr    Cr6+3 0.060060 0.372530 0.992430 1.116686
Cr6   Cr    Cr6+3 0.372600 0.061970 0.991430 1.061777
O26   O     O_3   0.162150 0.162240 0.983280 -0.285947
F1    F     F_    0.495350 0.085641 0.646289 -0.598228
N1    N     N_R   0.156336 0.415165 0.657564 0.032321
O27   O     O_R   0.072737 0.370658 0.676554 -0.351931
O28   O     O_R   0.108892 0.550969 0.656676 -0.291650
N2    N     N_R   0.832285 0.107269 0.305493 0.083190
O29   O     O_R   0.758766 0.056971 0.254371 -0.311270
O30   O     O_R   0.902863 0.040618 0.368210 -0.300413
N3    N     N_R   0.951966 0.386206 0.325449 0.044255
O31   O     O_R   0.073368 0.310614 0.294776 -0.380196
O32   O     O_R   0.912138 0.519992 0.348703 -0.283061
N4    N     N_R   0.321391 0.701660 0.164834 0.065382
O33   O     O_R   0.412294 0.598925 0.207077 -0.372903
O34   O     O_R   0.215669 0.688293 0.121411 -0.302790

loop_
_geom_bond_atom_site_label_1
_geom_bond_atom_site_label_2
_geom_bond_distance
_ccdc_geom_bond_type
O19   C27   1.268505 A    
O11   Cr3   2.032038 S    
C11   H1    1.086931 S    
O20   Cr4   2.045029 S    
C12   N2    1.440018 S    
O19   Cr6   1.922716 S    
C3    C9    1.470489 S    
O4    Cr2   1.940683 S    
N3    O31   1.301367 A    
C21   C22   1.193187 T    
C9    C12   1.359479 D    
O8    Cr1   1.921254 S    
C10   C11   1.347733 D    
N2    O30   1.301861 A    
C9    N3    1.446943 S    
O25   Cr6   1.942008 S    
C24   C30   1.425755 S    
C10   C25   1.452022 S    
O4    C2    1.261816 A    
Cr4   O26   1.980610 S    
O18   Cr6   2.062600 S    
C5    O11   1.272530 A    
C17   N1    1.447045 S    
O21   Cr4   1.932706 S    
O22   Cr5   2.058728 S    
Cr6   O26   1.971695 S    
C7    C8    1.182585 T    
C19   H6    1.087695 S    
C28   O22   1.249877 A    
Cr3   O13   1.980980 S    
C25   O16   1.275038 A    
N3    O32   1.301206 A    
O1    Cr1   2.037183 S    
O15   Cr4   1.925638 S    
O10   Cr2   1.924312 S    
Cr1   O13   1.981817 S    
O1    C3    1.274022 A    
C17   C20   1.342075 D    
C4    C23   1.425622 S    
N2    O29   1.301347 A    
C18   C19   1.349291 D    
N1    O28   1.301423 A    
O6    C3    1.274854 A    
C18   H7    1.085493 S    
C8    C26   1.393158 S    
C26   O18   1.257294 A    
O12   Cr3   1.941968 S    
C13   H5    1.088216 S    
Cr5   O26   1.981024 S    
C5    C17   1.458607 S    
C29   O24   1.254167 A    
C6    C21   1.412009 S    
C14   N4    1.446229 S    
O23   Cr5   1.913875 S    
O7    Cr1   2.052671 S    
O12   C6    1.257364 A    
C13   C16   1.339572 D    
O16   Cr5   2.031218 S    
C1    C13   1.451325 S    
O17   Cr5   1.942429 S    
N4    O34   1.301138 A    
C19   C20   1.449473 S    
Cr2   O13   1.972560 S    
C10   H2    1.086462 S    
C1    O3    1.266725 A    
O17   C26   1.263864 A    
O14   C27   1.268564 A    
C18   C29   1.438660 S    
C23   C24   1.200801 T    
C22   C28   1.408700 S    
O9    Cr2   2.055914 S    
O2    Cr1   1.934208 S    
O20   C30   1.273910 A    
N4    O33   1.301869 A    
O6    Cr3   1.914779 S    
O8    C4    1.309518 A    
C2    O5    1.258422 A    
O24   Cr6   2.038131 S    
O25   C30   1.265705 A    
O2    C1    1.270472 A    
O21   C28   1.281088 A    
N1    O27   1.300371 A    
O5    Cr3   2.062317 S    
C14   C15   1.353442 D    
O7    C6    1.278244 A    
C2    C7    1.394023 S    
C15   H3    1.086844 S    
C15   C16   1.457354 S    
C16   H4    1.086260 S    
O23   C29   1.272606 A    
O3    Cr2   2.043367 S    
C4    O9    1.287477 A    
O15   C25   1.268127 A    
C11   C12   1.462068 S    
O10   C5    1.266092 A    
O14   Cr4   2.050185 S    
C14   C27   1.461118 S    
C20   F1    1.361576 S    
