data_mof_unit_25275.cif
_audit_creation_date              2012-12-10T17:22:40-0500
_audit_creation_method            fapswitch 2.2
_symmetry_space_group_name_H-M    P1
_symmetry_Int_Tables_number       1
_space_group_crystal_system       triclinic
_cell_length_a                    10.667973
_cell_length_b                    10.878646
_cell_length_c                    9.652852
_cell_angle_alpha                 90.131045
_cell_angle_beta                  87.814397
_cell_angle_gamma                 94.047729
_cell_volume                      1116.63607321

loop_
_atom_site_label
_atom_site_type_symbol
_atom_type_description
_atom_site_fract_x
_atom_site_fract_y
_atom_site_fract_z
_atom_type_partial_charge
C1    C     C_R   0.485879 0.262266 0.500673 0.930034
C2    C     C_3   0.965665 0.476443 0.366663 -0.247797
C3    C     C_3   0.040259 0.399042 0.463637 0.515891
C4    C     C_3   0.123556 0.512757 0.502116 -0.167768
C5    C     C_R   0.305356 0.104338 0.696882 0.471585
C6    C     C_R   0.241857 0.025198 0.797728 -0.364600
C7    C     C_R   0.246885 0.899493 0.790139 0.643642
C8    C     C_R   0.319487 0.848956 0.687202 -0.259398
C9    C     C_R   0.399995 0.923640 0.596834 -0.154374
C10   C     C_R   0.394216 0.054187 0.600085 -0.044935
C11   C     C_R   0.471673 0.126334 0.500181 -0.268864
C12   C     C_R   0.260386 0.507100 0.501561 0.845223
C13   C     C_R   0.543868 0.067136 0.397427 0.358955
C14   C     C_R   0.557156 0.941630 0.404866 0.438298
C15   C     C_R   0.483781 0.869332 0.501389 -0.238153
C16   C     C_R   0.691784 0.632463 0.140622 -0.189389
C17   C     C_R   0.804966 0.667352 0.072864 -0.340006
C18   C     C_R   0.812513 0.663975 0.930464 0.531757
C19   C     C_R   0.702117 0.638074 0.857908 0.438620
C20   C     C_R   0.596956 0.566904 0.923253 0.010518
C21   C     C_R   0.594902 0.565870 0.072317 0.049492
C22   C     C_R   0.410895 0.433279 0.077522 0.591457
C23   C     C_R   0.495414 0.736585 0.500303 0.834474
C24   C     C_R   0.409608 0.436814 0.929679 -0.127636
C25   C     C_R   0.740395 0.498982 0.497645 0.817823
C26   C     C_3   0.034706 0.538150 0.626766 -0.220922
C27   C     C_3   0.950966 0.421322 0.588931 -0.278227
C28   C     C_3   0.877668 0.501633 0.493264 -0.116823
C29   C     C_3   0.958799 0.618437 0.531678 -0.167628
C30   C     C_3   0.048696 0.591128 0.408162 0.475700
Cu1   Cu    Cu3+1 0.499990 0.499990 0.640660 1.002593
Cu2   Cu    Cu3+1 0.500010 0.500010 0.359340 1.023075
H1    H     H_    0.907288 0.350293 0.661560 0.139273
H2    H     H_    0.309303 0.749990 0.680046 0.184438
H3    H     H_    0.682622 0.660124 0.245671 0.257270
H4    H     H_    0.883164 0.707454 0.129897 0.231386
H5    H     H_    0.334457 0.387699 0.877708 0.181274
H6    H     H_    0.066098 0.563751 0.731923 0.235411
H7    H     H_    0.922823 0.708665 0.560204 0.181144
H8    H     H_    0.935303 0.451701 0.260839 0.154282
H9    H     H_    0.182093 0.058325 0.880202 0.161229
N1    N     N_R   0.501210 0.501210 0.147910 -0.214784
N2    N     N_R   0.501250 0.501290 0.852040 -0.196003
O1    O     O_R   0.499990 0.319640 0.618810 -0.559730
O2    O     O_R   0.500000 0.319660 0.381240 -0.534963
O3    O     O_R   0.316850 0.499960 0.618770 -0.594778
O4    O     O_R   0.316860 0.499980 0.381190 -0.495094
O5    O     O_R   0.500000 0.680340 0.618760 -0.540779
O6    O     O_R   0.500010 0.680360 0.381190 -0.573690
O7    O     O_R   0.683140 0.500020 0.618810 -0.539604
O8    O     O_R   0.683150 0.500040 0.381230 -0.630478
F1    F     F_    0.177118 0.825391 0.880929 -0.611774
O9    O     O_3   0.642080 0.890294 0.313612 -0.543593
C31   C     C_3   0.754439 0.874915 0.383001 -0.391251
H10   H     H_    0.744986 0.790056 0.447108 0.176004
H11   H     H_    0.783853 0.955378 0.448857 0.133048
H12   H     H_    0.831452 0.864267 0.304485 0.197476
O10   O     O_3   0.317061 0.365432 0.152172 -0.538781
C32   C     C_3   0.328545 0.238771 0.127712 -0.263047
H13   H     H_    0.427447 0.213215 0.131747 0.203165
H14   H     H_    0.290507 0.211159 0.026379 0.127273
H15   H     H_    0.272758 0.185347 0.209385 0.209385
F2    F     F_    0.917741 0.714834 0.863660 -0.627090
O11   O     O_3   0.693240 0.704377 0.738006 -0.538486
C33   C     C_3   0.676500 0.829099 0.773288 -0.263436
H16   H     H_    0.585831 0.837417 0.832377 0.175469
H17   H     H_    0.755522 0.872428 0.832210 0.186517
H18   H     H_    0.674474 0.883685 0.677130 0.154742
O12   O     O_3   0.099809 0.674840 0.305917 -0.549947
C34   C     C_3   0.153111 0.781561 0.369487 -0.249825
H19   H     H_    0.226139 0.758702 0.441890 0.133516
H20   H     H_    0.079796 0.833762 0.423430 0.132094
H21   H     H_    0.199654 0.842503 0.288023 0.206796
O13   O     O_3   0.100309 0.290245 0.432140 -0.547142
C35   C     C_3   0.012167 0.198344 0.388287 -0.358999
H22   H     H_    0.974343 0.224498 0.287794 0.163712
H23   H     H_    0.936706 0.178241 0.469261 0.137427
H24   H     H_    0.060518 0.112314 0.370969 0.187645
O14   O     O_3   0.592431 0.129837 0.280335 -0.556210
C36   C     C_3   0.716498 0.176909 0.301050 -0.260144
H25   H     H_    0.782624 0.106987 0.269771 0.182642
H26   H     H_    0.731904 0.209025 0.409179 0.101030
H27   H     H_    0.737441 0.257850 0.232153 0.183163
O15   O     O_3   0.282303 0.228479 0.689938 -0.561420
C37   C     C_3   0.160999 0.253368 0.742003 -0.281856
H28   H     H_    0.153038 0.248901 0.856567 0.127404
H29   H     H_    0.086048 0.193251 0.693694 0.180785
H30   H     H_    0.146346 0.349567 0.719197 0.205290

loop_
_geom_bond_atom_site_label_1
_geom_bond_atom_site_label_2
_ccdc_geom_bond_type
C13   O14   S    
C16   C21   A    
Cu2   O2    S    
C19   C20   A    
C1    C11   S    
C30   O12   S    
C7    C8    A    
O9    C31   S    
C27   H1    S    
C25   C28   S    
C26   C27   S    
Cu1   N2    S    
C28   C29   S    
C7    F1    S    
C12   O4    A    
C16   H3    S    
C5    C6    A    
C18   F2    S    
C23   O6    A    
C16   C17   A    
C18   C19   A    
C3    O13   S    
C25   O7    A    
C8    C9    A    
C33   H17   S    
C6    H9    S    
C34   H19   S    
C17   H4    S    
C4    C12   S    
C9    C10   A    
C15   C23   S    
C32   H13   S    
C13   C14   A    
C36   H27   S    
C17   C18   A    
C37   H29   S    
C31   H11   S    
C32   H14   S    
C34   H20   S    
Cu1   O1    S    
O15   C37   S    
C12   O3    A    
O13   C35   S    
C5    O15   S    
C26   H6    S    
O10   C32   S    
C37   H28   S    
Cu1   O3    S    
O14   C36   S    
C35   H22   S    
C25   O8    A    
Cu2   O8    S    
C29   C30   S    
C1    O1    A    
Cu1   Cu2   S    
C19   O11   S    
C33   H18   S    
C29   H7    S    
C34   H21   S    
C24   H5    S    
C8    H2    S    
C35   H23   S    
C36   H26   S    
Cu1   O5    S    
Cu2   O4    S    
C22   C24   A    
Cu1   O7    S    
C3    C4    S    
C20   N2    A    
C37   H30   S    
C31   H10   S    
C32   H15   S    
C23   O5    A    
C36   H25   S    
C22   O10   S    
C4    C26   S    
C6    C7    A    
C2    C30   S    
O11   C33   S    
C3    C27   S    
C2    C3    S    
C9    C15   A    
C5    C10   A    
C11   C13   A    
C1    O2    A    
C22   N1    A    
O12   C34   S    
C35   H24   S    
Cu2   O6    S    
C10   C11   A    
C21   N1    A    
C2    H8    S    
C14   O9    S    
C20   C21   A    
C26   C29   S    
C33   H16   S    
C27   C28   S    
C24   N2    A    
Cu2   N1    S    
C14   C15   A    
C2    C28   S    
C4    C30   S    
C31   H12   S    
