data_mof_unit_5278.cif
_audit_creation_date              2012-12-10T18:00:42-0500
_audit_creation_method            fapswitch 2.2
_symmetry_space_group_name_H-M    P1
_symmetry_Int_Tables_number       1
_space_group_crystal_system       triclinic
_cell_length_a                    26.281526
_cell_length_b                    26.256103
_cell_length_c                    26.303526
_cell_angle_alpha                 89.927248
_cell_angle_beta                  89.984112
_cell_angle_gamma                 90.12684
_cell_volume                      18150.7002281

loop_
_atom_site_label
_atom_site_type_symbol
_atom_type_description
_atom_site_fract_x
_atom_site_fract_y
_atom_site_fract_z
_atom_type_partial_charge
C1    C     C_R   0.390152 0.251452 0.248591 0.517241
C2    C     C_R   0.609916 0.250340 0.249606 0.545568
C3    C     C_R   0.973172 0.709291 0.222877 0.209588
C4    C     C_R   0.026830 0.773647 0.710151 0.187687
C5    C     C_R   0.973409 0.216410 0.284939 0.176800
C6    C     C_R   0.026796 0.706590 0.228986 0.180089
C7    C     C_R   0.973077 0.267049 0.794755 0.182477
C8    C     C_R   0.789596 0.728443 0.026801 0.204450
C9    C     C_R   0.224545 0.288394 0.973310 0.203621
C10   C     C_R   0.719835 0.214337 0.026476 0.199947
C11   C     C_R   0.293874 0.766741 0.973358 0.203889
C12   C     C_R   0.227932 0.289567 0.026716 0.189224
C13   C     C_R   0.250317 0.750412 0.390244 0.541992
C14   C     C_R   0.790299 0.730454 0.973411 0.192320
C15   C     C_R   0.295046 0.763853 0.027053 0.187885
C16   C     C_R   0.726948 0.209555 0.973462 0.204678
C17   C     C_R   0.212739 0.720151 0.973511 0.203484
C18   C     C_R   0.783495 0.283104 0.026803 0.195646
C19   C     C_R   0.269522 0.206029 0.972781 0.207220
C20   C     C_R   0.707033 0.772922 0.026558 0.206553
C21   C     C_R   0.776467 0.288523 0.973409 0.184736
C22   C     C_R   0.210482 0.724609 0.027099 0.183703
C23   C     C_R   0.704828 0.767303 0.972767 0.178315
C24   C     C_R   0.750637 0.250249 0.609895 0.540828
C25   C     C_R   0.266733 0.204665 0.026652 0.183384
C26   C     C_R   0.725147 0.473877 0.710585 0.207974
C27   C     C_R   0.297299 0.526833 0.264951 0.201828
C28   C     C_R   0.709264 0.473211 0.277095 0.204998
C29   C     C_R   0.277488 0.526367 0.710060 0.201681
C30   C     C_R   0.298733 0.472915 0.260633 0.176829
C31   C     C_R   0.729127 0.527274 0.708829 0.195128
C32   C     C_R   0.270992 0.472767 0.704648 0.183842
C33   C     C_R   0.705727 0.526945 0.270732 0.179524
C34   C     C_R   0.473632 0.290809 0.275125 0.200110
C35   C     C_R   0.609906 0.749923 0.250095 0.531548
C36   C     C_R   0.526470 0.730938 0.705279 0.203274
C37   C     C_R   0.473335 0.723306 0.290815 0.209054
C38   C     C_R   0.527092 0.294508 0.727804 0.200811
C39   C     C_R   0.472811 0.735743 0.703461 0.176832
C40   C     C_R   0.527412 0.292582 0.271872 0.191454
C41   C     C_R   0.473028 0.296627 0.731389 0.187907
C42   C     C_R   0.527056 0.728505 0.293098 0.185612
C43   C     C_R   0.290932 0.724919 0.526983 0.199493
C44   C     C_R   0.718360 0.282909 0.473840 0.210192
C45   C     C_R   0.718327 0.715323 0.526567 0.200719
C46   C     C_R   0.390124 0.251838 0.751712 0.526496
C47   C     C_R   0.284597 0.280831 0.474158 0.199754
C48   C     C_R   0.727044 0.289106 0.526444 0.199773
C49   C     C_R   0.291649 0.726832 0.473170 0.192239
C50   C     C_R   0.291406 0.273323 0.527082 0.192612
C51   C     C_R   0.725311 0.710208 0.473223 0.188484
C52   C     C_R   0.257940 0.553752 0.240717 -0.020023
C53   C     C_R   0.754370 0.446692 0.746504 -0.032462
C54   C     C_R   0.243779 0.552954 0.742923 -0.028395
C55   C     C_R   0.746283 0.446767 0.247738 -0.022288
C56   C     C_R   0.752442 0.553746 0.748792 -0.024523
C57   C     C_R   0.750304 0.749693 0.609812 0.528381
C58   C     C_R   0.255800 0.446798 0.241627 -0.026105
C59   C     C_R   0.746758 0.553671 0.247989 -0.027503
C60   C     C_R   0.241600 0.445998 0.740722 -0.017885
C61   C     C_R   0.553528 0.757498 0.743238 -0.021778
C62   C     C_R   0.446613 0.255670 0.244371 -0.024956
C63   C     C_R   0.553288 0.257362 0.757107 -0.029941
C64   C     C_R   0.446697 0.752791 0.254086 -0.025537
C65   C     C_R   0.553593 0.253423 0.246272 -0.022147
C66   C     C_R   0.446713 0.757356 0.744969 -0.026481
C67   C     C_R   0.553515 0.751791 0.252289 -0.024436
C68   C     C_R   0.250460 0.249375 0.390378 0.545819
C69   C     C_R   0.446329 0.257938 0.757618 -0.024961
C70   C     C_R   0.751739 0.251132 0.446610 -0.021376
C71   C     C_R   0.256899 0.756802 0.553697 -0.023068
C72   C     C_R   0.254190 0.245400 0.447051 -0.025839
C73   C     C_R   0.752487 0.747361 0.553296 -0.021309
C74   C     C_R   0.253713 0.753982 0.446766 -0.023260
C75   C     C_R   0.753663 0.251583 0.553463 -0.010992
C76   C     C_R   0.752957 0.747971 0.446559 -0.021044
C77   C     C_R   0.256898 0.242625 0.553938 -0.014991
C78   C     C_R   0.751078 0.053867 0.250767 -0.026587
C79   C     C_R   0.247881 0.389996 0.747676 0.527060
C80   C     C_R   0.248372 0.946283 0.750556 -0.032929
C81   C     C_R   0.250360 0.053557 0.250843 -0.023377
C82   C     C_R   0.745537 0.946677 0.747497 -0.031265
C83   C     C_R   0.248746 0.053364 0.750603 -0.020528
C84   C     C_R   0.752166 0.947004 0.250604 -0.023639
C85   C     C_R   0.743471 0.053525 0.745630 -0.015366
C86   C     C_R   0.250294 0.946643 0.251213 -0.019098
C87   C     C_R   0.053670 0.748841 0.249514 -0.032425
C88   C     C_R   0.946272 0.248954 0.751614 -0.029906
C89   C     C_R   0.053653 0.748190 0.748936 -0.017691
C90   C     C_R   0.749518 0.609963 0.249870 0.534026
C91   C     C_R   0.946474 0.252450 0.254748 -0.025169
C92   C     C_R   0.053293 0.248318 0.751690 -0.017764
C93   C     C_R   0.946714 0.749652 0.247795 -0.026554
C94   C     C_R   0.053246 0.252553 0.254670 -0.017881
C95   C     C_R   0.946900 0.749160 0.749818 -0.022401
C96   C     C_R   0.747822 0.748364 0.946320 -0.030487
C97   C     C_R   0.248061 0.247645 0.053586 -0.030398
C98   C     C_R   0.751488 0.249126 0.946437 -0.025057
C99   C     C_R   0.251768 0.746543 0.053825 -0.034096
C100  C     C_R   0.247951 0.248006 0.946606 -0.020913
C101  C     C_R   0.251804 0.609881 0.248106 0.527505
C102  C     C_R   0.748463 0.750437 0.053255 -0.024510
C103  C     C_R   0.252305 0.745605 0.946888 -0.024079
C104  C     C_R   0.750823 0.249278 0.053289 -0.019701
C105  C     C_3   0.149651 0.458881 0.156551 0.066586
C106  C     C_3   0.096914 0.481705 0.166472 -0.230377
C107  C     C_3   0.080414 0.519104 0.125381 -0.483129
C108  C     C_3   0.838116 0.546411 0.851741 0.080261
C109  C     C_3   0.835294 0.513583 0.899618 -0.248478
C110  C     C_3   0.887555 0.499060 0.919722 -0.500743
C111  C     C_3   0.142692 0.457300 0.833395 0.070253
C112  C     C_R   0.609849 0.751458 0.748502 0.528479
C113  C     C_R   0.751112 0.390154 0.749023 0.517922
C114  C     C_3   0.180831 0.472332 0.874914 -0.250652
C115  C     C_3   0.152681 0.501222 0.916101 -0.499023
C116  C     C_3   0.856964 0.546721 0.172002 0.077771
C117  C     C_3   0.907402 0.518935 0.180094 -0.248008
C118  C     C_3   0.933185 0.503523 0.130772 -0.510614
C119  C     C_3   0.870898 0.449389 0.778200 -0.005372
C120  C     C_3   0.883618 0.397616 0.755186 -0.227031
C121  C     C_3   0.932752 0.399369 0.724538 -0.509047
C122  C     C_3   0.224725 0.567721 0.126917 0.015618
C123  C     C_3   0.275159 0.598109 0.131882 -0.256554
C124  C     C_R   0.750026 0.609979 0.750200 0.538707
C125  C     C_3   0.298685 0.609359 0.080028 -0.502021
C126  C     C_3   0.783360 0.451202 0.131957 -0.005148
C127  C     C_3   0.750870 0.403821 0.122475 -0.234836
C128  C     C_3   0.723664 0.406427 0.071562 -0.501280
C129  C     C_3   0.121166 0.555408 0.755104 0.003257
C130  C     C_3   0.118172 0.608607 0.732541 -0.246950
C131  C     C_3   0.070418 0.616957 0.700923 -0.502694
C132  C     C_3   0.463263 0.846433 0.850526 0.063826
C133  C     C_3   0.489075 0.827715 0.899068 -0.236054
C134  C     C_3   0.518832 0.869682 0.925010 -0.498364
C135  C     C_R   0.251016 0.390317 0.248608 0.542618
C136  C     C_3   0.543747 0.150723 0.158164 0.076770
C137  C     C_3   0.512390 0.102328 0.165536 -0.246990
C138  C     C_3   0.493710 0.079931 0.115807 -0.500275
C139  C     C_3   0.455285 0.159404 0.850291 0.064992
C140  C     C_3   0.465616 0.120068 0.808452 -0.259606
C141  C     C_3   0.486840 0.072284 0.833150 -0.497827
C142  C     C_3   0.540429 0.834165 0.143748 0.079695
C143  C     C_3   0.510222 0.820753 0.095787 -0.243158
C144  C     C_3   0.489815 0.867337 0.068185 -0.497014
C145  C     C_3   0.446766 0.227437 0.126971 -0.008458
C146  C     C_R   0.749338 0.390182 0.249586 0.519413
C147  C     C_3   0.393578 0.247644 0.115545 -0.227537
C148  C     C_3   0.392654 0.280309 0.067706 -0.508390
C149  C     C_3   0.564615 0.873298 0.772201 0.013593
C150  C     C_3   0.598482 0.868499 0.724305 -0.256266
C151  C     C_3   0.607173 0.919743 0.698286 -0.501545
C152  C     C_3   0.449680 0.869457 0.223756 -0.009529
C153  C     C_3   0.401342 0.877532 0.254685 -0.237111
C154  C     C_3   0.402229 0.928123 0.282550 -0.502963
C155  C     C_3   0.555334 0.235256 0.877382 0.004686
C156  C     C_3   0.610681 0.247968 0.888502 -0.229525
C157  C     C_R   0.248789 0.609628 0.748783 0.541777
C158  C     C_3   0.616891 0.274926 0.939370 -0.483660
C159  C     C_3   0.845712 0.149915 0.538361 0.070535
C160  C     C_3   0.832305 0.100027 0.511227 -0.231627
C161  C     C_3   0.873707 0.083586 0.474553 -0.485138
C162  C     C_3   0.156186 0.848751 0.458982 0.078925
C163  C     C_3   0.109045 0.842812 0.492592 -0.250477
C164  C     C_3   0.082422 0.893397 0.501791 -0.506056
C165  C     C_3   0.163848 0.144609 0.545112 0.060371
C166  C     C_3   0.122568 0.184478 0.535395 -0.262771
C167  C     C_3   0.073350 0.157215 0.521433 -0.503890
C168  C     C_R   0.890142 0.750000 0.249526 0.556795
C169  C     C_3   0.844425 0.851215 0.462586 0.078157
C170  C     C_3   0.830931 0.897883 0.495240 -0.233973
C171  C     C_3   0.876974 0.920714 0.522316 -0.486861
C172  C     C_3   0.236270 0.875518 0.555174 -0.009001
C173  C     C_3   0.253482 0.886117 0.609525 -0.227697
C174  C     C_3   0.287682 0.932907 0.612696 -0.509864
C175  C     C_3   0.867415 0.246057 0.445823 -0.015135
C176  C     C_3   0.881960 0.260400 0.391546 -0.223045
C177  C     C_3   0.924134 0.300588 0.390498 -0.510791
C178  C     C_3   0.871887 0.767852 0.553322 -0.015308
C179  C     C_R   0.109870 0.249533 0.750457 0.561015
C180  C     C_3   0.879787 0.743787 0.605301 -0.231839
C181  C     C_3   0.929085 0.713931 0.607551 -0.500541
C182  C     C_3   0.237579 0.121438 0.445733 0.003760
C183  C     C_3   0.261687 0.116653 0.393522 -0.248573
C184  C     C_3   0.288191 0.065745 0.386182 -0.489420
C185  C     C_3   0.673801 0.960408 0.140316 0.063532
C186  C     C_3   0.628000 0.973801 0.174076 -0.267087
C187  C     C_3   0.583290 0.989213 0.140417 -0.499778
C188  C     C_3   0.353292 0.039910 0.835608 0.064825
C189  C     C_3   0.316602 0.022076 0.877714 -0.266243
C190  C     C_R   0.250333 0.749447 0.109993 0.524879
C191  C     C_3   0.347508 0.005518 0.924009 -0.505268
C192  C     C_3   0.148350 0.954572 0.339195 0.071285
C193  C     C_3   0.142348 0.987451 0.387314 -0.225299
C194  C     C_3   0.091926 0.016307 0.389386 -0.475349
C195  C     C_3   0.831926 0.040099 0.643601 0.081740
C196  C     C_3   0.873564 0.021035 0.680036 -0.250198
C197  C     C_3   0.906979 0.983547 0.651625 -0.475812
C198  C     C_3   0.372694 0.948428 0.749866 0.017921
C199  C     C_3   0.383707 0.894589 0.731491 -0.247522
C200  C     C_3   0.432071 0.893568 0.699697 -0.503633
C201  C     C_R   0.750507 0.249575 0.890086 0.512574
C202  C     C_3   0.761738 0.055543 0.128017 0.005012
C203  C     C_3   0.789972 0.106437 0.131796 -0.261462
C204  C     C_3   0.821069 0.118064 0.084382 -0.497302
C205  C     C_3   0.748305 0.943567 0.624316 0.002657
C206  C     C_3   0.730741 0.888467 0.620020 -0.244541
C207  C     C_3   0.696885 0.878664 0.574022 -0.496542
C208  C     C_3   0.131949 0.054943 0.261150 -0.017799
C209  C     C_3   0.117432 0.109963 0.250579 -0.215889
C210  C     C_3   0.067726 0.112632 0.221472 -0.493728
C211  C     C_3   0.642915 0.037936 0.840702 0.058875
C212  C     C_R   0.109958 0.749395 0.749540 0.514656
C213  C     C_3   0.599574 0.005674 0.819905 -0.245876
C214  C     C_3   0.569835 0.981061 0.863110 -0.501695
C215  C     C_3   0.343792 0.962160 0.151457 0.063165
C216  C     C_3   0.330095 0.996689 0.106905 -0.241482
C217  C     C_3   0.377374 0.014646 0.079054 -0.500444
C218  C     C_3   0.138549 0.043228 0.670511 0.067645
C219  C     C_3   0.170481 0.025123 0.625058 -0.270154
C220  C     C_3   0.134950 0.008590 0.582120 -0.504635
C221  C     C_3   0.832904 0.963927 0.363773 0.070630
C222  C     C_3   0.882380 0.979502 0.337023 -0.266349
C223  C     C_R   0.251663 0.248213 0.609976 0.525745
C224  C     C_R   0.890122 0.250275 0.250686 0.521381
C225  C     C_3   0.919925 0.003740 0.374676 -0.500763
C226  C     C_3   0.370651 0.054323 0.239773 -0.017803
C227  C     C_3   0.377768 0.107976 0.260435 -0.229612
C228  C     C_3   0.424855 0.113922 0.293739 -0.493976
C229  C     C_3   0.732561 0.946683 0.868324 -0.002485
C230  C     C_3   0.746106 0.892248 0.883283 -0.217382
C231  C     C_3   0.778098 0.890633 0.931546 -0.512252
C232  C     C_3   0.749848 0.057082 0.374929 0.004957
C233  C     C_3   0.718977 0.106269 0.372247 -0.253757
C234  C     C_3   0.695716 0.120647 0.423295 -0.481322
C235  C     C_R   0.749371 0.749505 0.889989 0.527901
C236  C     C_3   0.123501 0.944979 0.747877 0.013943
C237  C     C_3   0.115954 0.890638 0.766252 -0.247822
C238  C     C_3   0.067696 0.885331 0.797949 -0.505784
C239  C     C_3   0.960920 0.850746 0.336718 0.063398
C240  C     C_3   0.973923 0.810927 0.377776 -0.265273
C241  C     C_3   0.993242 0.838356 0.424999 -0.498520
C242  C     C_3   0.039295 0.161775 0.647704 0.063733
C243  C     C_3   0.019861 0.119391 0.683272 -0.265082
C244  C     C_3   0.999653 0.075388 0.651249 -0.504334
C245  C     C_3   0.962261 0.653526 0.849824 0.059093
C246  C     C_R   0.249547 0.249398 0.109942 0.525457
C247  C     C_3   0.993086 0.605280 0.839050 -0.235348
C248  C     C_3   0.022994 0.587593 0.885330 -0.481475
C249  C     C_3   0.039574 0.344169 0.155347 0.077871
C250  C     C_3   0.004274 0.335948 0.110273 -0.233332
C251  C     C_3   0.984305 0.386317 0.090328 -0.501158
C252  C     C_3   0.948192 0.243520 0.626611 0.013733
C253  C     C_3   0.898824 0.273561 0.622984 -0.255004
C254  C     C_3   0.893685 0.297878 0.570929 -0.504212
C255  C     C_3   0.053435 0.872170 0.245255 0.009111
C256  C     C_3   0.106535 0.874032 0.221220 -0.253527
C257  C     C_R   0.889989 0.249814 0.750378 0.523215
C258  C     C_3   0.114608 0.921795 0.189596 -0.499002
C259  C     C_3   0.946124 0.373083 0.240408 -0.010016
C260  C     C_3   0.896035 0.373690 0.270009 -0.242022
C261  C     C_3   0.887867 0.421551 0.301810 -0.491858
C262  C     C_3   0.053994 0.747002 0.866660 -0.021558
C263  C     C_3   0.108309 0.765400 0.874275 -0.215801
C264  C     C_3   0.114308 0.796768 0.922437 -0.474640
C265  C     C_3   0.037118 0.165654 0.364406 0.053454
C266  C     C_3   0.014884 0.195706 0.408841 -0.247035
C267  C     C_3   0.977889 0.162244 0.438885 -0.487635
C268  C     C_R   0.109985 0.749547 0.250125 0.525644
C269  C     C_3   0.965753 0.850002 0.656143 0.064461
C270  C     C_3   0.003257 0.892504 0.670385 -0.239337
C271  C     C_3   0.017924 0.924672 0.624177 -0.495973
C272  C     C_3   0.041300 0.329185 0.861677 0.067953
C273  C     C_3   0.022161 0.374473 0.829854 -0.257800
C274  C     C_3   0.994338 0.412402 0.863850 -0.499179
C275  C     C_3   0.966722 0.642167 0.159191 0.074952
C276  C     C_3   0.989307 0.670726 0.113575 -0.253145
C277  C     C_3   0.024071 0.635480 0.082968 -0.486976
C278  C     C_3   0.055932 0.757372 0.628848 -0.019404
C279  C     C_R   0.249525 0.249522 0.890106 0.559832
C280  C     C_3   0.111163 0.744043 0.617814 -0.224170
C281  C     C_3   0.117224 0.712382 0.569734 -0.493073
C282  C     C_3   0.947590 0.133817 0.271696 0.000959
C283  C     C_3   0.894157 0.113566 0.261313 -0.219984
C284  C     C_3   0.896181 0.065323 0.229164 -0.513552
C285  C     C_3   0.056034 0.626303 0.250084 -0.001100
C286  C     C_3   0.110863 0.623835 0.269553 -0.227506
C287  C     C_3   0.122624 0.574728 0.298249 -0.480963
C288  C     C_3   0.944394 0.253964 0.876748 0.012476
C289  C     C_3   0.895004 0.223269 0.874970 -0.250532
C290  C     C_R   0.749671 0.750098 0.109856 0.558160
C291  C     C_3   0.885276 0.194968 0.924707 -0.501291
C292  C     C_3   0.852993 0.665599 0.042835 0.062100
C293  C     C_3   0.814663 0.622357 0.032090 -0.269723
C294  C     C_3   0.843995 0.572705 0.023342 -0.503058
C295  C     C_3   0.159903 0.351858 0.960567 0.064405
C296  C     C_3   0.117129 0.315577 0.977512 -0.264804
C297  C     C_3   0.070907 0.347057 0.993242 -0.504553
C298  C     C_3   0.671076 0.141148 0.046535 0.073290
C299  C     C_3   0.621167 0.129361 0.017942 -0.219411
C300  C     C_3   0.624720 0.081773 0.984264 -0.469801
C301  C     C_R   0.109826 0.250562 0.250978 0.556444
C302  C     C_3   0.358482 0.829424 0.961394 0.076418
C303  C     C_3   0.323436 0.872604 0.979107 -0.253983
C304  C     C_3   0.354647 0.910221 0.009849 -0.485420
C305  C     C_3   0.244784 0.372010 0.050886 0.013392
C306  C     C_3   0.268094 0.380398 0.103238 -0.251949
C307  C     C_3   0.294825 0.431921 0.105315 -0.498670
C308  C     C_3   0.870519 0.752875 0.947266 0.013488
C309  C     C_3   0.880713 0.768291 0.892261 -0.238413
C310  C     C_3   0.928810 0.800053 0.888073 -0.500418
C311  C     C_3   0.374211 0.742539 0.057782 0.003450
C312  C     C_R   0.890220 0.749917 0.749998 0.540257
C313  C     C_3   0.381411 0.729670 0.113761 -0.240386
C314  C     C_3   0.424938 0.692732 0.123180 -0.499149
C315  C     C_3   0.748701 0.130401 0.943776 -0.018755
C316  C     C_3   0.760427 0.118736 0.888300 -0.227207
C317  C     C_3   0.795143 0.072774 0.883270 -0.504564
C318  C     C_3   0.149004 0.654362 0.962019 0.066354
C319  C     C_3   0.182376 0.611631 0.983299 -0.246757
C320  C     C_3   0.149487 0.576003 0.015490 -0.499212
C321  C     C_3   0.848951 0.346722 0.036339 0.063837
C322  C     C_3   0.893412 0.331343 0.002330 -0.234933
C323  C     C_R   0.750068 0.249905 0.109821 0.537501
C324  C     C_3   0.913418 0.376472 0.972047 -0.487454
C325  C     C_3   0.327768 0.135678 0.959640 0.070650
C326  C     C_3   0.374731 0.164581 0.979047 -0.255263
C327  C     C_3   0.409541 0.128254 0.008227 -0.497282
C328  C     C_3   0.638404 0.834239 0.033506 0.074424
C329  C     C_3   0.667070 0.880410 0.012160 -0.262030
C330  C     C_3   0.630255 0.916625 0.985496 -0.497532
C331  C     C_3   0.759065 0.370270 0.946055 -0.014546
C332  C     C_3   0.735911 0.375765 0.893230 -0.233456
C333  C     C_3   0.704697 0.424382 0.886866 -0.485226
C334  C     C_R   0.750414 0.749753 0.390143 0.531419
C335  C     C_R   0.250638 0.748985 0.890237 0.554203
C336  C     C_3   0.129129 0.741653 0.054656 0.010517
C337  C     C_3   0.114515 0.753500 0.109347 -0.226996
C338  C     C_3   0.067607 0.787420 0.111840 -0.513555
C339  C     C_3   0.625112 0.745940 0.942393 0.000461
C340  C     C_3   0.626318 0.721565 0.889926 -0.245056
C341  C     C_3   0.577275 0.693996 0.876033 -0.487711
C342  C     C_3   0.248748 0.124104 0.056981 0.004769
C343  C     C_3   0.230489 0.120437 0.111616 -0.242059
C344  C     C_3   0.198094 0.073387 0.121028 -0.502435
C345  C     C_3   0.649182 0.464477 0.663252 0.066716
C346  C     C_R   0.749410 0.890192 0.749680 0.520272
C347  C     C_3   0.615544 0.474151 0.710602 -0.248663
C348  C     C_3   0.596349 0.529019 0.710721 -0.456024
C349  C     C_3   0.356286 0.535950 0.332893 0.067356
C350  C     C_3   0.317261 0.514668 0.370915 -0.248449
C351  C     C_3   0.345580 0.489708 0.414252 -0.487676
C352  C     C_3   0.646995 0.466227 0.345243 0.055831
C353  C     C_3   0.678067 0.487699 0.389465 -0.245822
C354  C     C_3   0.645129 0.523681 0.420706 -0.485467
C355  C     C_3   0.347140 0.533068 0.650420 0.072417
C356  C     C_3   0.388437 0.499715 0.674215 -0.238987
C357  C     C_R   0.249883 0.109933 0.250023 0.510611
C358  C     C_3   0.420831 0.474772 0.633178 -0.489799
C359  C     C_3   0.379560 0.443590 0.246375 0.010283
C360  C     C_3   0.379285 0.392109 0.219554 -0.239676
C361  C     C_3   0.426710 0.384099 0.187443 -0.488190
C362  C     C_3   0.745807 0.554038 0.628058 -0.000703
C363  C     C_3   0.763919 0.608052 0.618193 -0.238545
C364  C     C_3   0.795196 0.610768 0.569804 -0.507511
C365  C     C_3   0.257927 0.444026 0.623040 -0.014793
C366  C     C_3   0.233476 0.391549 0.620938 -0.243298
C367  C     C_3   0.205098 0.380938 0.571610 -0.491837
C368  C     C_R   0.749984 0.110085 0.250364 0.529663
C369  C     C_3   0.626850 0.557098 0.247854 -0.008422
C370  C     C_3   0.619729 0.612911 0.232252 -0.223154
C371  C     C_3   0.577938 0.619630 0.192331 -0.495132
C372  C     C_3   0.463993 0.333539 0.354570 0.068723
C373  C     C_3   0.479675 0.285473 0.384723 -0.245163
C374  C     C_3   0.516328 0.300403 0.426989 -0.474398
C375  C     C_3   0.534341 0.661745 0.646679 0.073177
C376  C     C_3   0.512005 0.623639 0.685115 -0.253130
C377  C     C_3   0.490632 0.577779 0.656702 -0.490867
C378  C     C_3   0.465299 0.653939 0.351420 0.055642
C379  C     C_R   0.249487 0.889992 0.750268 0.523607
C380  C     C_3   0.479820 0.610499 0.315288 -0.257834
C381  C     C_3   0.501936 0.565450 0.345054 -0.502408
C382  C     C_3   0.535697 0.358249 0.661826 0.072363
C383  C     C_3   0.513328 0.326339 0.618591 -0.234248
C384  C     C_3   0.474210 0.357356 0.589544 -0.482281
C385  C     C_3   0.444185 0.749140 0.622237 0.011777
C386  C     C_3   0.394017 0.778262 0.622855 -0.239051
C387  C     C_3   0.386688 0.810143 0.575167 -0.489334
C388  C     C_3   0.556090 0.375243 0.277061 0.020569
C389  C     C_3   0.590900 0.376936 0.230105 -0.242086
C390  C     C_R   0.249652 0.109894 0.750216 0.559989
C391  C     C_3   0.595761 0.430937 0.209802 -0.490537
C392  C     C_3   0.443223 0.377064 0.747687 -0.002909
C393  C     C_3   0.392758 0.374824 0.776161 -0.251406
C394  C     C_3   0.382051 0.422431 0.807215 -0.496556
C395  C     C_3   0.555878 0.749730 0.372719 -0.003572
C396  C     C_3   0.607751 0.776235 0.372002 -0.241932
C397  C     C_3   0.619152 0.805121 0.421236 -0.484432
C398  C     C_3   0.334180 0.646043 0.539480 0.072603
C399  C     C_3   0.286231 0.615001 0.525332 -0.243891
C400  C     C_3   0.300315 0.576070 0.485415 -0.486053
C401  C     C_R   0.750330 0.890227 0.250147 0.559339
C402  C     C_3   0.655042 0.346288 0.462487 0.077019
C403  C     C_3   0.611606 0.342159 0.501673 -0.244307
C404  C     C_3   0.579169 0.390375 0.503005 -0.508888
C405  C     C_3   0.650528 0.653713 0.535843 0.067461
C406  C     C_3   0.602670 0.670111 0.506853 -0.231913
C407  C     C_3   0.585906 0.630649 0.468033 -0.476659
C408  C     C_3   0.343840 0.348691 0.463551 0.074024
C409  C     C_3   0.334408 0.392379 0.501246 -0.244812
C410  C     C_3   0.382130 0.424413 0.510150 -0.505641
C411  C     C_3   0.748505 0.369890 0.550615 -0.016771
C412  C     C_R   0.250167 0.890120 0.250372 0.537732
C413  C     C_3   0.768961 0.377959 0.604226 -0.215336
C414  C     C_3   0.796017 0.428772 0.608552 -0.475527
C415  C     C_3   0.373966 0.718747 0.445471 0.019906
C416  C     C_3   0.378002 0.764082 0.408913 -0.234368
C417  C     C_3   0.431578 0.785750 0.409204 -0.479705
C418  C     C_3   0.372828 0.255706 0.553405 -0.012224
C419  C     C_3   0.375717 0.230987 0.605872 -0.233756
C420  C     C_3   0.422296 0.197605 0.613076 -0.496545
C421  C     C_3   0.745739 0.630649 0.443838 -0.017107
C422  C     C_3   0.757878 0.617749 0.388682 -0.218910
C423  C     C_R   0.748224 0.109947 0.748607 0.554528
C424  C     C_3   0.793121 0.571859 0.383941 -0.495211
C425  C     C_R   0.219043 0.474015 0.212862 0.199042
C426  C     C_R   0.609750 0.251657 0.751694 0.544188
C427  C     C_R   0.780240 0.526948 0.785985 0.200649
C428  C     C_R   0.203369 0.472123 0.767309 0.206088
C429  C     C_R   0.785721 0.527069 0.223139 0.193093
C430  C     C_R   0.786915 0.473667 0.779859 0.194435
C431  C     C_R   0.225966 0.527690 0.206262 0.203478
C432  C     C_R   0.780258 0.474108 0.216137 0.194468
C433  C     C_R   0.202719 0.526154 0.765801 0.186068
C434  C     C_R   0.473763 0.787898 0.780522 0.196328
C435  C     C_R   0.526849 0.217745 0.216411 0.198430
C436  C     C_R   0.472397 0.228882 0.794262 0.206511
C437  C     C_R   0.390171 0.750661 0.250924 0.518604
C438  C     C_R   0.526847 0.779055 0.214719 0.198610
C439  C     C_R   0.473540 0.223879 0.210229 0.190942
C440  C     C_R   0.527592 0.793000 0.774200 0.193058
C441  C     C_R   0.473669 0.785562 0.220889 0.190588
C442  C     C_R   0.526281 0.229996 0.795063 0.191223
C443  C     C_R   0.784092 0.216133 0.526797 0.199132
C444  C     C_R   0.220247 0.786567 0.473609 0.201641
C445  C     C_R   0.229982 0.204467 0.527697 0.206572
C446  C     C_R   0.783718 0.783306 0.473226 0.200538
C447  C     C_R   0.227412 0.792728 0.526857 0.190433
C448  C     C_R   0.749997 0.249952 0.390152 0.527867
C449  C     C_R   0.788541 0.222191 0.473140 0.187777
C450  C     C_R   0.789192 0.776564 0.526574 0.183285
C451  C     C_R   0.231265 0.204117 0.473756 0.188610
C452  C     C_R   0.732783 0.973602 0.208012 0.203835
C453  C     C_R   0.290091 0.026603 0.771802 0.204951
C454  C     C_R   0.217705 0.973229 0.284668 0.200976
C455  C     C_R   0.767376 0.027171 0.705927 0.206416
C456  C     C_R   0.291048 0.973136 0.768804 0.185608
C457  C     C_R   0.736154 0.027201 0.206963 0.192192
C458  C     C_R   0.764845 0.973396 0.704920 0.192488
C459  C     C_R   0.251891 0.751861 0.609984 0.517152
C460  C     C_R   0.212587 0.026433 0.278047 0.201850
C461  C     C_R   0.712070 0.027441 0.780596 0.197220
C462  C     C_R   0.282622 0.973307 0.217639 0.197035
C463  C     C_R   0.206508 0.027025 0.729818 0.208368
C464  C     C_R   0.774066 0.973478 0.292580 0.204041
C465  C     C_R   0.288639 0.026602 0.224574 0.188225
C466  C     C_R   0.718713 0.973770 0.785962 0.175142
C467  C     C_R   0.769428 0.027471 0.294295 0.181974
C468  C     C_R   0.205345 0.973134 0.732221 0.183671
C469  C     C_R   0.973476 0.790331 0.270488 0.202552
C470  C     C_R   0.390246 0.751255 0.749153 0.541636
C471  C     C_R   0.026485 0.226128 0.710802 0.203278
C472  C     C_R   0.973230 0.715866 0.783117 0.198882
C473  C     C_R   0.026444 0.284162 0.220971 0.198179
C474  C     C_R   0.973024 0.229631 0.709383 0.187036
C475  C     C_R   0.026840 0.791672 0.267152 0.192665
C476  C     C_R   0.973508 0.290631 0.228359 0.198022
C477  C     C_R   0.026633 0.722439 0.787753 0.193670
C478  C     C_R   0.027255 0.221965 0.290982 0.197230
C479  C     C_R   0.973911 0.782165 0.716768 0.200125
C480  C     C_R   0.027030 0.269276 0.793719 0.203599
H1    H     H_    0.144450 0.422101 0.136576 0.126741
H2    H     H_    0.813826 0.535182 0.928757 0.150142
H3    H     H_    0.483754 0.872674 0.248901 0.100727
H4    H     H_    0.369103 0.877517 0.227867 0.238330
H5    H     H_    0.396406 0.846882 0.283272 0.149327
H6    H     H_    0.427403 0.925693 0.316267 0.142213
H7    H     H_    0.363091 0.937636 0.295231 0.146708
H8    H     H_    0.416518 0.958534 0.257049 0.120617
H9    H     H_    0.541004 0.212730 0.910096 0.125561
H10   H     H_    0.532489 0.271023 0.875794 0.120678
H11   H     H_    0.632196 0.211656 0.889401 0.247879
H12   H     H_    0.625973 0.273095 0.858157 0.162583
H13   H     H_    0.813678 0.478120 0.892505 0.208836
H14   H     H_    0.589707 0.307015 0.942591 0.131326
H15   H     H_    0.655994 0.290407 0.942362 0.142338
H16   H     H_    0.610592 0.247770 0.971065 0.168565
H17   H     H_    0.868005 0.140358 0.572872 0.124306
H18   H     H_    0.872081 0.174848 0.517599 0.146986
H19   H     H_    0.826075 0.069367 0.539676 0.118557
H20   H     H_    0.796234 0.104470 0.489980 0.185682
H21   H     H_    0.873798 0.109383 0.441030 0.198332
H22   H     H_    0.865036 0.044339 0.461487 0.128973
H23   H     H_    0.911708 0.083755 0.493169 0.132309
H24   H     H_    0.904233 0.468931 0.895450 0.159948
H25   H     H_    0.143610 0.865442 0.422331 0.146565
H26   H     H_    0.184670 0.876200 0.473004 0.129165
H27   H     H_    0.082928 0.815647 0.473697 0.155722
H28   H     H_    0.118329 0.825567 0.529779 0.210471
H29   H     H_    0.105577 0.916633 0.528248 0.155952
H30   H     H_    0.044447 0.885808 0.518775 0.140591
H31   H     H_    0.076833 0.914956 0.465914 0.139512
H32   H     H_    0.151361 0.123319 0.579228 0.136768
H33   H     H_    0.165164 0.115826 0.514703 0.154049
H34   H     H_    0.116908 0.207845 0.570075 0.179595
H35   H     H_    0.883136 0.483919 0.958820 0.137510
H36   H     H_    0.132734 0.210191 0.503496 0.180706
H37   H     H_    0.077128 0.140659 0.482817 0.164116
H38   H     H_    0.041585 0.184689 0.522899 0.140669
H39   H     H_    0.064832 0.125201 0.547578 0.113452
H40   H     H_    0.864958 0.864421 0.428364 0.117159
H41   H     H_    0.872794 0.825438 0.478857 0.136580
H42   H     H_    0.812936 0.927449 0.470933 0.125164
H43   H     H_    0.802622 0.887178 0.524386 0.202464
H44   H     H_    0.890393 0.894403 0.552600 0.164722
H45   H     H_    0.865571 0.957261 0.540355 0.130445
H46   H     H_    0.913553 0.532393 0.920673 0.135925
H47   H     H_    0.908378 0.928433 0.495108 0.124597
H48   H     H_    0.213309 0.909110 0.543594 0.129653
H49   H     H_    0.269829 0.873781 0.529171 0.099886
H50   H     H_    0.218933 0.892589 0.632766 0.237303
H51   H     H_    0.275147 0.853463 0.624932 0.168267
H52   H     H_    0.323768 0.925953 0.592006 0.141581
H53   H     H_    0.296717 0.940850 0.653105 0.140434
H54   H     H_    0.268540 0.966638 0.596128 0.138893
H55   H     H_    0.902359 0.232365 0.464492 0.121190
H56   H     H_    0.855585 0.281560 0.465938 0.098809
H57   H     H_    0.122576 0.423566 0.848703 0.124030
H58   H     H_    0.894471 0.225471 0.371653 0.243487
H59   H     H_    0.849069 0.276927 0.371264 0.171245
H60   H     H_    0.949231 0.297769 0.424262 0.138491
H61   H     H_    0.907277 0.339216 0.389690 0.140955
H62   H     H_    0.947509 0.295554 0.355828 0.141490
H63   H     H_    0.905647 0.792547 0.546529 0.117460
H64   H     H_    0.871953 0.738021 0.523101 0.100494
H65   H     H_    0.881786 0.775319 0.632884 0.242266
H66   H     H_    0.848120 0.717639 0.615006 0.155630
H67   H     H_    0.925895 0.678743 0.584549 0.140958
H68   H     H_    0.112341 0.485740 0.827794 0.152405
H69   H     H_    0.937495 0.703490 0.647562 0.147580
H70   H     H_    0.960431 0.737579 0.592379 0.122326
H71   H     H_    0.212247 0.087926 0.450932 0.128005
H72   H     H_    0.267203 0.119493 0.476023 0.132109
H73   H     H_    0.230496 0.119487 0.365786 0.255915
H74   H     H_    0.289338 0.148063 0.387292 0.140095
H75   H     H_    0.318256 0.060582 0.415249 0.137892
H76   H     H_    0.305770 0.064709 0.347914 0.140057
H77   H     H_    0.260334 0.034096 0.388814 0.166992
H78   H     H_    0.661398 0.926964 0.117983 0.140160
H79   H     H_    0.198342 0.437570 0.891281 0.157277
H80   H     H_    0.681804 0.990424 0.111827 0.154911
H81   H     H_    0.617078 0.940290 0.197465 0.150709
H82   H     H_    0.636604 0.006127 0.199865 0.181960
H83   H     H_    0.591242 0.027188 0.123327 0.162925
H84   H     H_    0.548017 0.990760 0.163444 0.135443
H85   H     H_    0.577170 0.961467 0.109152 0.127885
H86   H     H_    0.372391 0.074291 0.850634 0.130011
H87   H     H_    0.384352 0.012254 0.830289 0.153520
H88   H     H_    0.290374 0.053428 0.888041 0.160211
H89   H     H_    0.293011 0.989046 0.866108 0.183904
H90   H     H_    0.212149 0.497026 0.860990 0.179407
H91   H     H_    0.360203 0.965531 0.918652 0.166560
H92   H     H_    0.323594 0.008927 0.958494 0.132537
H93   H     H_    0.382144 0.029328 0.929358 0.118746
H94   H     H_    0.131825 0.916532 0.347501 0.138212
H95   H     H_    0.125826 0.967273 0.306312 0.122374
H96   H     H_    0.145316 0.962466 0.421267 0.106800
H97   H     H_    0.173767 0.015572 0.389944 0.202694
H98   H     H_    0.094187 0.051175 0.365580 0.171993
H99   H     H_    0.084498 0.028605 0.429188 0.129001
H100  H     H_    0.059769 0.992089 0.376330 0.121972
H101  H     H_    0.143683 0.540223 0.902100 0.181593
H102  H     H_    0.848656 0.073617 0.624260 0.134414
H103  H     H_    0.823862 0.013029 0.612440 0.147239
H104  H     H_    0.896723 0.053926 0.693391 0.139357
H105  H     H_    0.859125 0.001519 0.714619 0.171998
H106  H     H_    0.885701 0.947600 0.644200 0.200221
H107  H     H_    0.939774 0.975207 0.675847 0.145211
H108  H     H_    0.920614 0.999815 0.614879 0.125693
H109  H     H_    0.407582 0.962536 0.769342 0.125389
H110  H     H_    0.365695 0.974170 0.716556 0.124984
H111  H     H_    0.388768 0.869846 0.765299 0.232436
H112  H     H_    0.172739 0.481266 0.129542 0.140296
H113  H     H_    0.177363 0.503217 0.950042 0.143681
H114  H     H_    0.351257 0.879957 0.708568 0.147073
H115  H     H_    0.424489 0.909710 0.661480 0.146821
H116  H     H_    0.446139 0.854053 0.696016 0.138054
H117  H     H_    0.462239 0.916365 0.718192 0.129306
H118  H     H_    0.744255 0.052758 0.089666 0.119725
H119  H     H_    0.789098 0.023207 0.131216 0.135379
H120  H     H_    0.761978 0.137366 0.136328 0.226282
H121  H     H_    0.815327 0.106160 0.165493 0.134429
H122  H     H_    0.848218 0.086709 0.076468 0.144109
H123  H     H_    0.842478 0.154166 0.090238 0.156461
H124  H     H_    0.116402 0.481968 0.926598 0.121585
H125  H     H_    0.795267 0.123246 0.051390 0.127822
H126  H     H_    0.767586 0.953789 0.588036 0.129448
H127  H     H_    0.714925 0.969568 0.628568 0.127222
H128  H     H_    0.765495 0.865108 0.616507 0.250225
H129  H     H_    0.709536 0.877464 0.654900 0.154810
H130  H     H_    0.668986 0.909991 0.568953 0.139139
H131  H     H_    0.676082 0.842189 0.579982 0.160429
H132  H     H_    0.720147 0.874769 0.539030 0.156216
H133  H     H_    0.097519 0.036316 0.276848 0.119962
H134  H     H_    0.140635 0.035920 0.224397 0.094944
H135  H     H_    0.863595 0.585640 0.157419 0.149045
H136  H     H_    0.113182 0.129654 0.287554 0.246906
H137  H     H_    0.146779 0.129122 0.227117 0.168926
H138  H     H_    0.071227 0.093090 0.184278 0.138587
H139  H     H_    0.057261 0.152967 0.214835 0.156306
H140  H     H_    0.037838 0.093450 0.243978 0.123368
H141  H     H_    0.625185 0.071340 0.859403 0.141589
H142  H     H_    0.665272 0.020252 0.871031 0.141049
H143  H     H_    0.574634 0.029566 0.795902 0.153554
H144  H     H_    0.614767 0.976122 0.794782 0.194677
H145  H     H_    0.594704 0.953188 0.882382 0.167813
H146  H     H_    0.833781 0.529623 0.141645 0.125770
H147  H     H_    0.535712 0.961370 0.847840 0.125543
H148  H     H_    0.557470 0.009726 0.891447 0.138754
H149  H     H_    0.362396 0.927579 0.135927 0.140287
H150  H     H_    0.372362 0.977798 0.177762 0.140890
H151  H     H_    0.304013 0.975623 0.081506 0.147324
H152  H     H_    0.308674 0.030452 0.119462 0.208233
H153  H     H_    0.366417 0.030565 0.041630 0.136522
H154  H     H_    0.404857 0.983129 0.073148 0.137798
H155  H     H_    0.395337 0.044914 0.101962 0.171784
H156  H     H_    0.119777 0.078547 0.657692 0.134462
H157  H     H_    0.933498 0.543364 0.202940 0.145948
H158  H     H_    0.106713 0.017154 0.678406 0.144775
H159  H     H_    0.195909 0.056132 0.611832 0.161274
H160  H     H_    0.194281 0.992082 0.634939 0.192054
H161  H     H_    0.114257 0.973720 0.594042 0.163911
H162  H     H_    0.156942 0.000128 0.547194 0.132639
H163  H     H_    0.106500 0.038565 0.573377 0.122398
H164  H     H_    0.843728 0.932850 0.389433 0.134273
H165  H     H_    0.818888 0.992751 0.390355 0.147942
H166  H     H_    0.900204 0.945665 0.319191 0.156741
H167  H     H_    0.873872 0.007343 0.307115 0.187815
H168  H     H_    0.900123 0.483751 0.202155 0.200072
H169  H     H_    0.908924 0.043929 0.381886 0.167703
H170  H     H_    0.959075 0.003793 0.358800 0.129659
H171  H     H_    0.920653 0.982625 0.411438 0.130542
H172  H     H_    0.406106 0.044346 0.219050 0.127186
H173  H     H_    0.366215 0.027513 0.272233 0.105459
H174  H     H_    0.381086 0.133559 0.227324 0.257973
H175  H     H_    0.344500 0.118464 0.283948 0.158192
H176  H     H_    0.430085 0.080017 0.318506 0.139284
H177  H     H_    0.420115 0.148271 0.318028 0.142124
H178  H     H_    0.459294 0.119795 0.270120 0.166263
H179  H     H_    0.908249 0.477072 0.109133 0.154829
H180  H     H_    0.713141 0.963465 0.901814 0.119163
H181  H     H_    0.768475 0.968053 0.861384 0.106584
H182  H     H_    0.710211 0.870536 0.888967 0.236826
H183  H     H_    0.769311 0.874215 0.853201 0.177313
H184  H     H_    0.763708 0.917931 0.960304 0.136902
H185  H     H_    0.818219 0.900061 0.922560 0.139751
H186  H     H_    0.776835 0.851672 0.947780 0.142334
H187  H     H_    0.770937 0.057577 0.411524 0.137319
H188  H     H_    0.724286 0.023196 0.375950 0.122975
H189  H     H_    0.744510 0.137663 0.361687 0.247958
H190  H     H_    0.969043 0.483684 0.140350 0.140851
H191  H     H_    0.688795 0.102610 0.342997 0.135365
H192  H     H_    0.674612 0.088040 0.439947 0.143232
H193  H     H_    0.669637 0.153394 0.417960 0.160229
H194  H     H_    0.726082 0.132936 0.449884 0.161658
H195  H     H_    0.088037 0.955496 0.727576 0.128717
H196  H     H_    0.127691 0.971432 0.780798 0.128750
H197  H     H_    0.112720 0.866065 0.732301 0.238621
H198  H     H_    0.149230 0.878435 0.789133 0.156675
H199  H     H_    0.067115 0.914241 0.828710 0.142393
H200  H     H_    0.066409 0.846989 0.814976 0.140737
H201  H     H_    0.942300 0.537149 0.107147 0.124920
H202  H     H_    0.033380 0.889529 0.773879 0.150569
H203  H     H_    0.928026 0.872149 0.351972 0.132816
H204  H     H_    0.991468 0.879582 0.332247 0.158815
H205  H     H_    0.939528 0.788262 0.387472 0.150368
H206  H     H_    0.004283 0.784414 0.365202 0.176497
H207  H     H_    0.030656 0.855842 0.415727 0.168996
H208  H     H_    0.997433 0.810891 0.456886 0.133643
H209  H     H_    0.966769 0.869098 0.436942 0.124318
H210  H     H_    0.073724 0.146340 0.629369 0.132209
H211  H     H_    0.012676 0.168548 0.616074 0.151788
H212  H     H_    0.901903 0.458279 0.805388 0.129407
H213  H     H_    0.051244 0.105829 0.707910 0.155761
H214  H     H_    0.988514 0.131976 0.708345 0.188599
H215  H     H_    0.962585 0.086086 0.633864 0.162766
H216  H     H_    0.994589 0.041732 0.675940 0.141925
H217  H     H_    0.026391 0.065286 0.620165 0.122574
H218  H     H_    0.928029 0.641586 0.871531 0.121487
H219  H     H_    0.980481 0.680849 0.875684 0.149238
H220  H     H_    0.966705 0.574467 0.826835 0.123754
H221  H     H_    0.020290 0.612455 0.807824 0.195091
H222  H     H_    0.053647 0.615374 0.893600 0.169823
H223  H     H_    0.068273 0.450575 0.169667 0.103760
H224  H     H_    0.872226 0.479389 0.748101 0.096255
H225  H     H_    0.040663 0.550068 0.877077 0.132265
H226  H     H_    0.997879 0.583747 0.919056 0.125732
H227  H     H_    0.075372 0.361085 0.140576 0.140790
H228  H     H_    0.025610 0.372172 0.183454 0.137230
H229  H     H_    0.025831 0.315472 0.080669 0.146148
H230  H     H_    0.971929 0.310548 0.120055 0.221293
H231  H     H_    0.948422 0.395804 0.110344 0.176017
H232  H     H_    0.977190 0.382887 0.049357 0.147921
H233  H     H_    0.012495 0.417453 0.095316 0.131718
H234  H     H_    0.951106 0.219586 0.591931 0.121314
H235  H     H_    0.887733 0.369947 0.786771 0.239387
H236  H     H_    0.981639 0.269758 0.626462 0.136097
H237  H     H_    0.866741 0.246881 0.628099 0.236164
H238  H     H_    0.897272 0.303132 0.653073 0.133746
H239  H     H_    0.924220 0.326415 0.564713 0.144982
H240  H     H_    0.856095 0.316158 0.566831 0.134013
H241  H     H_    0.896431 0.267685 0.541963 0.127733
H242  H     H_    0.045745 0.909502 0.264199 0.123263
H243  H     H_    0.023625 0.867180 0.214922 0.129986
H244  H     H_    0.134889 0.874191 0.252480 0.229514
H245  H     H_    0.112831 0.839778 0.196910 0.144209
H246  H     H_    0.853174 0.385085 0.728925 0.166592
H247  H     H_    0.086124 0.923553 0.157988 0.144117
H248  H     H_    0.154030 0.921103 0.173461 0.156198
H249  H     H_    0.110616 0.956033 0.214460 0.123440
H250  H     H_    0.947970 0.408221 0.216952 0.139625
H251  H     H_    0.979108 0.374580 0.267048 0.099765
H252  H     H_    0.865009 0.371230 0.242161 0.255680
H253  H     H_    0.894248 0.340317 0.295594 0.140849
H254  H     H_    0.923547 0.432455 0.322170 0.141187
H255  H     H_    0.857102 0.413657 0.330176 0.137740
H256  H     H_    0.874547 0.453466 0.277256 0.178430
H257  H     H_    0.926193 0.419318 0.687957 0.140562
H258  H     H_    0.040384 0.731850 0.903651 0.120738
H259  H     H_    0.029968 0.780385 0.856863 0.102411
H260  H     H_    0.131872 0.731185 0.876061 0.279184
H261  H     H_    0.121784 0.788701 0.841966 0.140067
H262  H     H_    0.091802 0.832307 0.919493 0.130445
H263  H     H_    0.154997 0.806836 0.927835 0.149062
H264  H     H_    0.101053 0.774440 0.955565 0.148397
H265  H     H_    0.068927 0.142575 0.380008 0.132423
H266  H     H_    0.011910 0.136434 0.348665 0.157928
H267  H     H_    0.046337 0.209448 0.433454 0.153512
H268  H     H_    0.945524 0.359916 0.716482 0.140519
H269  H     H_    0.995111 0.229595 0.394544 0.183947
H270  H     H_    0.942533 0.157399 0.416598 0.187592
H271  H     H_    0.968607 0.180367 0.475874 0.117956
H272  H     H_    0.994413 0.124069 0.446513 0.133809
H273  H     H_    0.932212 0.868153 0.638146 0.136176
H274  H     H_    0.979651 0.823699 0.626718 0.141403
H275  H     H_    0.986414 0.915900 0.701087 0.140876
H276  H     H_    0.038562 0.877405 0.687031 0.212021
H277  H     H_    0.048732 0.904972 0.603233 0.167012
H278  H     H_    0.032284 0.962300 0.636972 0.133515
H279  H     H_    0.963030 0.419797 0.745641 0.140683
H280  H     H_    0.985151 0.930971 0.598115 0.137473
H281  H     H_    0.075671 0.343290 0.881282 0.133737
H282  H     H_    0.015258 0.319137 0.892963 0.146179
H283  H     H_    0.054421 0.393343 0.810498 0.147416
H284  H     H_    0.995628 0.362315 0.799973 0.192189
H285  H     H_    0.956254 0.396762 0.873410 0.177130
H286  H     H_    0.989177 0.449163 0.843789 0.126400
H287  H     H_    0.015657 0.419684 0.899626 0.126795
H288  H     H_    0.936374 0.618934 0.142435 0.108671
H289  H     H_    0.991826 0.613046 0.175532 0.157516
H290  H     H_    0.199231 0.591403 0.103670 0.180685
H291  H     H_    0.958135 0.684466 0.088503 0.134691
H292  H     H_    0.011356 0.703905 0.126352 0.188137
H293  H     H_    0.059806 0.628738 0.104417 0.183882
H294  H     H_    0.033692 0.652963 0.045810 0.124189
H295  H     H_    0.005224 0.598297 0.075564 0.128255
H296  H     H_    0.040784 0.775798 0.594009 0.123511
H297  H     H_    0.034077 0.721676 0.635832 0.105361
H298  H     H_    0.132423 0.780213 0.613383 0.249623
H299  H     H_    0.127035 0.721685 0.649782 0.166924
H300  H     H_    0.088513 0.681363 0.568619 0.135887
H301  H     H_    0.232065 0.533047 0.104976 0.087834
H302  H     H_    0.155782 0.695181 0.569372 0.146661
H303  H     H_    0.113176 0.736679 0.535510 0.162410
H304  H     H_    0.968288 0.102109 0.290148 0.118284
H305  H     H_    0.965709 0.142207 0.234252 0.114382
H306  H     H_    0.874706 0.105771 0.298066 0.229261
H307  H     H_    0.872042 0.141608 0.239141 0.188022
H308  H     H_    0.925299 0.038503 0.243865 0.138162
H309  H     H_    0.905651 0.075067 0.189241 0.141429
H310  H     H_    0.858454 0.046347 0.229705 0.144950
H311  H     H_    0.047401 0.588794 0.231603 0.127690
H312  H     H_    0.268998 0.635820 0.148869 0.203687
H313  H     H_    0.028255 0.631219 0.282418 0.112908
H314  H     H_    0.135382 0.625013 0.235075 0.265426
H315  H     H_    0.119178 0.657244 0.294817 0.147290
H316  H     H_    0.092443 0.566303 0.327023 0.137816
H317  H     H_    0.160069 0.579336 0.317666 0.145764
H318  H     H_    0.126175 0.542345 0.271104 0.168829
H319  H     H_    0.943719 0.277609 0.911967 0.134469
H320  H     H_    0.978317 0.228336 0.879493 0.133582
H321  H     H_    0.863299 0.250235 0.868906 0.244086
H322  H     H_    0.896218 0.195624 0.842741 0.137064
H323  H     H_    0.303451 0.576827 0.154549 0.137803
H324  H     H_    0.920869 0.177061 0.938844 0.144454
H325  H     H_    0.856534 0.164931 0.917937 0.135862
H326  H     H_    0.869650 0.221172 0.953953 0.149583
H327  H     H_    0.874825 0.653712 0.076901 0.138785
H328  H     H_    0.881534 0.668570 0.011985 0.150183
H329  H     H_    0.788110 0.617795 0.064841 0.153150
H330  H     H_    0.792049 0.630640 0.997162 0.178696
H331  H     H_    0.869425 0.577227 0.989493 0.157720
H332  H     H_    0.816478 0.540857 0.017150 0.133927
H333  H     H_    0.868050 0.562976 0.057019 0.125682
H334  H     H_    0.096843 0.502112 0.203367 0.188446
H335  H     H_    0.302647 0.574230 0.057359 0.145084
H336  H     H_    0.145370 0.372721 0.926970 0.125297
H337  H     H_    0.165963 0.382130 0.988775 0.149341
H338  H     H_    0.106787 0.289581 0.945965 0.164043
H339  H     H_    0.128442 0.291972 0.010579 0.189848
H340  H     H_    0.078604 0.365642 0.030433 0.163971
H341  H     H_    0.036799 0.322317 0.995982 0.134097
H342  H     H_    0.062724 0.377665 0.965384 0.118224
H343  H     H_    0.667603 0.125028 0.085514 0.151392
H344  H     H_    0.704652 0.121496 0.031154 0.121266
H345  H     H_    0.589859 0.123975 0.046494 0.100390
H346  H     H_    0.336607 0.626747 0.085378 0.137422
H347  H     H_    0.610053 0.162403 0.993237 0.190422
H348  H     H_    0.645849 0.090813 0.948464 0.174221
H349  H     H_    0.585638 0.069694 0.973302 0.126137
H350  H     H_    0.643850 0.049620 0.004561 0.120284
H351  H     H_    0.379368 0.845169 0.928437 0.137133
H352  H     H_    0.388408 0.820531 0.989424 0.154812
H353  H     H_    0.306617 0.891975 0.945537 0.145016
H354  H     H_    0.291473 0.859723 0.003414 0.177790
H355  H     H_    0.361783 0.894904 0.048584 0.185067
H356  H     H_    0.333006 0.945663 0.012546 0.144075
H357  H     H_    0.275270 0.637487 0.059686 0.148138
H358  H     H_    0.391766 0.918703 0.991447 0.127323
H359  H     H_    0.222996 0.406888 0.041117 0.121947
H360  H     H_    0.275376 0.367884 0.021549 0.129038
H361  H     H_    0.236804 0.380184 0.131567 0.229408
H362  H     H_    0.295556 0.349437 0.112480 0.140035
H363  H     H_    0.329991 0.431307 0.081501 0.146096
H364  H     H_    0.304427 0.441564 0.145297 0.136288
H365  H     H_    0.268678 0.461715 0.090758 0.127254
H366  H     H_    0.906065 0.736445 0.963676 0.129225
H367  H     H_    0.861082 0.787771 0.970146 0.122844
H368  H     H_    0.813269 0.452686 0.101845 0.119004
H369  H     H_    0.885524 0.733013 0.869464 0.235398
H370  H     H_    0.848103 0.790626 0.876925 0.153163
H371  H     H_    0.924125 0.836843 0.908423 0.142869
H372  H     H_    0.937100 0.807591 0.847298 0.153310
H373  H     H_    0.960789 0.778645 0.905388 0.121771
H374  H     H_    0.410850 0.757848 0.043276 0.130482
H375  H     H_    0.365633 0.707277 0.035747 0.118597
H376  H     H_    0.389408 0.765700 0.133975 0.250812
H377  H     H_    0.346056 0.712392 0.128999 0.161315
H378  H     H_    0.422203 0.659641 0.097242 0.137094
H379  H     H_    0.759418 0.486096 0.126833 0.096575
H380  H     H_    0.422836 0.678935 0.163034 0.151879
H381  H     H_    0.462106 0.711843 0.117644 0.157310
H382  H     H_    0.735052 0.094250 0.960830 0.118990
H383  H     H_    0.784617 0.140650 0.963877 0.097321
H384  H     H_    0.723946 0.110647 0.868956 0.235737
H385  H     H_    0.779734 0.151381 0.869803 0.168128
H386  H     H_    0.833037 0.080922 0.899914 0.139653
H387  H     H_    0.800104 0.063258 0.842468 0.138012
H388  H     H_    0.778157 0.039985 0.903579 0.127256
H389  H     H_    0.129425 0.637930 0.928577 0.135279
H390  H     H_    0.776501 0.370472 0.122678 0.241975
H391  H     H_    0.117590 0.664494 0.987584 0.147071
H392  H     H_    0.200727 0.590768 0.951535 0.147170
H393  H     H_    0.213122 0.626472 0.007264 0.177210
H394  H     H_    0.133319 0.597376 0.048025 0.166360
H395  H     H_    0.172622 0.543900 0.030050 0.120658
H396  H     H_    0.117106 0.560786 0.993081 0.140679
H397  H     H_    0.865158 0.367042 0.069602 0.136331
H398  H     H_    0.822977 0.374885 0.019747 0.144016
H399  H     H_    0.924039 0.314938 0.026287 0.137813
H400  H     H_    0.881716 0.301504 0.975323 0.200944
H401  H     H_    0.721323 0.399411 0.152297 0.149617
H402  H     H_    0.887593 0.384531 0.939685 0.196208
H403  H     H_    0.951829 0.367182 0.957421 0.129523
H404  H     H_    0.916141 0.410895 0.996283 0.126005
H405  H     H_    0.341201 0.114450 0.926019 0.131335
H406  H     H_    0.315110 0.105426 0.985611 0.148946
H407  H     H_    0.395823 0.181277 0.946539 0.146302
H408  H     H_    0.364101 0.195858 0.004710 0.190171
H409  H     H_    0.392293 0.120012 0.045903 0.180257
H410  H     H_    0.447520 0.145685 0.014025 0.127482
H411  H     H_    0.414658 0.091878 0.987359 0.128515
H412  H     H_    0.690933 0.432997 0.073789 0.139522
H413  H     H_    0.614696 0.849768 0.063956 0.121713
H414  H     H_    0.609953 0.818423 0.007359 0.154015
H415  H     H_    0.687073 0.900864 0.043017 0.142552
H416  H     H_    0.695635 0.868086 0.984430 0.193849
H417  H     H_    0.619851 0.900023 0.948289 0.172445
H418  H     H_    0.648452 0.954145 0.978769 0.129761
H419  H     H_    0.595134 0.922619 0.008279 0.131039
H420  H     H_    0.779628 0.406446 0.954313 0.125330
H421  H     H_    0.727843 0.365982 0.974421 0.105387
H422  H     H_    0.767799 0.376835 0.866063 0.261935
H423  H     H_    0.709303 0.367813 0.061667 0.146112
H424  H     H_    0.710597 0.342859 0.885229 0.146443
H425  H     H_    0.675444 0.426766 0.917874 0.138630
H426  H     H_    0.685212 0.422605 0.848805 0.144275
H427  H     H_    0.730361 0.458501 0.887643 0.168396
H428  H     H_    0.095169 0.724260 0.036763 0.120676
H429  H     H_    0.137576 0.777942 0.034389 0.110169
H430  H     H_    0.106893 0.716986 0.129358 0.233615
H431  H     H_    0.146062 0.773857 0.128555 0.174631
H432  H     H_    0.038979 0.776101 0.082908 0.137127
H433  H     H_    0.078633 0.827683 0.105383 0.142822
H434  H     H_    0.750120 0.420031 0.041654 0.120719
H435  H     H_    0.050003 0.784132 0.149981 0.141000
H436  H     H_    0.587631 0.764921 0.946567 0.134132
H437  H     H_    0.627530 0.716438 0.972770 0.118509
H438  H     H_    0.631454 0.752534 0.862421 0.259415
H439  H     H_    0.658846 0.694893 0.887270 0.141812
H440  H     H_    0.565733 0.667450 0.906694 0.143693
H441  H     H_    0.583257 0.672515 0.840235 0.144132
H442  H     H_    0.546427 0.721709 0.868933 0.157417
H443  H     H_    0.267675 0.087228 0.048578 0.125105
H444  H     H_    0.215978 0.128029 0.030206 0.124593
H445  H     H_    0.108799 0.550342 0.121943 0.187678
H446  H     H_    0.086086 0.549215 0.777822 0.128602
H447  H     H_    0.265025 0.117878 0.135451 0.248124
H448  H     H_    0.208159 0.154836 0.121817 0.157490
H449  H     H_    0.166177 0.071594 0.093388 0.143221
H450  H     H_    0.182448 0.075711 0.160010 0.137553
H451  H     H_    0.221429 0.038250 0.118213 0.150476
H452  H     H_    0.630596 0.434581 0.640280 0.116169
H453  H     H_    0.650543 0.496813 0.636235 0.162751
H454  H     H_    0.581997 0.447977 0.709538 0.122613
H455  H     H_    0.635986 0.466399 0.747012 0.166573
H456  H     H_    0.626924 0.556671 0.721350 0.206259
H457  H     H_    0.121177 0.526201 0.724310 0.125491
H458  H     H_    0.564747 0.532079 0.738695 0.122369
H459  H     H_    0.582143 0.539268 0.672064 0.143969
H460  H     H_    0.375445 0.568210 0.352292 0.137567
H461  H     H_    0.387304 0.508733 0.324892 0.155650
H462  H     H_    0.292473 0.545823 0.384492 0.147239
H463  H     H_    0.291653 0.485184 0.355070 0.194897
H464  H     H_    0.361245 0.452657 0.401302 0.171890
H465  H     H_    0.318350 0.483340 0.445331 0.151055
H466  H     H_    0.377260 0.514090 0.428282 0.124569
H467  H     H_    0.623533 0.435573 0.362419 0.111963
H468  H     H_    0.117818 0.635236 0.764815 0.246825
H469  H     H_    0.618329 0.492535 0.329651 0.156705
H470  H     H_    0.691471 0.456008 0.414157 0.126244
H471  H     H_    0.711634 0.508590 0.375295 0.181884
H472  H     H_    0.637343 0.558262 0.397731 0.183022
H473  H     H_    0.664989 0.534620 0.456240 0.126621
H474  H     H_    0.608354 0.505330 0.430961 0.126403
H475  H     H_    0.366895 0.564750 0.630925 0.120378
H476  H     H_    0.325225 0.515399 0.619399 0.145214
H477  H     H_    0.411663 0.523578 0.699976 0.144369
H478  H     H_    0.372274 0.469407 0.698390 0.206057
H479  H     H_    0.152062 0.615902 0.708471 0.147295
H480  H     H_    0.399208 0.442443 0.616797 0.181809
H481  H     H_    0.430674 0.502073 0.602341 0.129098
H482  H     H_    0.456638 0.460268 0.649981 0.125511
H483  H     H_    0.415282 0.446393 0.268953 0.137447
H484  H     H_    0.380275 0.475556 0.218284 0.119739
H485  H     H_    0.377597 0.362533 0.249079 0.258190
H486  H     H_    0.345127 0.387688 0.195416 0.127663
H487  H     H_    0.427393 0.411347 0.155081 0.138138
H488  H     H_    0.427282 0.344339 0.173052 0.134762
H489  H     H_    0.461035 0.389838 0.210911 0.150109
H490  H     H_    0.062681 0.583708 0.676202 0.141502
H491  H     H_    0.726251 0.539441 0.593547 0.126845
H492  H     H_    0.780326 0.530590 0.635234 0.110289
H493  H     H_    0.730036 0.632424 0.614135 0.241676
H494  H     H_    0.787625 0.621514 0.650422 0.151309
H495  H     H_    0.829384 0.586370 0.572962 0.140840
H496  H     H_    0.807051 0.650696 0.562648 0.135399
H497  H     H_    0.771525 0.597221 0.538002 0.126906
H498  H     H_    0.280385 0.449152 0.587617 0.128842
H499  H     H_    0.228302 0.474379 0.623285 0.107143
H500  H     H_    0.264868 0.364241 0.624030 0.252778
H501  H     H_    0.075890 0.651062 0.676749 0.135992
H502  H     H_    0.206867 0.386648 0.653318 0.154860
H503  H     H_    0.177721 0.411905 0.563257 0.144068
H504  H     H_    0.184027 0.344426 0.575612 0.145428
H505  H     H_    0.232134 0.376768 0.539534 0.162822
H506  H     H_    0.589796 0.543173 0.263474 0.125614
H507  H     H_    0.636065 0.533929 0.213205 0.102023
H508  H     H_    0.609303 0.634743 0.267219 0.234097
H509  H     H_    0.655801 0.627940 0.215176 0.165664
H510  H     H_    0.580410 0.589167 0.162529 0.138400
H511  H     H_    0.583077 0.657831 0.174030 0.165022
H512  H     H_    0.037161 0.624035 0.725709 0.151932
H513  H     H_    0.539403 0.618381 0.210365 0.134029
H514  H     H_    0.432620 0.351536 0.376203 0.117216
H515  H     H_    0.493697 0.363497 0.354405 0.149759
H516  H     H_    0.445176 0.267182 0.401514 0.129531
H517  H     H_    0.499305 0.256508 0.360900 0.176693
H518  H     H_    0.552325 0.315794 0.410189 0.200837
H519  H     H_    0.525572 0.266229 0.450115 0.141412
H520  H     H_    0.498949 0.329810 0.452039 0.121047
H521  H     H_    0.566411 0.641943 0.627725 0.135381
H522  H     H_    0.507636 0.670348 0.615393 0.149220
H523  H     H_    0.429556 0.869180 0.861603 0.124537
H524  H     H_    0.542245 0.612598 0.712125 0.147064
H525  H     H_    0.480662 0.639331 0.708463 0.196718
H526  H     H_    0.451568 0.586599 0.643424 0.167753
H527  H     H_    0.490165 0.544481 0.682504 0.143024
H528  H     H_    0.513801 0.567731 0.622799 0.120380
H529  H     H_    0.434849 0.638029 0.375900 0.118266
H530  H     H_    0.495741 0.663749 0.378738 0.158995
H531  H     H_    0.445528 0.597724 0.293834 0.174057
H532  H     H_    0.508883 0.623846 0.288138 0.171005
H533  H     H_    0.539455 0.576050 0.361698 0.165841
H534  H     H_    0.485503 0.874007 0.828481 0.139623
H535  H     H_    0.507326 0.532322 0.319321 0.123257
H536  H     H_    0.475855 0.553858 0.376337 0.122073
H537  H     H_    0.566776 0.380612 0.644419 0.116954
H538  H     H_    0.510297 0.387993 0.676651 0.147306
H539  H     H_    0.544270 0.314418 0.592445 0.136000
H540  H     H_    0.494658 0.291593 0.632977 0.178990
H541  H     H_    0.438013 0.358756 0.611252 0.207009
H542  H     H_    0.487938 0.396967 0.583407 0.123296
H543  H     H_    0.467175 0.339703 0.551981 0.120500
H544  H     H_    0.445360 0.725875 0.586876 0.137208
H545  H     H_    0.460237 0.812195 0.925666 0.136028
H546  H     H_    0.477358 0.775839 0.620595 0.122011
H547  H     H_    0.363109 0.750109 0.625425 0.258923
H548  H     H_    0.391348 0.803090 0.656642 0.128394
H549  H     H_    0.416792 0.839907 0.572439 0.136772
H550  H     H_    0.348431 0.828098 0.576210 0.135623
H551  H     H_    0.388457 0.785358 0.541342 0.155476
H552  H     H_    0.571088 0.402211 0.305527 0.138232
H553  H     H_    0.517498 0.389317 0.268619 0.118420
H554  H     H_    0.629525 0.363821 0.240570 0.223505
H555  H     H_    0.575772 0.351893 0.199616 0.121682
H556  H     H_    0.043667 0.536265 0.136755 0.131360
H557  H     H_    0.515571 0.796576 0.889800 0.197659
H558  H     H_    0.559457 0.443173 0.191954 0.130392
H559  H     H_    0.627255 0.433003 0.181547 0.133369
H560  H     H_    0.604775 0.456889 0.241679 0.168460
H561  H     H_    0.444340 0.413556 0.726526 0.132552
H562  H     H_    0.475769 0.378013 0.774857 0.117676
H563  H     H_    0.362727 0.371090 0.747478 0.245268
H564  H     H_    0.391880 0.341314 0.801805 0.151692
H565  H     H_    0.411335 0.427196 0.837116 0.146812
H566  H     H_    0.344062 0.418519 0.825338 0.147998
H567  H     H_    0.381401 0.456708 0.782660 0.140524
H568  H     H_    0.550258 0.881231 0.899558 0.180366
H569  H     H_    0.550396 0.730683 0.410282 0.132665
H570  H     H_    0.526040 0.779603 0.368461 0.109092
H571  H     H_    0.636945 0.746476 0.367497 0.253953
H572  H     H_    0.609506 0.803328 0.339153 0.130456
H573  H     H_    0.584283 0.825337 0.434847 0.138240
H574  H     H_    0.650352 0.833431 0.414118 0.156914
H575  H     H_    0.633052 0.778021 0.450916 0.153887
H576  H     H_    0.352423 0.626109 0.571742 0.126401
H577  H     H_    0.364166 0.644862 0.509966 0.140291
H578  H     H_    0.271298 0.594956 0.559433 0.135315
H579  H     H_    0.535223 0.854813 0.960901 0.134261
H580  H     H_    0.254900 0.638427 0.509614 0.170726
H581  H     H_    0.314212 0.596008 0.450732 0.199948
H582  H     H_    0.266662 0.552562 0.475421 0.137322
H583  H     H_    0.331205 0.551407 0.500251 0.120675
H584  H     H_    0.639061 0.362358 0.426848 0.147395
H585  H     H_    0.685040 0.373771 0.473234 0.127748
H586  H     H_    0.588054 0.308662 0.492279 0.161528
H587  H     H_    0.624649 0.334243 0.540818 0.217879
H588  H     H_    0.596274 0.418872 0.529521 0.143002
H589  H     H_    0.540812 0.379969 0.516901 0.145502
H590  H     H_    0.494141 0.902842 0.933572 0.133315
H591  H     H_    0.574595 0.407472 0.464413 0.131522
H592  H     H_    0.637606 0.631641 0.569473 0.121351
H593  H     H_    0.674986 0.626149 0.516198 0.148541
H594  H     H_    0.571261 0.676771 0.534332 0.122461
H595  H     H_    0.609739 0.706353 0.486757 0.187218
H596  H     H_    0.612669 0.631214 0.435486 0.207627
H597  H     H_    0.547482 0.640344 0.453599 0.117754
H598  H     H_    0.584559 0.592101 0.485342 0.127203
H599  H     H_    0.360190 0.365456 0.428449 0.137649
H600  H     H_    0.373104 0.321136 0.476212 0.136426
H601  H     H_    0.581239 0.139462 0.142336 0.147916
H602  H     H_    0.302911 0.416042 0.486622 0.149774
H603  H     H_    0.320994 0.378697 0.538628 0.212139
H604  H     H_    0.406690 0.404736 0.537512 0.156899
H605  H     H_    0.404640 0.430153 0.474935 0.133585
H606  H     H_    0.371504 0.462000 0.526286 0.133728
H607  H     H_    0.729932 0.405797 0.537914 0.133156
H608  H     H_    0.780862 0.362763 0.523786 0.087158
H609  H     H_    0.736198 0.377201 0.630362 0.274526
H610  H     H_    0.795026 0.347039 0.615856 0.122575
H611  H     H_    0.830082 0.429854 0.583700 0.128070
H612  H     H_    0.528521 0.177380 0.129674 0.129405
H613  H     H_    0.807595 0.435559 0.648579 0.142359
H614  H     H_    0.769236 0.458725 0.596289 0.153499
H615  H     H_    0.400521 0.688818 0.432783 0.131839
H616  H     H_    0.387314 0.728872 0.483885 0.122983
H617  H     H_    0.368995 0.751140 0.369956 0.237485
H618  H     H_    0.350874 0.794596 0.419530 0.122380
H619  H     H_    0.437204 0.810613 0.442823 0.128559
H620  H     H_    0.438198 0.808058 0.373830 0.139335
H621  H     H_    0.459217 0.754001 0.411229 0.154167
H622  H     H_    0.409201 0.275916 0.546580 0.136779
H623  H     H_    0.536080 0.074329 0.186317 0.150302
H624  H     H_    0.369815 0.226017 0.523222 0.099345
H625  H     H_    0.377105 0.262019 0.633991 0.243676
H626  H     H_    0.341744 0.206848 0.612525 0.158430
H627  H     H_    0.421971 0.165900 0.585328 0.146604
H628  H     H_    0.421652 0.181618 0.652225 0.144358
H629  H     H_    0.457549 0.220100 0.608311 0.137663
H630  H     H_    0.730711 0.595441 0.461580 0.118552
H631  H     H_    0.782055 0.640695 0.463446 0.101779
H632  H     H_    0.721454 0.609646 0.369086 0.235560
H633  H     H_    0.777449 0.650230 0.370148 0.172436
H634  H     H_    0.478780 0.110135 0.189395 0.206323
H635  H     H_    0.785444 0.543106 0.413921 0.128299
H636  H     H_    0.833434 0.584167 0.386496 0.146497
H637  H     H_    0.787341 0.553706 0.346354 0.157099
H638  H     H_    0.462915 0.104179 0.100520 0.164640
H639  H     H_    0.478637 0.041154 0.123373 0.135256
H640  H     H_    0.075712 0.499417 0.088285 0.131988
H641  H     H_    0.524636 0.077043 0.087432 0.136166
H642  H     H_    0.421513 0.145462 0.871332 0.125912
H643  H     H_    0.485669 0.159964 0.879101 0.153379
H644  H     H_    0.429830 0.111069 0.787944 0.176890
H645  H     H_    0.493900 0.133751 0.780308 0.177735
H646  H     H_    0.525796 0.080980 0.847033 0.173357
H647  H     H_    0.487847 0.040736 0.805228 0.138143
H648  H     H_    0.463639 0.060226 0.866336 0.116661
H649  H     H_    0.576351 0.853003 0.133223 0.130583
H650  H     H_    0.523205 0.863846 0.167256 0.132660
H651  H     H_    0.851624 0.584771 0.863211 0.155446
H652  H     H_    0.534970 0.798649 0.069683 0.140877
H653  H     H_    0.477566 0.796210 0.106032 0.200143
H654  H     H_    0.460792 0.886673 0.091873 0.160719
H655  H     H_    0.471510 0.854993 0.032220 0.135352
H656  H     H_    0.521096 0.894232 0.059080 0.125305
H657  H     H_    0.456499 0.201715 0.094964 0.128220
H658  H     H_    0.475015 0.259257 0.126258 0.099093
H659  H     H_    0.368082 0.214403 0.110390 0.237661
H660  H     H_    0.379630 0.271754 0.146994 0.169558
H661  H     H_    0.413005 0.316692 0.074604 0.141424
H662  H     H_    0.866724 0.533653 0.823810 0.121121
H663  H     H_    0.352595 0.288919 0.057509 0.141049
H664  H     H_    0.411113 0.260327 0.035589 0.139545
H665  H     H_    0.583891 0.899768 0.798250 0.175085
H666  H     H_    0.528339 0.891083 0.761091 0.090813
H667  H     H_    0.636672 0.854250 0.733984 0.211962
H668  H     H_    0.580489 0.842631 0.696325 0.140440
H669  H     H_    0.571088 0.941250 0.694624 0.144138
H670  H     H_    0.623194 0.913390 0.659791 0.141832
H671  H     H_    0.635351 0.942579 0.719812 0.154641
H672  H     H_    0.452075 0.901377 0.196034 0.117978
O1    O     O_3   0.250000 0.250000 0.250000 -0.478532
O2    O     O_R   0.634200 0.719710 0.719710 -0.488409
O3    O     O_R   0.219710 0.365800 0.219710 -0.527016
O4    O     O_R   0.219710 0.634200 0.219710 -0.543777
O5    O     O_R   0.780290 0.365800 0.780290 -0.544458
O6    O     O_R   0.219710 0.365800 0.780290 -0.494455
O7    O     O_R   0.780290 0.634200 0.219710 -0.513623
O8    O     O_3   0.173240 0.449055 0.203426 -0.549476
O9    O     O_3   0.788758 0.551814 0.831919 -0.549369
O10   O     O_3   0.163597 0.442439 0.786255 -0.552602
O11   O     O_3   0.832881 0.551420 0.219539 -0.546207
O12   O     O_3   0.824534 0.447811 0.806183 -0.559396
O13   O     O_R   0.280290 0.280290 0.634200 -0.550094
O14   O     O_3   0.197104 0.555980 0.172475 -0.560142
O15   O     O_3   0.808922 0.448806 0.179844 -0.553899
O16   O     O_3   0.163418 0.552669 0.788509 -0.551187
O17   O     O_3   0.445649 0.804275 0.822715 -0.542103
O18   O     O_3   0.552378 0.172356 0.206235 -0.546939
O19   O     O_3   0.443297 0.209173 0.833942 -0.550320
O20   O     O_3   0.553024 0.789128 0.169646 -0.544138
O21   O     O_3   0.447358 0.197941 0.172475 -0.561265
O22   O     O_3   0.556221 0.828049 0.801194 -0.555057
O23   O     O_3   0.447745 0.823477 0.195176 -0.564775
O24   O     O_R   0.719710 0.719710 0.365800 -0.545892
O25   O     O_3   0.552524 0.204648 0.832985 -0.548967
O26   O     O_3   0.800781 0.173855 0.554579 -0.536082
O27   O     O_3   0.175800 0.800191 0.448118 -0.545161
O28   O     O_3   0.212937 0.163375 0.556570 -0.558442
O29   O     O_3   0.799622 0.826551 0.446072 -0.538557
O30   O     O_3   0.204018 0.831931 0.553349 -0.567757
O31   O     O_3   0.831107 0.205698 0.446978 -0.555411
O32   O     O_3   0.828256 0.799786 0.553184 -0.564706
O33   O     O_3   0.206860 0.165692 0.447248 -0.549044
O34   O     O_3   0.718873 0.945155 0.165673 -0.549032
O35   O     O_R   0.634200 0.280290 0.719710 -0.483655
O36   O     O_3   0.331970 0.054559 0.788270 -0.554976
O37   O     O_3   0.200532 0.947809 0.328156 -0.553808
O38   O     O_3   0.785926 0.056455 0.665811 -0.532923
O39   O     O_3   0.333006 0.946670 0.786165 -0.553121
O40   O     O_3   0.721555 0.053809 0.163883 -0.560931
O41   O     O_3   0.784625 0.947013 0.664001 -0.553171
O42   O     O_3   0.171333 0.052086 0.298167 -0.556229
O43   O     O_3   0.673046 0.057212 0.801306 -0.550155
O44   O     O_3   0.299086 0.945834 0.175336 -0.553675
O45   O     O_3   0.164422 0.056194 0.716062 -0.552057
O46   O     O_R   0.365800 0.719710 0.280290 -0.504220
O47   O     O_3   0.794251 0.943474 0.332094 -0.534899
O48   O     O_3   0.329795 0.052853 0.204352 -0.565317
O49   O     O_3   0.698012 0.947280 0.826755 -0.557268
O50   O     O_3   0.786782 0.055180 0.335575 -0.562979
O51   O     O_3   0.164177 0.946549 0.712650 -0.559512
O52   O     O_3   0.945534 0.831506 0.288688 -0.544559
O53   O     O_3   0.054841 0.208425 0.669821 -0.556398
O54   O     O_3   0.945155 0.675385 0.803912 -0.557166
O55   O     O_3   0.051755 0.296846 0.176173 -0.549275
O56   O     O_3   0.946309 0.209956 0.668556 -0.553557
O57   O     O_R   0.719710 0.280290 0.365800 -0.496407
O58   O     O_3   0.053007 0.834255 0.283637 -0.556464
O59   O     O_3   0.947514 0.330951 0.206489 -0.554753
O60   O     O_3   0.052307 0.706518 0.830744 -0.565708
O61   O     O_3   0.058807 0.198127 0.327494 -0.551246
O62   O     O_3   0.947510 0.825192 0.699890 -0.554670
O63   O     O_3   0.056608 0.284953 0.834955 -0.553043
O64   O     O_3   0.943420 0.672854 0.196940 -0.533431
O65   O     O_3   0.053324 0.793294 0.668986 -0.571670
O66   O     O_3   0.947004 0.175690 0.305902 -0.569212
O67   O     O_3   0.053437 0.664617 0.211883 -0.566939
O68   O     O_R   0.280290 0.719710 0.634200 -0.516407
O69   O     O_3   0.946335 0.287956 0.835042 -0.560244
O70   O     O_3   0.832329 0.714202 0.054571 -0.544541
O71   O     O_3   0.206628 0.329647 0.945068 -0.551092
O72   O     O_3   0.677152 0.194461 0.051198 -0.552117
O73   O     O_3   0.334617 0.784365 0.944320 -0.536561
O74   O     O_3   0.209679 0.331084 0.053191 -0.553189
O75   O     O_3   0.832951 0.714120 0.947551 -0.555703
O76   O     O_3   0.337028 0.781289 0.053549 -0.550157
O77   O     O_3   0.709077 0.167139 0.947841 -0.557211
O78   O     O_3   0.174710 0.697915 0.944402 -0.573066
O79   O     O_R   0.365800 0.719710 0.719710 -0.507631
O80   O     O_3   0.823876 0.303390 0.055125 -0.551214
O81   O     O_3   0.286139 0.165367 0.942681 -0.548852
O82   O     O_3   0.669001 0.795981 0.056046 -0.534559
O83   O     O_3   0.795435 0.330193 0.947023 -0.557327
O84   O     O_3   0.169088 0.705555 0.053664 -0.550899
O85   O     O_3   0.663182 0.784213 0.945479 -0.565619
O86   O     O_3   0.285720 0.163297 0.053197 -0.562093
O87   O     O_3   0.698558 0.446380 0.674147 -0.562852
O88   O     O_3   0.335869 0.555620 0.287271 -0.551915
O89   O     O_3   0.676590 0.443085 0.306942 -0.548462
O90   O     O_R   0.634200 0.280290 0.280290 -0.503679
O91   O     O_3   0.316265 0.555489 0.687692 -0.541339
O92   O     O_3   0.338572 0.445509 0.281111 -0.554985
O93   O     O_3   0.709911 0.553939 0.667977 -0.560306
O94   O     O_3   0.292392 0.446211 0.664607 -0.566032
O95   O     O_3   0.663687 0.553785 0.287328 -0.564015
O96   O     O_3   0.445555 0.324676 0.304757 -0.561080
O97   O     O_3   0.555063 0.706806 0.667719 -0.539208
O98   O     O_3   0.444069 0.697349 0.327260 -0.551535
O99   O     O_3   0.557651 0.329424 0.701333 -0.543572
O100  O     O_3   0.445417 0.714902 0.663749 -0.555072
O101  O     O_R   0.280290 0.719710 0.365800 -0.512461
O102  O     O_3   0.555155 0.326933 0.300564 -0.548182
O103  O     O_3   0.445991 0.337106 0.711401 -0.559498
O104  O     O_3   0.553994 0.711304 0.334780 -0.561191
O105  O     O_3   0.325587 0.696720 0.555412 -0.563696
O106  O     O_3   0.673519 0.297559 0.449693 -0.545585
O107  O     O_3   0.676634 0.696720 0.554333 -0.545148
O108  O     O_3   0.297282 0.326061 0.449203 -0.545888
O109  O     O_3   0.710379 0.331762 0.551715 -0.572522
O110  O     O_3   0.324988 0.696773 0.445784 -0.551653
O111  O     O_3   0.333355 0.292654 0.552347 -0.573689
O112  O     O_3   0.750000 0.750000 0.750000 -0.479412
O113  O     O_R   0.719710 0.280290 0.634200 -0.516876
O114  O     O_3   0.707053 0.668478 0.446840 -0.559890
O115  O     O_R   0.634200 0.719710 0.280290 -0.548208
O116  O     O_R   0.365800 0.280290 0.719710 -0.547262
O117  O     O_R   0.719710 0.719710 0.634200 -0.508278
O118  O     O_R   0.280290 0.280290 0.365800 -0.497121
O119  O     O_R   0.280290 0.365800 0.719710 -0.548788
O120  O     O_R   0.719710 0.634200 0.280290 -0.543003
O121  O     O_R   0.280290 0.634200 0.280290 -0.490626
O122  O     O_R   0.719710 0.365800 0.719710 -0.514463
O123  O     O_R   0.719710 0.634200 0.719710 -0.520583
O124  O     O_3   0.250000 0.250000 0.750000 -0.488991
O125  O     O_R   0.280290 0.365800 0.280290 -0.503142
O126  O     O_R   0.719710 0.365800 0.280290 -0.502307
O127  O     O_R   0.280290 0.634200 0.719710 -0.482987
O128  O     O_R   0.865800 0.780290 0.280290 -0.505584
O129  O     O_R   0.134200 0.219710 0.719710 -0.499280
O130  O     O_R   0.280290 0.780290 0.134200 -0.507569
O131  O     O_R   0.719710 0.219710 0.865800 -0.546285
O132  O     O_R   0.134200 0.780290 0.719710 -0.537275
O133  O     O_R   0.865800 0.219710 0.280290 -0.541928
O134  O     O_R   0.719710 0.780290 0.865800 -0.547933
O135  O     O_3   0.750000 0.750000 0.250000 -0.490683
O136  O     O_R   0.280290 0.219710 0.134200 -0.547646
O137  O     O_R   0.865800 0.219710 0.719710 -0.517101
O138  O     O_R   0.134200 0.780290 0.280290 -0.509628
O139  O     O_R   0.280290 0.219710 0.865800 -0.496808
O140  O     O_R   0.719710 0.780290 0.134200 -0.484511
O141  O     O_R   0.134200 0.219710 0.280290 -0.514863
O142  O     O_R   0.865800 0.780290 0.719710 -0.520821
O143  O     O_R   0.719710 0.219710 0.134200 -0.526430
O144  O     O_R   0.280290 0.780290 0.865800 -0.491674
O145  O     O_R   0.780290 0.719710 0.134200 -0.511486
O146  O     O_3   0.750000 0.250000 0.750000 -0.480398
O147  O     O_R   0.219710 0.280290 0.865800 -0.497492
O148  O     O_R   0.780290 0.865800 0.719710 -0.508352
O149  O     O_R   0.219710 0.134200 0.280290 -0.547285
O150  O     O_R   0.780290 0.280290 0.865800 -0.538063
O151  O     O_R   0.219710 0.719710 0.134200 -0.531978
O152  O     O_R   0.780290 0.134200 0.280290 -0.545307
O153  O     O_R   0.219710 0.865800 0.719710 -0.542375
O154  O     O_R   0.219710 0.280290 0.134200 -0.508421
O155  O     O_R   0.780290 0.719710 0.865800 -0.508408
O156  O     O_R   0.219710 0.134200 0.719710 -0.501356
O157  O     O_3   0.250000 0.750000 0.250000 -0.480585
O158  O     O_R   0.780290 0.865800 0.280290 -0.485010
O159  O     O_R   0.219710 0.719710 0.865800 -0.521487
O160  O     O_R   0.780290 0.280290 0.134200 -0.514390
O161  O     O_R   0.219710 0.865800 0.280290 -0.529451
O162  O     O_R   0.780290 0.134200 0.719710 -0.491216
O163  O     O_R   0.719710 0.865800 0.219710 -0.509344
O164  O     O_R   0.280290 0.134200 0.780290 -0.500350
O165  O     O_R   0.865800 0.280290 0.219710 -0.506900
O166  O     O_R   0.134200 0.719710 0.780290 -0.548023
O167  O     O_R   0.280290 0.134200 0.219710 -0.539323
O168  O     O_3   0.750000 0.250000 0.250000 -0.481466
O169  O     O_R   0.719710 0.865800 0.780290 -0.534475
O170  O     O_R   0.134200 0.719710 0.219710 -0.547504
O171  O     O_R   0.865800 0.280290 0.780290 -0.546033
O172  O     O_R   0.280290 0.865800 0.780290 -0.513134
O173  O     O_R   0.719710 0.134200 0.219710 -0.512335
O174  O     O_R   0.134200 0.280290 0.780290 -0.497837
O175  O     O_R   0.865800 0.719710 0.219710 -0.484466
O176  O     O_R   0.719710 0.134200 0.780290 -0.515150
O177  O     O_R   0.280290 0.865800 0.219710 -0.516476
O178  O     O_R   0.865800 0.719710 0.780290 -0.518638
O179  O     O_3   0.250000 0.750000 0.750000 -0.480452
O180  O     O_R   0.134200 0.280290 0.219710 -0.491847
O181  O     O_R   0.365800 0.780290 0.780290 -0.506326
O182  O     O_R   0.634200 0.219710 0.219710 -0.501976
O183  O     O_R   0.780290 0.780290 0.634200 -0.544066
O184  O     O_R   0.219710 0.219710 0.365800 -0.510259
O185  O     O_R   0.634200 0.780290 0.219710 -0.501274
O186  O     O_R   0.365800 0.219710 0.780290 -0.495179
O187  O     O_R   0.219710 0.780290 0.365800 -0.496390
O188  O     O_R   0.780290 0.219710 0.634200 -0.510657
O189  O     O_R   0.365800 0.219710 0.219710 -0.543804
O190  O     O_R   0.365800 0.280290 0.280290 -0.518299
O191  O     O_R   0.634200 0.780290 0.780290 -0.537929
O192  O     O_R   0.780290 0.219710 0.365800 -0.536199
O193  O     O_R   0.219710 0.780290 0.634200 -0.542328
O194  O     O_R   0.634200 0.219710 0.780290 -0.512055
O195  O     O_R   0.365800 0.780290 0.219710 -0.541963
O196  O     O_R   0.219710 0.219710 0.634200 -0.500765
O197  O     O_R   0.780290 0.780290 0.365800 -0.494496
O198  O     O_R   0.780290 0.365800 0.219710 -0.548101
O199  O     O_R   0.219710 0.634200 0.780290 -0.516516
O200  O     O_R   0.780290 0.634200 0.780290 -0.506300
Zn1   Zn    Zn3+2 0.206600 0.293400 0.206600 0.935805
Zn2   Zn    Zn3+2 0.706600 0.206600 0.206600 0.927404
Zn3   Zn    Zn3+2 0.293400 0.206600 0.793400 0.960879
Zn4   Zn    Zn3+2 0.706600 0.793400 0.206600 0.960414
Zn5   Zn    Zn3+2 0.293400 0.206600 0.206600 0.874405
Zn6   Zn    Zn3+2 0.706600 0.793400 0.793400 0.891624
Zn7   Zn    Zn3+2 0.293400 0.793400 0.206600 0.908087
Zn8   Zn    Zn3+2 0.706600 0.206600 0.793400 0.919006
Zn9   Zn    Zn3+2 0.793400 0.206600 0.706600 0.941596
Zn10  Zn    Zn3+2 0.206600 0.793400 0.293400 0.929385
Zn11  Zn    Zn3+2 0.206600 0.206600 0.706600 0.957356
Zn12  Zn    Zn3+2 0.793400 0.706600 0.793400 0.927464
Zn13  Zn    Zn3+2 0.793400 0.793400 0.293400 0.966460
Zn14  Zn    Zn3+2 0.206600 0.793400 0.706600 0.874881
Zn15  Zn    Zn3+2 0.793400 0.206600 0.293400 0.887798
Zn16  Zn    Zn3+2 0.793400 0.793400 0.706600 0.907275
Zn17  Zn    Zn3+2 0.206600 0.206600 0.293400 0.920769
Zn18  Zn    Zn3+2 0.706600 0.293400 0.706600 0.942380
Zn19  Zn    Zn3+2 0.293400 0.706600 0.293400 0.938876
Zn20  Zn    Zn3+2 0.706600 0.293400 0.293400 0.941003
Zn21  Zn    Zn3+2 0.293400 0.706600 0.706600 0.944127
Zn22  Zn    Zn3+2 0.293400 0.293400 0.293400 0.940823
Zn23  Zn    Zn3+2 0.206600 0.293400 0.793400 0.962635
Zn24  Zn    Zn3+2 0.706600 0.706600 0.706600 0.933959
Zn25  Zn    Zn3+2 0.293400 0.293400 0.706600 0.892820
Zn26  Zn    Zn3+2 0.706600 0.706600 0.293400 0.889912
Zn27  Zn    Zn3+2 0.793400 0.706600 0.206600 0.953823
Zn28  Zn    Zn3+2 0.793400 0.293400 0.793400 0.876339
Zn29  Zn    Zn3+2 0.206600 0.706600 0.206600 0.887083
Zn30  Zn    Zn3+2 0.793400 0.293400 0.206600 0.907944
Zn31  Zn    Zn3+2 0.206600 0.706600 0.793400 0.914965
Zn32  Zn    Zn3+2 0.293400 0.793400 0.793400 0.941501

loop_
_geom_bond_atom_site_label_1
_geom_bond_atom_site_label_2
_ccdc_geom_bond_type
C152  H3    S    
C269  H274  S    
C271  H278  S    
C2    C65   S    
C355  H475  S    
C337  C338  S    
C160  H20   S    
C198  H109  S    
O167  Zn5   S    
O168  Zn15  S    
C38   C63   A    
O120  Zn26  S    
C110  H24   S    
C37   C42   A    
C426  O35   A    
C286  H315  S    
C75   C443  A    
C326  C327  S    
C186  H81   S    
C4    C479  A    
C172  O30   S    
C87   C268  S    
C202  O40   S    
O112  Zn24  S    
C128  H434  S    
C315  H383  S    
O179  Zn14  S    
C88   C474  A    
C4    O65   S    
C395  H569  S    
C411  O109  S    
C285  H313  S    
C306  H361  S    
C78   C368  S    
C118  H201  S    
C336  H428  S    
C417  H619  S    
C232  O50   S    
C473  C476  A    
O159  Zn31  S    
C108  H662  S    
C227  C228  S    
C249  O55   S    
C334  O24   A    
C24   O113  A    
C267  H270  S    
C357  O149  A    
C161  H23   S    
C162  H25   S    
C184  H75   S    
C22   O84   S    
C421  H630  S    
C346  O169  A    
C47   O108  S    
C228  H176  S    
O141  Zn17  S    
C85   C455  A    
C248  H226  S    
C386  H548  S    
O129  Zn11  S    
C449  O31   S    
C476  O59   S    
C258  H247  S    
C405  C406  S    
C480  O63   S    
C246  O154  A    
C341  H442  S    
C239  O52   S    
C185  O34   S    
C195  C196  S    
C125  H335  S    
C181  H70   S    
C158  H16   S    
C155  C156  S    
C186  C187  S    
C109  C110  S    
C314  H380  S    
C324  H402  S    
C380  C381  S    
C95   C472  A    
C291  H324  S    
C15   O76   S    
C139  O19   S    
C249  C250  S    
C233  H191  S    
C237  H197  S    
C270  H276  S    
C459  O193  A    
C314  H381  S    
C191  H91   S    
C253  C254  S    
O3    Zn1   S    
C170  C171  S    
C221  H164  S    
C465  O48   S    
C343  H448  S    
C309  H369  S    
C242  H211  S    
C189  C191  S    
C305  O74   S    
C351  H465  S    
C442  O25   S    
C123  H323  S    
C233  C234  S    
C54   C433  A    
O116  Zn25  S    
C134  H568  S    
C446  O29   S    
C197  H106  S    
C330  H419  S    
O146  Zn28  S    
C434  O17   S    
C389  H555  S    
C387  H551  S    
C268  O138  A    
C175  H55   S    
C244  H215  S    
C51   C76   A    
C332  H422  S    
C301  O180  A    
C238  H200  S    
C372  H514  S    
C307  H365  S    
C293  C294  S    
C44   O106  S    
C241  H209  S    
C35   C67   S    
C209  C210  S    
C140  H645  S    
C321  O80   S    
C71   C459  S    
C5    C91   A    
C105  O8    S    
C290  O140  A    
C414  H614  S    
C403  H587  S    
C100  C279  S    
C463  C468  A    
C136  H601  S    
C262  O60   S    
O157  Zn19  S    
C120  C121  S    
C320  H395  S    
C131  H490  S    
C142  C143  S    
C36   C39   A    
C278  H296  S    
C260  C261  S    
C192  H94   S    
C58   C135  S    
C296  H339  S    
C207  H130  S    
C64   C441  A    
C116  O11   S    
C150  H667  S    
C250  H230  S    
O151  Zn29  S    
C391  H560  S    
C107  H445  S    
C273  H283  S    
C116  H135  S    
C335  O159  A    
C9    C12   A    
C217  H154  S    
C152  C153  S    
O146  Zn8   S    
C272  H282  S    
C397  H575  S    
O137  Zn9   S    
C288  O69   S    
C420  H629  S    
O118  Zn22  S    
C242  O53   S    
C98   C201  S    
C317  H386  S    
C310  H372  S    
C353  H470  S    
C52   C431  A    
C457  O40   S    
C229  H181  S    
C129  C130  S    
C124  O123  A    
C171  H45   S    
C29   C54   A    
C205  O41   S    
O144  Zn32  S    
C326  H408  S    
C1    O189  A    
C275  H289  S    
C229  H180  S    
C408  O108  S    
O162  Zn9   S    
C178  H63   S    
C345  C347  S    
C308  H367  S    
C299  H347  S    
C318  H389  S    
C110  H35   S    
O156  Zn11  S    
C355  H476  S    
C412  O161  A    
C368  O173  A    
C160  H19   S    
O127  Zn21  S    
C257  O137  A    
C144  H656  S    
C151  H671  S    
O138  Zn10  S    
C464  O47   S    
C331  C332  S    
C124  O200  A    
C114  H90   S    
C385  H544  S    
O158  Zn13  S    
C321  H397  S    
C37   O98   S    
C243  H213  S    
C69   C436  A    
C115  H113  S    
C142  H650  S    
C180  C181  S    
C92   C471  A    
C385  C386  S    
C402  H585  S    
O199  Zn31  S    
C395  H570  S    
C392  C393  S    
C220  H162  S    
C19   C100  A    
C83   C453  A    
C105  C106  S    
C228  H177  S    
C417  H620  S    
C239  H203  S    
C17   C22   A    
C184  H77   S    
C133  H545  S    
C73   C450  A    
C349  O88   S    
C21   C98   A    
C325  H405  S    
C129  H446  S    
C230  C231  S    
C363  H493  S    
C13   C74   S    
O115  Zn26  S    
C107  H640  S    
C128  H423  S    
C2    O90   A    
C406  C407  S    
C452  C457  A    
C421  H631  S    
C94   C473  A    
C95   C479  A    
C5    O66   S    
C339  H437  S    
C343  C344  S    
C342  O86   S    
C165  C166  S    
C272  O63   S    
C179  O174  A    
C84   C464  A    
C177  H60   S    
C8    O70   S    
C248  H225  S    
O187  Zn10  S    
C47   C50   A    
C386  H547  S    
C378  H530  S    
O149  Zn17  S    
C198  O39   S    
C418  H622  S    
C283  H306  S    
C282  H304  S    
C119  O12   S    
C452  O34   S    
C121  H257  S    
C61   C440  A    
C280  H298  S    
C164  H30   S    
C7    C88   A    
C348  H458  S    
C132  C133  S    
C282  H305  S    
C358  H480  S    
C198  C199  S    
C204  H125  S    
C68   C72   S    
C196  H104  S    
C26   C31   A    
C175  O31   S    
C418  O111  S    
C236  H196  S    
C200  H116  S    
C415  O110  S    
C252  O56   S    
C359  O92   S    
C188  H86   S    
C115  H124  S    
C427  C430  A    
O163  Zn4   S    
C270  H275  S    
C275  H288  S    
C57   O183  A    
C338  H432  S    
C191  H92   S    
C400  H582  S    
C406  H595  S    
C134  H590  S    
C393  H563  S    
C309  H370  S    
C242  H210  S    
C59   C90   S    
C79   O119  A    
C468  O51   S    
O188  Zn9   S    
C348  H456  S    
C351  H466  S    
C404  H589  S    
O157  Zn7   S    
C193  H96   S    
C29   O91   S    
C273  C274  S    
C81   C357  S    
C436  C442  A    
C211  C213  S    
C197  H107  S    
O190  Zn22  S    
C149  H665  S    
C166  C167  S    
C437  O195  A    
C278  C280  S    
C118  H190  S    
C119  H212  S    
C176  H58   S    
O46   Zn19  S    
C401  O163  A    
C101  O121  A    
C236  O51   S    
C15   C99   A    
C278  O65   S    
C427  O9    S    
C105  H1    S    
C344  H451  S    
C238  H199  S    
C255  H242  S    
C80   C468  A    
C192  C193  S    
C17   C103  A    
C287  H317  S    
C19   C25   A    
C95   C312  S    
C159  O26   S    
C357  O167  A    
C112  O2    A    
C254  H241  S    
C60   C79   S    
C210  H140  S    
C411  C413  S    
C194  H99   S    
C282  C283  S    
C215  O44   S    
C366  H502  S    
C355  O91   S    
C250  H229  S    
C108  C109  S    
C327  H410  S    
C77   C223  S    
O174  Zn23  S    
C275  C276  S    
C374  H520  S    
C90   O120  A    
C143  H652  S    
C289  H321  S    
C272  H281  S    
O124  Zn11  S    
C319  H393  S    
O1    Zn5   S    
O161  Zn10  S    
C405  H593  S    
C33   C59   A    
C202  H118  S    
C278  H297  S    
C132  H534  S    
C317  H387  S    
O131  Zn8   S    
C310  H371  S    
C474  O56   S    
C353  H471  S    
C366  H500  S    
C52   C101  S    
C202  C203  S    
C340  C341  S    
C206  C207  S    
C336  C337  S    
C183  H73   S    
C365  O94   S    
C316  C317  S    
C82   C466  A    
C137  H634  S    
C215  C216  S    
C445  C451  A    
C135  O3    A    
C175  C176  S    
C326  H407  S    
C312  O142  A    
C1    O190  A    
O124  Zn25  S    
C478  O61   S    
O168  Zn20  S    
C466  O49   S    
C430  O12   S    
C40   C65   A    
O160  Zn30  S    
C284  H308  S    
C383  C384  S    
C91   C476  A    
C43   C71   A    
C447  O30   S    
C360  H486  S    
C144  H655  S    
C260  H252  S    
C139  C140  S    
O198  Zn30  S    
C395  O104  S    
C226  O48   S    
C275  O64   S    
C345  O87   S    
C323  O143  A    
C416  C417  S    
C130  C131  S    
C354  H474  S    
C10   C16   A    
C376  H524  S    
C431  O14   S    
C16   C98   A    
C128  H412  S    
C169  O29   S    
C195  O38   S    
C373  H517  S    
C339  O85   S    
O168  Zn2   S    
C53   C430  A    
C74   C444  A    
C350  C351  S    
C321  H398  S    
C13   O101  A    
C399  H580  S    
C294  H331  S    
C243  H214  S    
C139  H643  S    
C336  H429  S    
C305  H359  S    
C359  C360  S    
O173  Zn2   S    
C409  C410  S    
C142  H649  S    
C434  C440  A    
C455  O38   S    
C166  H36   S    
C373  H516  S    
C216  H152  S    
C371  H510  S    
C220  H161  S    
O172  Zn32  S    
C417  H621  S    
O135  Zn27  S    
C276  H292  S    
C25   O86   S    
C174  H54   S    
C154  H7    S    
C325  H406  S    
C130  H479  S    
C342  H444  S    
C363  H494  S    
C388  H553  S    
C249  H227  S    
C379  O172  A    
C288  H320  S    
C256  C258  S    
C146  O198  A    
C31   C56   A    
C273  H284  S    
C472  O54   S    
C208  O42   S    
C218  H158  S    
C352  H467  S    
C443  C449  A    
C460  O42   S    
C7    C480  A    
C177  H61   S    
C359  H483  S    
C396  H572  S    
C279  O139  A    
C205  H127  S    
C378  H529  S    
C173  H50   S    
C142  O20   S    
C38   C41   A    
C57   O117  A    
C239  H204  S    
C123  H312  S    
C346  O148  A    
C302  H352  S    
C402  O106  S    
C223  O196  A    
C164  H29   S    
C20   C23   A    
C400  H581  S    
C406  H594  S    
C356  C358  S    
C108  H651  S    
C70   C448  S    
C314  H378  S    
O200  Zn12  S    
C138  H639  S    
C324  H404  S    
C9    C100  A    
C236  H195  S    
C200  H115  S    
C40   O102  S    
C80   C456  A    
C402  C403  S    
C152  H672  S    
C355  C356  S    
C227  H174  S    
C178  O32   S    
C141  H646  S    
C136  C137  S    
C32   O94   S    
C152  O23   S    
C393  H564  S    
C127  H401  S    
C461  O43   S    
C382  H538  S    
C330  H418  S    
C261  H254  S    
O142  Zn16  S    
C54   C157  S    
C411  H607  S    
C300  H348  S    
C265  O61   S    
C473  O55   S    
C429  O11   S    
C197  H108  S    
C214  H148  S    
C263  H260  S    
C330  H417  S    
C149  H666  S    
C150  C151  S    
C252  C253  S    
C322  H400  S    
C184  H76   S    
C259  C260  S    
C387  H549  S    
C428  C433  A    
C382  C383  S    
C244  H217  S    
C459  O68   A    
C353  C354  S    
C332  H424  S    
O197  Zn13  S    
C263  C264  S    
C213  C214  S    
C444  C447  A    
C64   C437  S    
C17   O78   S    
C307  H363  S    
C439  O21   S    
C123  C125  S    
C287  H318  S    
O132  Zn14  S    
C281  H300  S    
O175  Zn27  S    
C366  C367  S    
C127  H390  S    
C41   O103  S    
C93   C168  S    
C259  O59   S    
C83   C463  A    
C13   O187  A    
C20   O82   S    
O123  Zn24  S    
O192  Zn15  S    
C35   O185  A    
C308  O75   S    
C419  H625  S    
C315  C316  S    
C210  H139  S    
C408  H599  S    
C259  H250  S    
C194  H98   S    
O195  Zn7   S    
O169  Zn6   S    
C55   C146  S    
C231  H185  S    
C391  H558  S    
C235  O155  A    
C328  H414  S    
C438  C441  A    
C7    O69   S    
C81   C465  A    
C299  C300  S    
C285  C286  S    
C374  H519  S    
C195  H102  S    
C289  H322  S    
C187  H85   S    
C390  O164  A    
C235  O134  A    
C248  H222  S    
C454  C460  A    
C39   C66   A    
C116  H146  S    
C317  H388  S    
C378  C380  S    
C97   C246  S    
C37   C64   A    
C331  H420  S    
C23   O85   S    
O196  Zn11  S    
C302  O73   S    
C304  H358  S    
C453  O36   S    
C24   C75   S    
C192  O37   S    
C183  H74   S    
C106  H334  S    
O112  Zn6   S    
C149  C150  S    
C424  H636  S    
O165  Zn30  S    
C318  O78   S    
C304  H355  S    
C325  C326  S    
O152  Zn15  S    
C409  H602  S    
C299  H345  S    
C265  H265  S    
C319  C320  S    
C85   C423  S    
C101  O4    A    
C361  H487  S    
C82   C458  A    
C120  H235  S    
C49   C74   A    
C247  H221  S    
C203  C204  S    
C394  H567  S    
C360  H485  S    
C381  H533  S    
C163  C164  S    
C151  H669  S    
C262  H259  S    
C410  H606  S    
C309  C310  S    
C236  C237  S    
C294  H332  S    
C234  H192  S    
O112  Zn12  S    
C327  H411  S    
C292  C293  S    
C222  H166  S    
C333  H425  S    
C354  H473  S    
C286  C287  S    
C20   C102  A    
C168  O128  A    
C383  H540  S    
C454  O37   S    
C295  O71   S    
C46   C69   S    
C435  O18   S    
C305  H360  S    
C109  H2    S    
C315  H382  S    
C265  C266  S    
C77   C445  A    
C216  H151  S    
C156  H12   S    
C245  H218  S    
C276  H291  S    
C174  H53   S    
C16   O77   S    
C471  C474  A    
C94   C478  A    
C402  H584  S    
C43   C49   A    
C218  H156  S    
C188  C189  S    
C80   C379  S    
C342  H443  S    
C170  H42   S    
C205  H126  S    
C249  H228  S    
C288  H319  S    
C414  H613  S    
C425  C431  A    
O157  Zn29  S    
C331  O83   S    
C176  C177  S    
O140  Zn4   S    
O136  Zn5   S    
C177  H62   S    
C359  H484  S    
C396  H571  S    
C365  H498  S    
O170  Zn29  S    
C27   C52   A    
C163  H28   S    
O122  Zn18  S    
C173  H51   S    
C264  H262  S    
C398  O105  S    
C204  H122  S    
C247  C248  S    
C356  H478  S    
C302  H351  S    
C288  C289  S    
C200  H117  S    
C122  C123  S    
O139  Zn3   S    
C373  C374  S    
C90   O7    A    
C218  C219  S    
O135  Zn13  S    
C311  H375  S    
C266  C267  S    
C138  H638  S    
C324  H403  S    
O168  Zn30  S    
C134  H579  S    
C398  C399  S    
C458  O41   S    
C94   C301  S    
C479  O62   S    
C153  C154  S    
C237  C238  S    
C117  H168  S    
C8    C102  A    
C303  H353  S    
C180  H66   S    
C38   O99   S    
C372  O96   S    
C211  H141  S    
C28   O89   S    
C141  H647  S    
C18   C21   A    
O68   Zn21  S    
O2    Zn24  S    
C179  O129  A    
C167  H39   S    
C126  C127  S    
C382  H537  S    
C118  H179  S    
C261  H255  S    
C404  H591  S    
C408  H600  S    
C411  H608  S    
O179  Zn31  S    
C377  H526  S    
O154  Zn1   S    
O130  Zn7   S    
C392  H561  S    
C214  H147  S    
C384  H542  S    
C44   C70   A    
C322  H399  S    
C380  H532  S    
C350  H463  S    
C387  H550  S    
C287  H316  S    
C199  C200  S    
C106  H223  S    
C311  O76   S    
C6    O67   S    
C148  H663  S    
C416  H618  S    
C456  O39   S    
C55   C432  A    
C190  O151  A    
C372  H515  S    
O146  Zn18  S    
C445  O28   S    
C307  H364  S    
C71   C447  A    
C329  H415  S    
C78   C467  A    
C453  C456  A    
C183  C184  S    
C201  O131  A    
C414  H611  S    
C403  H586  S    
C241  H207  S    
C352  C353  S    
C125  H357  S    
C18   C104  A    
C332  C333  S    
C130  H468  S    
C33   O95   S    
C129  H457  S    
C419  H626  S    
C407  H597  S    
C210  H138  S    
C203  H121  S    
C192  H95   S    
C426  O194  A    
C83   C390  S    
C328  O82   S    
C45   O107  S    
C226  H172  S    
C49   O110  S    
C10   O72   S    
C131  H512  S    
C393  C394  S    
C463  O45   S    
C231  H186  S    
O90   Zn20  S    
C328  H413  S    
O176  Zn8   S    
C374  H518  S    
C464  C467  A    
C226  H173  S    
C185  H78   S    
C60   C428  A    
C175  H56   S    
C379  O153  A    
C110  H46   S    
C65   C435  A    
C111  O10   S    
C206  H128  S    
C295  H336  S    
C66   C470  S    
C448  O57   A    
C364  H496  S    
C199  H114  S    
C1    C62   S    
C370  C371  S    
C185  C186  S    
C171  H44   S    
O125  Zn22  S    
C221  C222  S    
C424  H635  S    
C325  O81   S    
C362  C363  S    
C399  C400  S    
C375  O97   S    
C11   O73   S    
O183  Zn16  S    
C232  C233  S    
C409  H603  S    
C154  H8    S    
C265  H266  S    
O182  Zn2   S    
C410  H604  S    
C361  H488  S    
C182  H72   S    
C59   C429  A    
C168  O175  A    
C271  H280  S    
C284  H310  S    
O57   Zn20  S    
C109  H13   S    
C274  H287  S    
C217  H155  S    
C297  H340  S    
C82   C346  S    
C376  H525  S    
C394  H566  S    
C218  O45   S    
C151  H670  S    
C262  H258  S    
C410  H605  S    
O126  Zn20  S    
O186  Zn3   S    
C172  H49   S    
C132  H523  S    
C255  O58   S    
C333  H426  S    
C316  H385  S    
C222  C225  S    
C126  H368  S    
C340  H439  S    
O101  Zn19  S    
C399  H578  S    
C3    C93   A    
C423  O162  A    
C66   C434  A    
C166  H34   S    
C225  H169  S    
C337  H430  S    
C122  O14   S    
C156  H11   S    
C267  H271  S    
O113  Zn18  S    
C220  H163  S    
C389  C391  S    
C245  H219  S    
C25   C97   A    
C86   C412  S    
C425  O8    S    
C174  H52   S    
C252  H234  S    
C258  H249  S    
C224  O133  A    
C313  H376  S    
C341  H440  S    
O189  Zn5   S    
C285  O67   S    
C462  C465  A    
C349  H461  S    
O153  Zn14  S    
C96   C235  S    
C339  H436  S    
C126  H379  S    
C2    O182  A    
C155  H9    S    
C365  H499  S    
C169  H40   S    
C349  H460  S    
C338  H435  S    
C256  H244  S    
C112  O191  A    
C158  H14   S    
C148  H661  S    
C291  H325  S    
C157  O127  A    
C280  H299  S    
C164  H31   S    
C348  H459  S    
C243  C244  S    
C293  H330  S    
C53   C113  S    
C122  H301  S    
C196  H105  S    
C31   O93   S    
C208  H134  S    
C208  C209  S    
C157  O199  A    
C470  O181  A    
C363  C364  S    
C303  H354  S    
C24   O188  A    
C180  H65   S    
C165  H32   S    
C188  H87   S    
C187  H83   S    
C211  H142  S    
C269  C270  S    
C141  H648  S    
O121  Zn19  S    
C251  H231  S    
C145  C147  S    
C165  H33   S    
O79   Zn21  S    
C392  H562  S    
C261  H256  S    
C119  H224  S    
C266  H269  S    
C347  C348  S    
C467  O50   S    
C300  H350  S    
O179  Zn32  S    
C377  H527  S    
C26   O87   S    
O166  Zn31  S    
C92   C179  S    
C201  O150  A    
C194  H100  S    
C339  C340  S    
C148  H664  S    
C242  C243  S    
C444  O27   S    
C140  C141  S    
C380  H531  S    
C39   O100  S    
C262  C263  S    
C350  H462  S    
C176  H59   S    
C27   O88   S    
C34   C40   A    
C140  H644  S    
C251  H233  S    
C36   C61   A    
C477  O60   S    
C203  H120  S    
C30   O92   S    
C347  H455  S    
C416  H617  S    
O155  Zn12  S    
C22   C99   A    
C62   C439  A    
C419  C420  S    
C119  C120  S    
C320  H394  S    
C329  H416  S    
C281  H302  S    
C321  C322  S    
C336  O84   S    
C56   C427  A    
C108  O9    S    
C375  H521  S    
C219  H159  S    
C241  H208  S    
C296  H338  S    
C207  H131  S    
C215  H149  S    
C212  O166  A    
C362  H492  S    
C433  O16   S    
O157  Zn10  S    
C58   C425  A    
C407  H598  S    
C270  C271  S    
C367  H505  S    
C117  H157  S    
C136  O18   S    
C413  H610  S    
O191  Zn6   S    
C329  C330  S    
C403  C404  S    
O124  Zn23  S    
C352  H469  S    
C63   C442  A    
O1    Zn1   S    
C364  H497  S    
O193  Zn14  S    
C186  H82   S    
C129  O16   S    
C205  C206  S    
C116  C117  S    
C420  H628  S    
C277  H293  S    
C443  O26   S    
C234  H194  S    
C45   C51   A    
O181  Zn32  S    
C240  C241  S    
C268  O170  A    
C303  C304  S    
C455  C458  A    
C240  H206  S    
C12   O74   S    
C451  O33   S    
C345  H452  S    
C147  H659  S    
C424  H637  S    
C312  O178  A    
C422  C424  S    
C364  H495  S    
C308  H366  S    
C440  O22   S    
C216  C217  S    
C247  H220  S    
C428  O10   S    
C304  H356  S    
C6    C87   A    
O177  Zn7   S    
C228  H178  S    
O1    Zn22  S    
C213  H143  S    
C298  H343  S    
C361  H489  S    
C415  C416  S    
C182  H71   S    
C189  H89   S    
C266  H267  S    
C284  H309  S    
C274  H286  S    
C297  H341  S    
C405  O107  S    
O179  Zn21  S    
C292  O70   S    
C394  H565  S    
C381  H535  S    
C362  O93   S    
C260  H253  S    
C26   C53   A    
C125  H346  S    
C246  O136  A    
C376  C377  S    
C418  C419  S    
C412  O177  A    
C79   O6    A    
C296  C297  S    
C189  H88   S    
C8    C14   A    
C327  H409  S    
C333  H427  S    
C422  H632  S    
C423  O176  A    
C137  C138  S    
O5    Zn28  S    
C5    C478  A    
C232  H188  S    
C111  H57   S    
C461  C466  A    
C139  H642  S    
C30   C58   A    
C289  C291  S    
C354  H472  S    
C93   C469  A    
C225  H170  S    
C337  H431  S    
C155  H10   S    
C267  H272  S    
C111  H68   S    
C42   O104  S    
C322  C324  S    
C161  H21   S    
C323  O160  A    
O135  Zn26  S    
C133  H557  S    
C356  H477  S    
C46   O116  A    
C114  C115  S    
O178  Zn12  S    
C413  C414  S    
C313  H377  S    
C104  C323  S    
C84   C452  A    
O13   Zn25  S    
C202  H119  S    
C209  H137  S    
C229  O49   S    
C106  C107  S    
C143  C144  S    
C372  C373  S    
C283  H307  S    
C182  C183  S    
C294  H333  S    
C11   C15   A    
C122  H290  S    
C432  O15   S    
C272  C273  S    
C388  O102  S    
C320  H396  S    
C169  H41   S    
C163  H27   S    
C264  H264  S    
O7    Zn27  S    
O24   Zn26  S    
C448  O192  A    
C48   O109  S    
C89   C212  S    
C435  C439  A    
C292  H328  S    
C291  H326  S    
O171  Zn28  S    
C43   O105  S    
C342  C343  S    
C181  H67   S    
C421  O114  S    
C212  O132  A    
C233  H189  S    
C254  H240  S    
C229  C230  S    
C208  H133  S    
C375  C376  S    
C121  H268  S    
C86   C462  A    
C415  H615  S    
C306  C307  S    
O145  Zn27  S    
C12   C97   A    
C88   C257  S    
C187  H84   S    
C404  H588  S    
C86   C454  A    
C28   C33   A    
C298  C299  S    
C50   C77   A    
C251  H232  S    
C41   C69   A    
C4    C89   A    
C167  H37   S    
C19   O81   S    
C279  O147  A    
C196  C197  S    
C300  H349  S    
C377  H528  S    
C156  C158  S    
C145  H657  S    
C149  O22   S    
C214  H145  S    
C344  H450  S    
C238  H202  S    
C450  O32   S    
C222  H167  S    
O124  Zn3   S    
C68   O184  A    
C400  H583  S    
C91   C224  S    
C365  C366  S    
C472  C477  A    
C349  C350  S    
C3    C6    A    
C401  O158  A    
C407  H596  S    
C281  H303  S    
O185  Zn4   S    
C253  H237  S    
C367  H503  S    
C437  O46   A    
C371  H513  S    
C413  H609  S    
C237  H198  S    
C207  H132  S    
O146  Zn9   S    
C215  H150  S    
C18   O80   S    
C57   C73   S    
C362  H491  S    
C257  O171  A    
C388  C389  S    
C155  O25   S    
C138  H641  S    
C223  O13   A    
C383  H539  S    
C172  H48   S    
C298  O72   S    
C162  O27   S    
C358  H482  S    
C397  H573  S    
C360  C361  S    
C34   O96   S    
C436  O19   S    
C221  H165  S    
O150  Zn28  S    
C420  H627  S    
C277  H294  S    
C280  C281  S    
C105  H112  S    
O180  Zn1   S    
C234  H193  S    
C107  H556  S    
C159  H17   S    
C113  O122  A    
C21   O83   S    
C131  H501  S    
C185  H80   S    
C153  H4    S    
C171  H47   S    
C230  H183  S    
C14   O75   S    
C72   C451  A    
C240  H205  S    
C84   C401  S    
C135  O125  A    
C301  O141  A    
C345  H453  S    
C147  H660  S    
C316  H384  S    
C193  C194  S    
C311  C313  S    
C137  H623  S    
C42   C67   A    
C369  H506  S    
C318  H391  S    
C429  C432  A    
C269  H273  S    
C271  H277  S    
C328  C329  S    
C99   C190  S    
C87   C475  A    
C198  H110  S    
O128  Zn13  S    
C213  H144  S    
O4    Zn29  S    
C199  H111  S    
C144  H654  S    
C117  C118  S    
C154  H6    S    
C206  H129  S    
C462  O44   S    
C103  C335  S    
O112  Zn16  S    
C274  H285  S    
C145  O21   S    
C297  H342  S    
C446  C450  A    
C44   C48   A    
C92   C480  A    
C276  C277  S    
C226  C227  S    
C283  C284  S    
C381  H536  S    
C61   C112  S    
C390  O156  A    
C255  C256  S    
C398  H576  S    
C368  O152  A    
C67   C438  A    
C347  H454  S    
C239  C240  S    
C469  C475  A    
C172  C173  S    
C421  C422  S    
C56   C124  S    
C371  H511  S    
C29   C32   A    
C306  H362  S    
C232  H187  S    
O134  Zn6   S    
C120  H246  S    
C282  O66   S    
O35   Zn18  S    
C126  O15   S    
C34   C62   A    
O119  Zn25  S    
O6    Zn23  S    
C14   C96   A    
C147  C148  S    
C225  H171  S    
C285  H311  S    
C388  H552  S    
C136  H612  S    
C161  H22   S    
C162  H26   S    
C113  O5    A    
C146  O126  A    
C115  H101  S    
C422  H633  S    
C252  H236  S    
C70   C449  A    
C385  O100  S    
C114  H79   S    
C475  O58   S    
C277  H295  S    
C193  H97   S    
C76   C446  A    
C396  C397  S    
C438  O20   S    
C385  H546  S    
C295  C296  S    
C418  H624  S    
C211  O43   S    
C470  O79   A    
C471  O53   S    
C258  H248  S    
C334  O197  A    
C375  H522  S    
C159  C160  S    
C256  H245  S    
C85   C461  A    
C341  H441  S    
C165  O28   S    
C181  H69   S    
O184  Zn17  S    
C76   C334  S    
C245  C247  S    
C264  H263  S    
C51   O114  S    
C204  H123  S    
C219  C220  S    
C338  H433  S    
C162  C163  S    
C245  O54   S    
C221  O47   S    
C292  H327  S    
C370  H508  S    
C209  H136  S    
C178  C180  S    
C395  C396  S    
O135  Zn4   S    
O194  Zn8   S    
C158  H15   S    
C254  H239  S    
C68   O118  A    
C311  H374  S    
C386  C387  S    
C250  C251  S    
C160  C161  S    
C313  C314  S    
C415  H616  S    
C255  H243  S    
C343  H447  S    
C111  C114  S    
C370  H509  S    
C392  O103  S    
C47   C72   A    
O133  Zn15  S    
C408  C409  S    
C305  C306  S    
C219  H160  S    
O117  Zn24  S    
C191  H93   S    
C269  O62   S    
C167  H38   S    
C369  O95   S    
C35   O115  A    
C36   O97   S    
C169  C170  S    
C190  O130  A    
C389  H554  S    
C173  C174  S    
C132  O17   S    
C244  H216  S    
C50   O111  S    
C145  H658  S    
C182  O33   S    
C46   O186  A    
C344  H449  S    
C384  H543  S    
C23   C96   A    
C45   C73   A    
C263  H261  S    
C335  O144  A    
C352  O89   S    
C102  C290  S    
C398  H577  S    
C170  H43   S    
C27   C30   A    
C293  H329  S    
C188  O36   S    
C48   C75   A    
C227  H175  S    
C28   C55   A    
C384  H541  S    
C253  H238  S    
C367  H504  S    
C259  H251  S    
C351  H464  S    
C150  H668  S    
C318  C319  S    
O164  Zn3   S    
C382  O99   S    
C78   C457  A    
C319  H392  S    
C405  H592  S    
C391  H559  S    
C217  H153  S    
C298  H344  S    
C469  O52   S    
C441  O23   S    
C295  H337  S    
C195  H103  S    
C89   C477  A    
C378  O98   S    
C358  H481  S    
C397  H574  S    
C286  H314  S    
O147  Zn23  S    
C308  C309  S    
C369  C370  S    
C302  C303  S    
C121  H279  S    
C310  H373  S    
C11   C103  A    
C331  H421  S    
C143  H653  S    
C159  H18   S    
C315  O77   S    
C10   C104  A    
C3    O64   S    
C153  H5    S    
C133  C134  S    
C231  H184  S    
C230  H182  S    
O148  Zn16  S    
C81   C460  A    
C290  O145  A    
C9    O71   S    
O143  Zn2   S    
C32   C60   A    
C224  O165  A    
C63   C426  S    
O1    Zn17  S    
C178  H64   S    
C369  H507  S    
C127  C128  S    
C340  H438  S    
