data_mof_unit_54014.cif
_audit_creation_date              2012-12-10T18:58:10-0500
_audit_creation_method            fapswitch 2.2
_symmetry_space_group_name_H-M    P1
_symmetry_Int_Tables_number       1
_space_group_crystal_system       triclinic
_cell_length_a                    11.034704
_cell_length_b                    10.793245
_cell_length_c                    9.569706
_cell_angle_alpha                 90.335896
_cell_angle_beta                  102.336289
_cell_angle_gamma                 90.763626
_cell_volume                      1113.29494677

loop_
_atom_site_label
_atom_site_type_symbol
_atom_type_description
_atom_site_fract_x
_atom_site_fract_y
_atom_site_fract_z
_atom_type_partial_charge
C1    C     C_R   0.494923 0.262836 0.498467 0.807663
C2    C     C_R   0.484050 0.129737 0.497302 -0.266707
C3    C     C_R   0.397986 0.062195 0.391550 0.350384
C4    C     C_R   0.401745 0.931521 0.391961 0.114102
C5    C     C_R   0.487963 0.870428 0.498782 -0.150795
C6    C     C_R   0.558791 0.939053 0.611127 -0.067710
C7    C     C_3   0.694757 0.935779 0.678311 -0.079188
C8    C     C_3   0.693431 0.077937 0.675526 0.468303
C9    C     C_R   0.593480 0.557421 0.096810 0.224642
C10   C     C_R   0.415829 0.431482 0.053807 -0.096077
C11   C     C_R   0.415574 0.430877 0.904632 0.239411
C12   C     C_R   0.262772 0.502031 0.442397 0.715994
C13   C     C_R   0.595326 0.554552 0.950327 0.197345
C14   C     C_3   0.642655 0.684431 0.951593 0.094636
C15   C     C_3   0.631843 0.691485 0.108377 0.365220
C16   C     C_R   0.497929 0.737370 0.499739 0.887027
C17   C     C_R   0.737376 0.503274 0.557787 0.784847
C18   C     C_2   0.126537 0.499532 0.411371 0.195197
C19   C     C_2   0.064472 0.554390 0.502163 0.167889
C20   C     C_2   0.872933 0.516290 0.589129 -0.033029
C21   C     C_2   0.930422 0.534579 0.480318 -0.051074
C22   C     C_R   0.557453 0.066320 0.609544 0.066115
Cu1   Cu    Cu3+1 0.499990 0.499980 0.640670 1.003196
Cu2   Cu    Cu3+1 0.500010 0.500020 0.359330 0.992699
H1    H     H_    0.878224 0.531116 0.370440 0.190391
H2    H     H_    0.346739 0.377705 0.092943 0.151086
H3    H     H_    0.580612 0.747250 0.878170 0.134636
H4    H     H_    0.712466 0.897643 0.787495 0.165239
N1    N     N_R   0.500780 0.500930 0.148120 -0.191012
N2    N     N_R   0.500790 0.500890 0.852210 -0.207493
O1    O     O_R   0.500000 0.319640 0.618810 -0.524165
O2    O     O_R   0.500010 0.319680 0.381230 -0.582586
O3    O     O_R   0.320680 0.500000 0.575130 -0.577061
O4    O     O_R   0.320690 0.500040 0.337550 -0.579374
O5    O     O_R   0.499990 0.680320 0.618770 -0.599638
O6    O     O_R   0.500000 0.680360 0.381190 -0.510957
O7    O     O_R   0.679310 0.499960 0.662450 -0.534396
O8    O     O_R   0.679320 0.500000 0.424870 -0.605054
N3    N     N_3   0.768695 0.136847 0.584023 -0.597537
H5    H     H_    0.731596 0.116592 0.476239 0.199162
H6    H     H_    0.763375 0.232862 0.595430 0.226730
N4    N     N_3   0.326032 0.356353 0.809269 -0.515910
H7    H     H_    0.237732 0.382718 0.820401 0.201115
H8    H     H_    0.338169 0.264205 0.841730 0.214635
O9    O     O_3   0.765460 0.684844 0.933588 -0.712901
H9    H     H_    0.799545 0.769218 0.959650 0.322073
N5    N     N_3   0.748817 0.713970 0.211455 -0.567617
H10   H     H_    0.730507 0.710065 0.314023 0.243291
H11   H     H_    0.778071 0.805026 0.199136 0.199310
O10   O     O_3   0.536361 0.769401 0.129576 -0.725029
H12   H     H_    0.563140 0.855244 0.113136 0.312102
N6    N     N_3   0.123365 0.637379 0.615780 -0.566392
H13   H     H_    0.176759 0.587145 0.699098 0.260201
H14   H     H_    0.179371 0.701568 0.576496 0.205470
N7    N     N_3   0.942333 0.509753 0.733934 -0.554743
H15   H     H_    0.913291 0.581321 0.792321 0.293645
H16   H     H_    0.920197 0.425588 0.776643 0.235543
O11   O     O_3   0.060531 0.434321 0.293707 -0.731913
H17   H     H_    0.119870 0.393896 0.244102 0.333498
O12   O     O_3   0.311054 0.118671 0.286625 -0.738212
H18   H     H_    0.299939 0.205198 0.315537 0.322694
N8    N     N_3   0.317273 0.860804 0.285416 -0.531493
H19   H     H_    0.329114 0.888598 0.184666 0.279145
H20   H     H_    0.226859 0.882175 0.293427 0.232811
N9    N     N_3   0.768764 0.876209 0.587131 -0.589456
H21   H     H_    0.741978 0.905747 0.481285 0.223613
H22   H     H_    0.861685 0.902059 0.624896 0.253462
O13   O     O_3   0.714170 0.131744 0.812571 -0.716739
H23   H     H_    0.803065 0.118875 0.856145 0.329735

loop_
_geom_bond_atom_site_label_1
_geom_bond_atom_site_label_2
_ccdc_geom_bond_type
C2    C22   A    
C8    C22   S    
Cu1   Cu2   S    
Cu2   O2    S    
N8    H19   S    
C8    N3    S    
C9    N1    A    
C14   H3    S    
C7    N9    S    
Cu2   O8    S    
N5    H10   S    
C15   N5    S    
N7    H15   S    
C4    N8    S    
C3    O12   S    
C10   H2    S    
C2    C3    A    
C9    C15   S    
C7    C8    S    
N5    H11   S    
Cu2   O6    S    
C13   C14   S    
C16   O6    A    
Cu2   N1    S    
C12   O3    A    
C10   N1    A    
C6    C7    S    
N4    H8    S    
O12   H18   S    
C20   N7    S    
C1    C2    S    
C19   C21   S    
N6    H14   S    
C8    O13   S    
C14   O9    S    
Cu1   O5    S    
C17   O8    A    
N7    H16   S    
C16   O5    A    
C5    C6    A    
O13   H23   S    
N9    H22   S    
C10   C11   A    
C17   O7    A    
C12   O4    A    
C3    C4    A    
C6    C22   A    
Cu1   N2    S    
O9    H9    S    
C13   N2    A    
C1    O1    A    
C17   C20   S    
C9    C13   A    
C20   C21   D    
C11   N4    S    
N3    H6    S    
N9    H21   S    
N4    H7    S    
C15   O10   S    
C12   C18   S    
N3    H5    S    
C21   H1    S    
C14   C15   S    
C18   C19   D    
C5    C16   S    
N8    H20   S    
O10   H12   S    
O11   H17   S    
Cu1   O7    S    
C19   N6    S    
C18   O11   S    
C1    O2    A    
Cu2   O4    S    
C7    H4    S    
C11   N2    A    
N6    H13   S    
C4    C5    A    
Cu1   O3    S    
Cu1   O1    S    
