data_mof_unit_50464.cif
_audit_creation_date              2012-12-10T18:50:00-0500
_audit_creation_method            fapswitch 2.2
_symmetry_space_group_name_H-M    P1
_symmetry_Int_Tables_number       1
_space_group_crystal_system       triclinic
_cell_length_a                    10.610604
_cell_length_b                    10.026616
_cell_length_c                    10.612506
_cell_angle_alpha                 90.319934
_cell_angle_beta                  92.486095
_cell_angle_gamma                 88.131233
_cell_volume                      1127.37564154

loop_
_atom_site_label
_atom_site_type_symbol
_atom_type_description
_atom_site_fract_x
_atom_site_fract_y
_atom_site_fract_z
_atom_type_partial_charge
C1    C     C_R   0.260628 0.501808 0.502827 0.849502
C2    C     C_R   0.595714 0.925830 0.558353 -0.139780
C3    C     C_R   0.400104 0.932854 0.445121 0.191292
C4    C     C_R   0.405424 0.075384 0.435366 0.186291
C5    C     C_R   0.503910 0.499733 0.258343 0.809352
C6    C     C_R   0.739245 0.498255 0.500511 0.842495
C7    C     C_R   0.504443 0.500162 0.741845 0.814410
C8    C     C_3   0.547129 0.637915 0.074045 -0.390790
C9    C     C_3   0.373686 0.469456 0.066070 -0.418313
C10   C     C_3   0.545053 0.639076 0.930696 -0.400097
C11   C     C_3   0.374104 0.468625 0.921671 -0.395584
C12   C     C_3   0.604704 0.393720 0.931523 -0.407694
C13   C     C_3   0.603403 0.392235 0.076175 -0.394685
C14   C     C_3   0.507045 0.499782 0.121629 0.192357
C15   C     C_3   0.507257 0.500439 0.878571 0.194274
C16   C     C_3   0.276839 0.870627 0.403026 -0.316354
C17   C     C_3   0.277506 0.808712 0.270985 -0.857450
C18   C     C_3   0.317126 0.146492 0.336571 -0.376976
C19   C     C_3   0.183082 0.184692 0.376801 -0.838542
C20   C     C_R   0.070870 0.414807 0.585140 -0.200967
C21   C     C_R   0.057409 0.590814 0.426989 -0.237887
C22   C     C_R   0.941424 0.409245 0.580641 -0.201351
C23   C     C_R   0.928582 0.586907 0.423844 -0.190509
C24   C     C_R   0.871741 0.495946 0.500256 0.006201
C25   C     C_R   0.127805 0.504932 0.507267 -0.007786
C26   C     C_R   0.593771 0.068227 0.561561 -0.142456
H1    H     H_    0.643528 0.660156 0.112553 0.164480
H2    H     H_    0.577774 0.291270 0.107613 0.180606
H3    H     H_    0.700959 0.416084 0.901415 0.151781
H4    H     H_    0.581870 0.292698 0.894887 0.182435
H5    H     H_    0.126549 0.348642 0.647689 0.136767
H6    H     H_    0.101147 0.657459 0.364314 0.153197
H7    H     H_    0.895801 0.340281 0.640902 0.131535
H8    H     H_    0.873308 0.653297 0.361089 0.140607
H9    H     H_    0.669699 0.118559 0.611435 0.140442
H10   H     H_    0.673309 0.870858 0.605522 0.147819
H11   H     H_    0.350843 0.852786 0.214367 0.238119
H12   H     H_    0.343708 0.370819 0.099463 0.162494
H13   H     H_    0.291712 0.699530 0.275556 0.272970
H14   H     H_    0.184845 0.828325 0.220523 0.214606
H15   H     H_    0.238157 0.812817 0.478109 0.209270
H16   H     H_    0.198507 0.943462 0.400991 0.180867
H17   H     H_    0.174714 0.173688 0.480100 0.263905
H18   H     H_    0.157515 0.288511 0.347885 0.257733
H19   H     H_    0.111578 0.123467 0.326155 0.225148
H20   H     H_    0.357810 0.235321 0.301571 0.248749
H21   H     H_    0.309941 0.084262 0.249936 0.174163
H22   H     H_    0.481880 0.718718 0.105562 0.182504
H23   H     H_    0.303575 0.546074 0.097672 0.155563
H24   H     H_    0.476330 0.718292 0.895814 0.184375
H25   H     H_    0.303225 0.543843 0.883258 0.156791
H26   H     H_    0.639882 0.664441 0.898591 0.164127
H27   H     H_    0.345877 0.369017 0.885447 0.169946
H28   H     H_    0.699485 0.411821 0.117026 0.156173
N1    N     N_R   0.499970 0.857200 0.499970 -0.096359
N2    N     N_R   0.499970 0.142800 0.499970 -0.105433
O1    O     O_R   0.316750 0.614620 0.499990 -0.624803
O2    O     O_R   0.316750 0.385380 0.499990 -0.600998
O3    O     O_R   0.499970 0.614670 0.314790 -0.613343
O4    O     O_R   0.499970 0.385330 0.314790 -0.647037
O5    O     O_R   0.683220 0.614710 0.500010 -0.620682
O6    O     O_R   0.683220 0.385290 0.500010 -0.618541
O7    O     O_R   0.500010 0.614660 0.685200 -0.623819
O8    O     O_R   0.500010 0.385340 0.685200 -0.624224
Zn1   Zn    Zn3+2 0.499980 0.653120 0.500000 0.932399
Zn2   Zn    Zn3+2 0.499980 0.346880 0.500000 0.926717

loop_
_geom_bond_atom_site_label_1
_geom_bond_atom_site_label_2
_ccdc_geom_bond_type
C8    C14   S    
C23   C24   A    
C8    H22   S    
C13   H2    S    
C6    C24   S    
C1    O1    A    
C12   H3    S    
C17   H14   S    
C11   H27   S    
C12   C15   S    
C19   H18   S    
C10   C15   S    
C23   H8    S    
C10   H26   S    
C18   H21   S    
C6    O6    A    
C19   H19   S    
C9    C14   S    
O4    Zn2   S    
C2    C26   A    
O8    Zn2   S    
C17   H11   S    
C13   C14   S    
O3    Zn1   S    
C1    C25   S    
C9    C11   S    
C7    O7    A    
C5    C14   S    
C11   C15   S    
N2    Zn2   S    
O1    Zn1   S    
C18   H20   S    
C6    O5    A    
C7    C15   S    
C9    H12   S    
N1    Zn1   S    
C19   H17   S    
C18   C19   S    
C2    N1    A    
C21   C23   A    
O5    Zn1   S    
O7    Zn1   S    
C21   H6    S    
C22   C24   A    
C7    O8    A    
C11   H25   S    
C20   C25   A    
C5    O3    A    
C3    C4    A    
C10   H24   S    
C16   H16   S    
C26   H9    S    
C9    H23   S    
C12   C13   S    
C8    C10   S    
C13   H28   S    
C17   H13   S    
C2    H10   S    
C8    H1    S    
C22   H7    S    
O6    Zn2   S    
C21   C25   A    
C5    O4    A    
C12   H4    S    
C1    O2    A    
C3    N1    A    
C4    C18   S    
O2    Zn2   S    
C4    N2    A    
C3    C16   S    
C20   C22   A    
C16   C17   S    
C16   H15   S    
C20   H5    S    
C26   N2    A    
