data_mof_unit_42492.cif
_audit_creation_date              2012-10-26T20:06:10-0400
_audit_creation_method            fapswitch 2.2
_symmetry_space_group_name_H-M    P1
_symmetry_Int_Tables_number       1
_space_group_crystal_system       triclinic
_cell_length_a                    9.510403
_cell_length_b                    10.804286
_cell_length_c                    13.433435
_cell_angle_alpha                 90.430331
_cell_angle_beta                  72.437928
_cell_angle_gamma                 90.297911
_cell_volume                      1315.94773044

loop_
_atom_site_label
_atom_site_type_symbol
_atom_type_description
_atom_site_fract_x
_atom_site_fract_y
_atom_site_fract_z
_atom_type_partial_charge
C1    C     C_R   0.501357 0.737907 0.497980 0.575986
C2    C     C_R   0.373190 0.497322 0.815379 -0.042624
C3    C     C_R   0.635190 0.937132 0.449636 0.247948
C4    C     C_R   0.421121 0.495655 0.700335 0.535467
C5    C     C_R   0.631575 0.066080 0.449543 -0.123427
C6    C     C_R   0.500234 0.128659 0.497864 -0.021807
C7    C     C_R   0.369724 0.063429 0.543310 -0.162016
C8    C     C_R   0.371183 0.935419 0.542446 -0.193921
C9    C     C_R   0.503159 0.871939 0.496206 0.028792
C10   C     C_R   0.896455 0.571444 0.569520 -0.001459
C11   C     C_R   0.045378 0.571569 0.569393 -0.000574
C12   C     C_R   0.434997 0.492700 0.979181 -0.018504
C13   C     C_R   0.103313 0.427821 0.430981 0.002748
C14   C     C_R   0.954407 0.427857 0.430998 0.000630
C15   C     C_R   0.499859 0.262224 0.499471 0.547503
C16   C     C_R   0.578772 0.497692 0.300011 0.549554
C17   C     C_R   0.779411 0.382176 0.030965 -0.128435
C18   C     C_R   0.623104 0.479782 0.187073 -0.012030
C19   C     C_R   0.236469 0.551107 0.867546 -0.140896
C20   C     C_R   0.195699 0.575175 0.975778 0.259358
C21   C     C_R   0.295610 0.546030 0.029546 -0.092946
C22   C     C_3   0.978552 0.680310 0.975851 0.002315
C23   C     C_R   0.468109 0.458824 0.872636 0.007803
C24   C     C_3   0.850448 0.752399 0.049251 -0.243871
C25   C     C_3   0.744533 0.798756 0.992234 -0.483145
C26   C     C_3   0.876588 0.890220 0.435218 0.020729
C27   C     C_3   0.024860 0.876953 0.350127 -0.256384
C28   C     C_3   0.043648 0.749468 0.298005 -0.361723
C29   C     C_R   0.541881 0.470227 0.031730 0.026822
C30   C     C_R   0.673483 0.405390 0.979892 0.042181
C31   C     C_R   0.696222 0.361445 0.878694 -0.149266
C32   C     C_R   0.594115 0.385786 0.826467 -0.116420
C33   C     C_R   0.522400 0.510548 0.134396 -0.142002
C34   C     C_R   0.753832 0.418426 0.134546 -0.117119
Cu1   Cu    Cu3+1 0.359340 0.499980 0.500000 0.921878
Cu2   Cu    Cu3+1 0.640660 0.500020 0.500000 0.935947
H1    H     H_    0.269431 0.885958 0.578934 0.120705
H2    H     H_    0.730492 0.117269 0.409300 0.119786
H3    H     H_    0.267320 0.111389 0.580462 0.133128
H4    H     H_    0.817107 0.628925 0.625055 0.106207
H5    H     H_    0.921373 0.370252 0.375675 0.103509
H6    H     H_    0.164424 0.576077 0.822268 0.101023
H7    H     H_    0.933040 0.606565 0.936011 0.144561
H8    H     H_    0.046971 0.746624 0.917799 0.121536
H9    H     H_    0.788991 0.692236 0.114655 0.191799
H10   H     H_    0.894482 0.832671 0.082874 0.169832
H11   H     H_    0.803055 0.861158 0.927473 0.138660
H12   H     H_    0.078338 0.629113 0.624788 0.097332
H13   H     H_    0.653277 0.850863 0.047621 0.154635
H14   H     H_    0.696643 0.719541 0.960154 0.158567
H15   H     H_    0.867143 0.818333 0.495580 0.144592
H16   H     H_    0.877229 0.982206 0.473224 0.085756
H17   H     H_    0.033954 0.949093 0.289917 0.159138
H18   H     H_    0.115444 0.892129 0.385359 0.116425
H19   H     H_    0.040011 0.676682 0.356378 0.157760
H20   H     H_    0.152208 0.744940 0.236773 0.128776
H21   H     H_    0.955719 0.731650 0.260880 0.214317
H22   H     H_    0.182558 0.369992 0.375704 0.114906
H23   H     H_    0.793199 0.307384 0.839738 0.103766
H24   H     H_    0.880115 0.332966 0.991638 0.111087
H25   H     H_    0.428499 0.564904 0.176593 0.113208
H26   H     H_    0.258249 0.564264 0.112253 0.117771
H27   H     H_    0.614039 0.343535 0.750360 0.148405
H28   H     H_    0.833026 0.394262 0.174584 0.131686
N1    N     N_R   0.147940 0.499970 0.499970 -0.223922
N2    N     N_R   0.852060 0.500060 0.499990 -0.225050
O1    O     O_R   0.381250 0.680340 0.500010 -0.515491
O2    O     O_3   0.760265 0.875336 0.390572 -0.553630
O3    O     O_R   0.618820 0.680370 0.500010 -0.468266
O4    O     O_R   0.323240 0.499950 0.650980 -0.506191
O5    O     O_R   0.560810 0.499980 0.650980 -0.510090
O6    O     O_R   0.381180 0.319630 0.499990 -0.500337
O7    O     O_R   0.618750 0.319660 0.499990 -0.514586
O8    O     O_R   0.439190 0.500020 0.349020 -0.506443
O9    O     O_R   0.676760 0.500050 0.349020 -0.497834
O10   O     O_3   0.061611 0.626236 0.035214 -0.584122

loop_
_geom_bond_atom_site_label_1
_geom_bond_atom_site_label_2
_ccdc_geom_bond_type
Cu1   O8    S    
C12   C29   A    
C16   O9    A    
C19   C20   A    
C22   O10   S    
C4    O4    A    
C28   H20   S    
C27   H18   S    
C7    C8    A    
C13   N1    A    
C28   H21   S    
C15   O6    A    
C12   C23   A    
C26   C27   S    
C16   O8    A    
C24   H9    S    
C22   H7    S    
C5    C6    A    
Cu2   N2    S    
Cu1   N1    S    
C29   C33   A    
C20   O10   S    
C10   H4    S    
C31   H23   S    
C25   H14   S    
C6    C15   S    
C22   H8    S    
C3    O2    S    
Cu1   O4    S    
C8    C9    A    
C25   H11   S    
Cu2   O5    S    
C5    H2    S    
C17   C30   A    
C11   H12   S    
C28   H19   S    
C10   N2    A    
C1    C9    S    
C24   C25   S    
Cu2   O7    S    
C13   H22   S    
C12   C21   A    
C1    O3    A    
Cu1   Cu2   S    
C2    C4    S    
C29   C30   A    
C3    C9    A    
Cu2   O9    S    
C26   H16   S    
C31   C32   A    
Cu1   O1    S    
C34   H28   S    
C14   N2    A    
C18   C34   A    
C21   H26   S    
C14   H5    S    
C16   C18   S    
C15   O7    A    
Cu1   O6    S    
C22   C24   S    
C8    H1    S    
C27   C28   S    
Cu2   O3    S    
C2    C19   A    
C32   H27   S    
C3    C5    A    
C27   H17   S    
C6    C7    A    
C24   H10   S    
C23   C32   A    
C26   O2    S    
C26   H15   S    
C19   H6    S    
C30   C31   A    
C1    O1    A    
C18   C33   A    
C25   H13   S    
C10   C11   A    
C17   H24   S    
C20   C21   A    
C33   H25   S    
C17   C34   A    
C2    C23   A    
C7    H3    S    
C13   C14   A    
C4    O5    A    
C11   N1    A    
