data_mof_unit_65709.cif
_audit_creation_date              2012-12-10T18:36:51-0500
_audit_creation_method            fapswitch 2.2
_symmetry_space_group_name_H-M    P1
_symmetry_Int_Tables_number       1
_space_group_crystal_system       triclinic
_cell_length_a                    25.552614
_cell_length_b                    25.548401
_cell_length_c                    25.558411
_cell_angle_alpha                 120.001661
_cell_angle_beta                  90.018156
_cell_angle_gamma                 119.994776
_cell_volume                      11797.0235468

loop_
_atom_site_label
_atom_site_type_symbol
_atom_type_description
_atom_site_fract_x
_atom_site_fract_y
_atom_site_fract_z
_atom_type_partial_charge
C1    C     C_R   0.599630 0.699290 0.599680 0.824789
C2    C     C_1   0.827008 0.499473 0.826940 -0.064650
C3    C     C_3   0.301375 0.042886 0.319655 -0.389923
C4    C     C_R   0.400345 0.300670 0.400283 0.824593
C5    C     C_3   0.298543 0.042954 0.221334 -0.390665
C6    C     C_3   0.255615 0.957024 0.178339 -0.390218
C7    C     C_1   0.139486 0.778588 0.139093 -0.146417
C8    C     C_3   0.286585 0.072996 0.286362 0.352980
C9    C     C_3   0.258447 0.956957 0.276661 -0.391053
C10   C     C_3   0.213583 0.926865 0.213245 0.352958
C11   C     C_3   0.171798 0.956917 0.229918 -0.391242
C12   C     C_1   0.860429 0.499761 0.860396 -0.148721
C13   C     C_3   0.214726 0.042847 0.272912 -0.391871
C14   C     C_1   0.172845 0.845327 0.172456 -0.130652
C15   C     C_1   0.327321 0.154535 0.327161 -0.130840
C16   C     C_R   0.400307 0.499940 0.599613 0.825414
C17   C     C_1   0.360667 0.221275 0.360557 -0.146512
C18   C     C_3   0.781292 0.584299 0.324930 -0.036173
C19   C     C_3   0.682028 0.486341 0.224952 -0.397408
C20   C     C_3   0.724566 0.485264 0.181764 -0.394208
C21   C     C_1   0.860972 0.500964 0.139560 -0.152924
C22   C     C_3   0.715609 0.505968 0.288821 0.279391
C23   C     C_3   0.787879 0.548002 0.735330 -0.223885
C24   C     C_3   0.825440 0.582522 0.281682 -0.051647
C25   C     C_3   0.788630 0.504895 0.215390 0.292913
C26   C     C_3   0.771471 0.446419 0.228820 -0.444360
C27   C     C_3   0.729343 0.447664 0.272407 -0.436273
C28   C     C_R   0.599727 0.500060 0.400425 0.825349
C29   C     C_1   0.828220 0.502364 0.173459 -0.122271
C30   C     C_1   0.673464 0.502777 0.328258 -0.130284
C31   C     C_1   0.639520 0.501030 0.360954 -0.152190
C32   C     C_3   0.776344 0.956911 0.758799 -0.398017
C33   C     C_3   0.677573 0.956101 0.755993 -0.438679
C34   C     C_3   0.713572 0.499565 0.712457 0.132150
C35   C     C_3   0.720108 0.042523 0.798972 -0.031077
C36   C     C_1   0.860374 0.221256 0.860929 -0.143486
C37   C     C_3   0.712900 0.926780 0.713942 0.338056
C38   C     C_3   0.819968 0.042766 0.800706 -0.394647
C39   C     C_3   0.785837 0.073006 0.787374 0.341749
C40   C     C_R   0.400155 0.500052 0.400152 0.826605
C41   C     C_3   0.772045 0.043107 0.715513 -0.455695
C42   C     C_3   0.729343 0.957177 0.672408 -0.394983
C43   C     C_1   0.826892 0.154562 0.827784 -0.092344
C44   C     C_1   0.672466 0.845306 0.672937 -0.118793
C45   C     C_3   0.787872 0.566285 0.802724 0.088597
C46   C     C_1   0.639254 0.778610 0.639444 -0.149953
C47   C     C_3   0.243434 0.521405 0.320870 -0.390375
C48   C     C_3   0.242651 0.422144 0.222481 -0.390863
C49   C     C_3   0.199692 0.422096 0.179514 -0.390722
C50   C     C_1   0.139425 0.499838 0.139401 -0.146999
C51   C     C_3   0.286476 0.499984 0.286473 0.354152
C52   C     C_R   0.599841 0.499955 0.599837 0.823895
C53   C     C_3   0.200476 0.521358 0.277903 -0.390793
C54   C     C_3   0.213475 0.499901 0.213457 0.354241
C55   C     C_3   0.285320 0.556302 0.228027 -0.392482
C56   C     C_3   0.786354 0.498966 0.786113 0.114659
C57   C     C_3   0.328278 0.556349 0.270993 -0.392593
C58   C     C_1   0.172761 0.499860 0.172736 -0.131670
C59   C     C_1   0.327190 0.500026 0.327193 -0.131685
C60   C     C_1   0.360525 0.500047 0.360528 -0.146976
C61   C     C_3   0.307839 0.578601 0.765070 -0.396167
C62   C     C_3   0.286003 0.461204 0.742968 -0.437702
C63   C     C_3   0.243042 0.461153 0.785931 -0.439351
C64   C     C_3   0.785344 0.479097 0.718253 0.133674
C65   C     C_1   0.138508 0.499016 0.859935 -0.151885
C66   C     C_3   0.283900 0.498235 0.710650 0.275926
C67   C     C_3   0.714804 0.519205 0.779862 0.120196
C68   C     C_3   0.264922 0.578505 0.807868 -0.395884
C69   C     C_3   0.210589 0.498073 0.783852 0.276550
C70   C     C_3   0.168942 0.452612 0.712361 -0.027650
C71   C     C_3   0.212404 0.452762 0.668982 -0.027546
C72   C     C_1   0.171065 0.498567 0.825839 -0.124292
C73   C     C_1   0.325941 0.498884 0.671177 -0.123707
C74   C     C_1   0.360067 0.499396 0.638649 -0.151069
C75   C     C_R   0.900431 0.500150 0.099737 0.826211
C76   C     C_3   0.710987 0.430549 0.694423 -0.202124
C77   C     C_R   0.099460 0.499586 0.900162 0.824455
C78   C     C_3   0.712082 0.450763 0.763223 -0.219823
C79   C     C_R   0.099776 0.699193 0.099437 0.824977
C80   C     C_R   0.900115 0.300576 0.900435 0.824462
C81   C     C_R   0.099793 0.499835 0.099781 0.827359
C82   C     C_R   0.900081 0.499906 0.900105 0.823264
C83   C     C_1   0.639493 0.499799 0.639253 -0.151307
C84   C     C_3   0.826331 0.455694 0.683757 -0.419496
C85   C     C_3   0.814028 0.439737 0.617073 -0.341598
C86   C     C_3   0.855077 0.416405 0.582772 -0.883061
C87   C     C_3   0.773260 0.648604 0.349912 -0.377888
C88   C     C_3   0.832511 0.723355 0.406070 -0.339445
C89   C     C_1   0.672907 0.499687 0.672321 -0.053818
C90   C     C_3   0.824815 0.785872 0.427499 -0.895400
H1    H     H_    0.679270 0.374473 0.649000 0.137450
H2    H     H_    0.139199 0.936366 0.185176 0.165852
H3    H     H_    0.635292 0.430979 0.199130 0.175387
H4    H     H_    0.671264 0.526750 0.234308 0.160605
H5    H     H_    0.733031 0.523555 0.168669 0.156925
H6    H     H_    0.698114 0.429017 0.135906 0.174262
H7    H     H_    0.754058 0.460392 0.317239 0.165864
H8    H     H_    0.683455 0.391638 0.247646 0.185296
H9    H     H_    0.815910 0.457496 0.252352 0.166296
H10   H     H_    0.804767 0.593405 0.368279 0.118585
H11   H     H_    0.866556 0.589631 0.306918 0.121366
H12   H     H_    0.349840 0.063549 0.229541 0.164378
H13   H     H_    0.681199 0.411797 0.775324 0.149009
H14   H     H_    0.745252 0.390197 0.182953 0.185170
H15   H     H_    0.833333 0.064676 0.852226 0.167838
H16   H     H_    0.765841 0.937367 0.790321 0.164113
H17   H     H_    0.631740 0.935121 0.724788 0.156448
H18   H     H_    0.664678 0.934098 0.785629 0.165213
H19   H     H_    0.695045 0.060975 0.784567 0.140481
H20   H     H_    0.754892 0.936933 0.641803 0.172113
H21   H     H_    0.684494 0.936488 0.639857 0.167109
H22   H     H_    0.817844 0.063908 0.705226 0.177819
H23   H     H_    0.286373 0.936502 0.165976 0.164208
H24   H     H_    0.802129 0.935370 0.729895 0.170626
H25   H     H_    0.865476 0.061996 0.789723 0.167531
H26   H     H_    0.747561 0.063531 0.703689 0.165597
H27   H     H_    0.149152 0.481534 0.268854 0.164923
H28   H     H_    0.212679 0.481604 0.332392 0.165270
H29   H     H_    0.272386 0.405431 0.196620 0.167160
H30   H     H_    0.211880 0.380511 0.232188 0.164753
H31   H     H_    0.148354 0.380441 0.168649 0.164760
H32   H     H_    0.208860 0.405362 0.133081 0.167216
H33   H     H_    0.360151 0.612898 0.316191 0.164705
H34   H     H_    0.224574 0.936473 0.132638 0.167887
H35   H     H_    0.359593 0.542112 0.246028 0.164800
H36   H     H_    0.296625 0.612827 0.252652 0.164717
H37   H     H_    0.273742 0.577309 0.366988 0.167166
H38   H     H_    0.210215 0.577239 0.303448 0.167096
H39   H     H_    0.296067 0.542042 0.182488 0.164880
H40   H     H_    0.295015 0.609324 0.858037 0.171796
H41   H     H_    0.357989 0.609402 0.795213 0.172086
H42   H     H_    0.269422 0.403274 0.705814 0.168517
H43   H     H_    0.336151 0.491330 0.772660 0.186332
H44   H     H_    0.272768 0.491310 0.836068 0.185506
H45   H     H_    0.204685 0.063361 0.318864 0.165374
H46   H     H_    0.818889 0.588055 0.724305 0.139609
H47   H     H_    0.205960 0.403202 0.769348 0.168174
H48   H     H_    0.196071 0.394255 0.634492 0.119567
H49   H     H_    0.309389 0.609459 0.745599 0.159657
H50   H     H_    0.245346 0.609258 0.809368 0.159912
H51   H     H_    0.134595 0.394053 0.695951 0.119471
H52   H     H_    0.289258 0.936434 0.266126 0.164171
H53   H     H_    0.352725 0.063478 0.329691 0.164438
H54   H     H_    0.288042 0.063520 0.196205 0.167322
H55   H     H_    0.892293 0.650103 0.259158 0.187066
H56   H     H_    0.202667 0.063410 0.248741 0.165173
H57   H     H_    0.820066 0.633827 0.240944 0.188634
H58   H     H_    0.906779 0.461182 0.610542 0.263026
H59   H     H_    0.843664 0.365236 0.576702 0.260493
H60   H     H_    0.845206 0.405216 0.534671 0.247091
H61   H     H_    0.762667 0.394630 0.587733 0.219474
H62   H     H_    0.825490 0.490129 0.621415 0.222040
H63   H     H_    0.877654 0.500867 0.713127 0.207357
H64   H     H_    0.814792 0.405302 0.679443 0.200508
H65   H     H_    0.819365 0.791193 0.387621 0.261435
H66   H     H_    0.782159 0.775009 0.443158 0.259636
H67   H     H_    0.141218 0.936317 0.255298 0.165290
H68   H     H_    0.867954 0.838931 0.468375 0.248800
H69   H     H_    0.839259 0.720394 0.447256 0.210952
H70   H     H_    0.876405 0.736794 0.392498 0.245861
H71   H     H_    0.762341 0.652572 0.310513 0.210902
H72   H     H_    0.731987 0.637729 0.367749 0.198266
H73   H     H_    0.684201 0.058208 0.873220 0.179343
H74   H     H_    0.743211 0.047874 0.880095 0.189763
H75   H     H_    0.688631 0.553835 0.858948 0.172936
H76   H     H_    0.689794 0.591098 0.819989 0.174428
H77   H     H_    0.818423 0.673601 0.861001 0.174404
H78   H     H_    0.292946 0.063401 0.366476 0.167578
H79   H     H_    0.817211 0.636029 0.899676 0.176809
H80   H     H_    0.225164 0.534079 0.658811 0.193273
H81   H     H_    0.226881 0.466832 0.596005 0.181913
H82   H     H_    0.095633 0.466124 0.726679 0.182371
H83   H     H_    0.158377 0.533752 0.725316 0.193408
H84   H     H_    0.229478 0.936357 0.302911 0.167261
N1    N     N_3   0.853181 0.644131 0.274914 -0.470806
N2    N     N_3   0.728691 0.072553 0.866979 -0.463910
N3    N     N_3   0.676068 0.541648 0.813415 -0.457535
N4    N     N_3   0.829550 0.639940 0.862185 -0.458079
N5    N     N_3   0.204290 0.477319 0.630287 -0.438569
N6    N     N_3   0.130026 0.476950 0.704261 -0.438252
O1    O     O_3   0.500000 0.500000 0.500000 -0.476066
O2    O     O_R   0.960830 0.335840 0.918110 -0.640151
O3    O     O_R   0.082190 0.542890 0.125100 -0.639426
O4    O     O_R   0.625020 0.663960 0.582080 -0.638683
O5    O     O_R   0.874750 0.456980 0.917820 -0.639522
O6    O     O_R   0.082060 0.456790 0.039130 -0.638929
O7    O     O_R   0.960740 0.542810 0.917680 -0.636232
O8    O     O_R   0.081970 0.663760 0.038700 -0.637508
O9    O     O_R   0.874800 0.335990 0.918070 -0.636159
O10   O     O_R   0.961140 0.543090 0.125040 -0.640805
O11   O     O_R   0.081820 0.456620 0.917920 -0.638736
O12   O     O_R   0.418020 0.456930 0.581980 -0.636890
O13   O     O_R   0.418070 0.336020 0.461010 -0.638333
O14   O     O_R   0.417900 0.542920 0.581890 -0.640197
O15   O     O_R   0.539010 0.457110 0.375020 -0.638520
O16   O     O_R   0.417800 0.543010 0.460800 -0.639543
O17   O     O_R   0.625170 0.542960 0.582200 -0.640114
O18   O     O_R   0.417840 0.457080 0.374840 -0.639377
O19   O     O_R   0.539180 0.456950 0.582160 -0.634807
O20   O     O_R   0.625070 0.543050 0.461120 -0.639524
O21   O     O_R   0.538910 0.663940 0.581950 -0.638974
O22   O     O_R   0.418000 0.336080 0.374960 -0.639076
O23   O     O_3   0.999930 0.499860 0.999930 -0.476288
O24   O     O_R   0.874990 0.457140 0.039030 -0.636649
O25   O     O_R   0.081780 0.542610 0.917740 -0.639422
O26   O     O_R   0.082140 0.663870 0.124840 -0.639709
Zn1   Zn    Zn3+2 0.469350 0.438540 0.530750 0.971567
Zn2   Zn    Zn3+2 0.469190 0.561400 0.530630 0.966247
Zn3   Zn    Zn3+2 0.469250 0.438630 0.407810 0.966743
Zn4   Zn    Zn3+2 0.592210 0.561430 0.530810 0.966875
Zn5   Zn    Zn3+2 0.030570 0.561190 0.969050 0.969392
Zn6   Zn    Zn3+2 0.030810 0.561360 0.092130 0.966329
Zn7   Zn    Zn3+2 0.030630 0.438350 0.969310 0.967394
Zn8   Zn    Zn3+2 0.907720 0.438560 0.969250 0.970824

loop_
_geom_bond_atom_site_label_1
_geom_bond_atom_site_label_2
_ccdc_geom_bond_type
C87   C88   S    
C27   H8    S    
O16   Zn2   S    
C8    C13   S    
O13   Zn1   S    
C69   C72   S    
H75   N3    S    
C80   O9    A    
C81   O6    A    
O23   Zn8   S    
C19   C20   S    
C33   H17   S    
C63   H47   S    
C6    H34   S    
C1    O21   A    
C48   H30   S    
C53   C54   S    
C67   C78   S    
C26   C27   S    
C28   O20   A    
C23   H46   S    
C23   C45   S    
C35   N2    S    
C62   H43   S    
O1    Zn1   S    
C76   C78   S    
O15   Zn3   S    
C77   O25   A    
C86   H60   S    
C57   H35   S    
C30   C31   T    
O8    Zn5   S    
C53   H27   S    
C1    C46   S    
C20   C25   S    
O25   Zn5   S    
C49   C54   S    
O6    Zn7   S    
O24   Zn8   S    
C28   O15   A    
C56   C78   S    
O5    Zn8   S    
O23   Zn5   S    
O1    Zn3   S    
C24   H11   S    
C41   C42   S    
C88   H69   S    
C71   N5    S    
C37   C42   S    
O18   Zn3   S    
O10   Zn6   S    
C64   C84   S    
O17   Zn4   S    
C16   O12   A    
C26   H14   S    
C5    H12   S    
C84   H64   S    
C11   H2    S    
C7    C14   T    
H55   N1    S    
C45   C56   S    
C68   C69   S    
C55   H39   S    
C41   H22   S    
C45   C67   S    
O2    Zn7   S    
C56   C64   S    
C70   C71   S    
C51   C57   S    
C80   O2    A    
C48   H29   S    
C9    C10   S    
C19   H3    S    
C26   H9    S    
C47   C53   S    
H82   N6    S    
C20   H6    S    
C2    C12   T    
C59   C60   T    
C32   H16   S    
C13   H45   S    
H81   N5    S    
C33   H18   S    
C18   H10   S    
C13   H56   S    
C87   H72   S    
H73   N2    S    
C61   C66   S    
C1    O4    A    
C44   C46   T    
C3    H78   S    
C71   H48   S    
C47   H28   S    
C73   C74   T    
C25   C29   S    
C4    O13   A    
C83   C89   T    
C48   C51   S    
C65   C77   S    
C79   O8    A    
C62   C66   S    
C82   O5    A    
C50   C58   T    
C63   H44   S    
C63   C69   S    
C75   O10   A    
C3    H53   S    
C84   C85   S    
C39   C41   S    
C3    C8    S    
C67   N3    S    
C86   H59   S    
H76   N3    S    
C61   H49   S    
C5    H54   S    
C39   C43   S    
H83   N6    S    
C25   C26   S    
C85   C86   S    
C66   C73   S    
C21   C29   T    
C33   C37   S    
O1    Zn4   S    
C77   O11   A    
C90   H68   S    
C52   C83   S    
C35   C39   S    
C42   H21   S    
C85   H61   S    
C6    H23   S    
C62   C63   S    
C3    C9    S    
C53   H38   S    
C62   H42   S    
C57   H33   S    
C84   H63   S    
C82   O7    A    
C4    O22   A    
C66   C71   S    
C55   H36   S    
C75   O24   A    
C23   C34   S    
C49   H31   S    
C19   C22   S    
O19   Zn1   S    
C64   C76   S    
C12   C82   S    
C9    H84   S    
C52   O19   A    
C32   C37   S    
C24   C25   S    
C68   H40   S    
C19   H4    S    
C45   N4    S    
C4    C17   S    
C48   C49   S    
C87   H71   S    
C20   H5    S    
C88   C90   S    
C8    C15   S    
C32   C38   S    
C22   C27   S    
C55   C57   S    
C36   C80   S    
C54   C58   S    
O12   Zn1   S    
C18   C24   S    
O23   Zn6   S    
C68   H50   S    
C51   C59   S    
C81   O3    A    
C41   H26   S    
C90   H66   S    
C65   C72   T    
H79   N4    S    
C11   H67   S    
C7    C79   S    
C40   O16   A    
C15   C17   T    
C54   C55   S    
C27   H7    S    
C70   H51   S    
C22   C30   S    
C78   H13   S    
C18   C22   S    
O23   Zn7   S    
C28   C31   S    
O7    Zn5   S    
C86   H58   S    
C34   C67   S    
C6    C10   S    
C5    C8    S    
C47   C51   S    
C9    H52   S    
O4    Zn4   S    
C16   C74   S    
C79   O26   A    
O14   Zn2   S    
C21   C75   S    
C18   C87   S    
H80   N5    S    
C10   C11   S    
C37   C44   S    
C34   C89   S    
O3    Zn6   S    
C23   C64   S    
C2    C56   S    
O11   Zn7   S    
C38   H25   S    
C11   C13   S    
C61   C68   S    
C70   N6    S    
C5    C6    S    
C40   O18   A    
C47   H37   S    
C38   H15   S    
O1    Zn2   S    
C38   C39   S    
C33   C35   S    
O21   Zn2   S    
C35   H19   S    
H74   N2    S    
H57   N1    S    
C88   H70   S    
C42   H20   S    
C69   C70   S    
O20   Zn4   S    
C85   H62   S    
C16   O14   A    
O9    Zn8   S    
C61   H41   S    
C76   H1    S    
O26   Zn6   S    
H77   N4    S    
C34   C76   S    
C40   C60   S    
C36   C43   T    
C52   O17   A    
O22   Zn3   S    
C32   H24   S    
C90   H65   S    
C24   N1    S    
C49   H32   S    
C50   C81   S    
C10   C14   S    
