data_mof_unit_39642.cif
_audit_creation_date              2012-12-10T21:26:05-0500
_audit_creation_method            fapswitch 2.2
_symmetry_space_group_name_H-M    P1
_symmetry_Int_Tables_number       1
_space_group_crystal_system       triclinic
_cell_length_a                    8.55882
_cell_length_b                    16.255916
_cell_length_c                    16.634079
_cell_angle_alpha                 87.604686
_cell_angle_beta                  94.685308
_cell_angle_gamma                 100.810446
_cell_volume                      2264.82660453

loop_
_atom_site_label
_atom_site_type_symbol
_atom_type_description
_atom_site_fract_x
_atom_site_fract_y
_atom_site_fract_z
_atom_type_partial_charge
C1    C     C_R   0.498927 0.488841 0.653440 0.894916
C2    C     C_R   0.354359 0.145004 0.436793 -0.161087
C3    C     C_R   0.642166 0.767526 0.554783 0.024215
C4    C     C_R   0.359075 0.232614 0.444206 0.020145
C5    C     C_R   0.800769 0.521338 0.503493 0.968143
C6    C     C_R   0.199227 0.478644 0.496542 0.974192
C7    C     C_2   0.967148 0.530432 0.512833 -0.372313
C8    C     C_2   0.032834 0.469475 0.487298 -0.353534
C9    C     C_R   0.510818 0.482063 0.741191 -0.051818
C10   C     C_R   0.486791 0.517519 0.258842 -0.060431
C11   C     C_R   0.599023 0.548586 0.785286 -0.264829
C12   C     C_R   0.500243 0.511080 0.346560 0.900717
C13   C     C_R   0.398347 0.450639 0.215287 -0.243597
C14   C     C_R   0.626271 0.541279 0.868452 -0.057970
C15   C     C_R   0.373158 0.456637 0.131990 -0.061719
C16   C     C_R   0.550636 0.468241 0.908618 0.225592
C17   C     C_R   0.449155 0.529408 0.091331 0.214314
C18   C     C_R   0.468478 0.398763 0.864682 0.002352
C19   C     C_R   0.529438 0.599688 0.134790 0.010611
C20   C     C_R   0.446593 0.407244 0.780712 -0.302576
C21   C     C_R   0.550623 0.592052 0.218837 -0.299653
C22   C     C_2   0.265124 0.387080 0.088912 0.939875
C23   C     C_R   0.409346 0.757378 0.465199 0.078575
C24   C     C_2   0.736806 0.609118 0.912544 0.936806
C25   C     C_R   0.406040 0.317386 0.905607 0.145856
C26   C     C_R   0.254439 0.271126 0.881725 -0.095066
C27   C     C_R   0.197820 0.194103 0.919546 -0.156051
C28   C     C_R   0.291921 0.162180 0.981302 -0.134678
C29   C     C_R   0.443015 0.207144 0.005206 -0.100884
C30   C     C_R   0.500240 0.284142 0.967477 -0.149922
C31   C     C_R   0.591314 0.680887 0.093290 0.146615
C32   C     C_R   0.498400 0.712523 0.029792 -0.150217
C33   C     C_R   0.555621 0.788960 0.991072 -0.090736
C34   C     C_R   0.588974 0.242414 0.535940 0.071562
C35   C     C_R   0.705337 0.835047 0.015632 -0.077167
C36   C     C_R   0.797741 0.805009 0.079284 -0.152740
C37   C     C_R   0.741092 0.728583 0.118148 -0.161047
C38   C     C_R   0.704456 0.286386 0.597575 0.169197
C39   C     C_R   0.657106 0.294892 0.675063 -0.110158
C40   C     C_R   0.768671 0.330009 0.736231 -0.133911
C41   C     C_R   0.929096 0.354104 0.721097 -0.140064
C42   C     C_R   0.979145 0.339499 0.646044 -0.148672
C43   C     C_R   0.867399 0.304413 0.584943 -0.140552
C44   C     C_R   0.294249 0.713659 0.403292 0.162946
C45   C     C_R   0.413013 0.844086 0.470467 -0.296212
C46   C     C_R   0.131277 0.695686 0.415694 -0.140663
C47   C     C_R   0.019651 0.661237 0.354263 -0.145947
C48   C     C_R   0.069979 0.647150 0.279122 -0.136215
C49   C     C_R   0.230656 0.670923 0.264342 -0.135507
C50   C     C_R   0.342070 0.705401 0.325852 -0.109038
C51   C     C_R   0.771609 0.906128 0.617007 0.143846
C52   C     C_R   0.789039 0.885012 0.699648 -0.122778
C53   C     C_R   0.905770 0.933598 0.750396 -0.120506
C54   C     C_R   0.005786 0.003559 0.719144 -0.118319
C55   C     C_R   0.989490 0.024961 0.637042 -0.143174
C56   C     C_R   0.584021 0.155505 0.531607 -0.304390
C57   C     C_R   0.873111 0.976469 0.586105 -0.106994
C58   C     C_R   0.231671 0.093982 0.381282 0.153809
C59   C     C_R   0.220231 0.114758 0.298381 -0.125340
C60   C     C_R   0.106113 0.066432 0.246161 -0.124328
C61   C     C_R   0.002899 0.996994 0.276168 -0.118339
C62   C     C_R   0.013442 0.975840 0.358480 -0.145460
C63   C     C_R   0.127178 0.024090 0.410881 -0.098070
C64   C     C_2   0.786200 0.734625 0.584779 0.954410
C65   C     C_2   0.219036 0.266560 0.409505 0.944218
C66   C     C_R   0.530877 0.894025 0.519845 0.256358
C67   C     C_R   0.467045 0.105625 0.481730 0.252507
C68   C     C_R   0.645880 0.854927 0.563166 -0.165099
H1    H     H_    0.034997 0.584950 0.543503 0.172231
H2    H     H_    0.891989 0.641412 0.008963 0.340534
H3    H     H_    0.179286 0.294735 0.834347 0.118491
H4    H     H_    0.080813 0.159170 0.900953 0.128921
H5    H     H_    0.247791 0.102610 0.010615 0.121878
H6    H     H_    0.516138 0.182197 0.052847 0.134701
H7    H     H_    0.618803 0.317290 0.985992 0.142195
H8    H     H_    0.380883 0.678517 0.010641 0.136540
H9    H     H_    0.483585 0.812570 0.942105 0.130350
H10   H     H_    0.749506 0.894157 0.985515 0.113033
H11   H     H_    0.913552 0.840895 0.098491 0.126855
H12   H     H_    0.965007 0.414882 0.456715 0.171048
H13   H     H_    0.815319 0.706362 0.166807 0.123742
H14   H     H_    0.534086 0.273401 0.688021 0.120162
H15   H     H_    0.731406 0.337637 0.795624 0.147656
H16   H     H_    0.014905 0.382362 0.768033 0.144850
H17   H     H_    0.104511 0.354729 0.635485 0.144128
H18   H     H_    0.907497 0.290505 0.528095 0.158038
H19   H     H_    0.091317 0.709137 0.472717 0.183014
H20   H     H_    0.894187 0.646122 0.364634 0.146104
H21   H     H_    0.984237 0.619511 0.231868 0.140729
H22   H     H_    0.268239 0.663596 0.204949 0.144195
H23   H     H_    0.345260 0.394198 0.246218 0.246714
H24   H     H_    0.465292 0.726711 0.313159 0.119999
H25   H     H_    0.711635 0.831297 0.724762 0.151186
H26   H     H_    0.918359 0.917129 0.814021 0.139701
H27   H     H_    0.095781 0.041215 0.758555 0.127945
H28   H     H_    0.066926 0.079156 0.612843 0.144912
H29   H     H_    0.861629 0.993778 0.522645 0.140444
H30   H     H_    0.300164 0.168056 0.274232 0.150214
H31   H     H_    0.098025 0.082705 0.182374 0.130951
H32   H     H_    0.914922 0.959532 0.235629 0.126445
H33   H     H_    0.933613 0.922015 0.381709 0.143398
H34   H     H_    0.650633 0.605692 0.754995 0.240030
H35   H     H_    0.134354 0.006938 0.474461 0.139060
H36   H     H_    0.886207 0.654896 0.659011 0.327356
H37   H     H_    0.979151 0.252515 0.397300 0.333033
H38   H     H_    0.380563 0.355465 0.745925 0.143417
H39   H     H_    0.615898 0.644220 0.253337 0.145314
H40   H     H_    0.671381 0.127098 0.568248 0.176777
H41   H     H_    0.324335 0.872364 0.434712 0.175085
H42   H     H_    0.154037 0.266022 0.091415 0.343820
N1    N     N_2   0.533463 0.469421 0.991800 -0.141593
N2    N     N_2   0.466568 0.527856 0.008215 -0.150986
N3    N     N_R   0.519180 0.718290 0.509780 -0.144808
N4    N     N_R   0.480820 0.281710 0.490220 -0.145299
N5    N     N_2   0.538792 0.982722 0.527602 -0.172480
N6    N     N_2   0.458803 0.016859 0.474291 -0.174658
O1    O     O_R   0.493140 0.422050 0.612640 -0.634884
O2    O     O_R   0.231949 0.307456 0.125840 -0.818276
O3    O     O_2   0.763720 0.680172 0.883196 -0.643714
O4    O     O_R   0.815073 0.591029 0.986460 -0.789184
O5    O     O_2   0.915230 0.767428 0.560941 -0.680649
O6    O     O_R   0.778268 0.670215 0.642758 -0.804709
O7    O     O_2   0.234711 0.326166 0.362306 -0.634656
O8    O     O_R   0.066217 0.226343 0.427474 -0.840203
O9    O     O_R   0.506860 0.577950 0.387360 -0.634797
O10   O     O_R   0.505450 0.562230 0.618920 -0.574232
O11   O     O_R   0.494550 0.437770 0.381080 -0.577637
O12   O     O_R   0.723530 0.446300 0.497600 -0.610956
O13   O     O_R   0.276470 0.553700 0.502400 -0.611346
O14   O     O_R   0.735850 0.586490 0.503880 -0.618775
O15   O     O_R   0.264150 0.413510 0.496120 -0.617217
O16   O     O_2   0.201031 0.399778 0.022283 -0.618390
Zn1   Zn    Zn3+2 0.491780 0.406400 0.495810 0.970334
Zn2   Zn    Zn3+2 0.508220 0.593600 0.504190 0.969914

loop_
_geom_bond_atom_site_label_1
_geom_bond_atom_site_label_2
_ccdc_geom_bond_type
O9    Zn2   S    
C66   C68   A    
C34   C56   A    
C23   C45   A    
C41   C42   A    
C3    C68   A    
C49   H22   S    
C60   H31   S    
C19   C31   S    
H42   O2    S    
C7    C8    D    
C12   O11   A    
C3    C64   S    
C26   C27   A    
C29   C30   A    
C4    N4    A    
C28   C29   A    
C19   C21   A    
C4    C65   S    
C11   C14   A    
C45   H41   S    
H36   O6    S    
C64   O5    D    
C25   C30   A    
C15   C17   A    
C65   O8    S    
C14   C24   S    
C56   H40   S    
C17   C19   A    
C46   C47   A    
C15   C22   S    
C35   C36   A    
H2    O4    S    
C51   C57   A    
C62   H33   S    
O1    Zn1   S    
C59   C60   A    
C13   H23   S    
C26   H3    S    
C40   H15   S    
C37   H13   S    
O14   Zn2   S    
C18   C25   S    
C6    O13   A    
C28   H5    S    
C44   C46   A    
C20   H38   S    
C10   C21   A    
C24   O4    S    
C66   N5    S    
C51   C52   A    
C1    C9    S    
C1    O10   A    
C63   H35   S    
C2    C67   A    
C3    N3    A    
C39   C40   A    
C5    C7    S    
C6    O15   A    
C6    C8    S    
C29   H6    S    
C25   C26   A    
C53   C54   A    
C41   H16   S    
C10   C13   A    
C23   C44   S    
C31   C37   A    
H37   O8    S    
C60   C61   A    
C2    C4    A    
C67   N6    S    
C7    H1    S    
C62   C63   A    
C23   N3    A    
C9    C20   A    
C47   C48   A    
C57   H29   S    
C52   H25   S    
C42   H17   S    
C1    O1    A    
C9    C11   A    
C54   H27   S    
C21   H39   S    
C10   C12   S    
C50   H24   S    
C48   C49   A    
C48   H21   S    
C55   C57   A    
C14   C16   A    
C61   H32   S    
C42   C43   A    
C17   N2    S    
C45   C66   A    
C52   C53   A    
C46   H19   S    
C44   C50   A    
C58   C63   A    
C22   O2    S    
C54   C55   A    
C36   C37   A    
C24   O3    D    
N1    N2    D    
C22   O16   D    
C53   H26   S    
C34   C38   S    
C43   H18   S    
C31   C32   A    
O11   Zn1   S    
C39   H14   S    
C55   H28   S    
O15   Zn1   S    
C36   H11   S    
C32   H8    S    
C2    C58   S    
C12   O9    A    
C34   N4    A    
C56   C67   A    
C35   H10   S    
N3    Zn2   S    
C47   H20   S    
C13   C15   A    
C58   C59   A    
C38   C43   A    
O12   Zn1   S    
C32   C33   A    
C30   H7    S    
C33   H9    S    
C38   C39   A    
C64   O6    S    
C5    O12   A    
C33   C35   A    
N4    Zn1   S    
C11   H34   S    
C18   C20   A    
C51   C68   S    
C65   O7    D    
C61   C62   A    
O13   Zn2   S    
C5    O14   A    
O10   Zn2   S    
C16   C18   A    
C49   C50   A    
C27   C28   A    
C8    H12   S    
C59   H30   S    
C40   C41   A    
C27   H4    S    
N5    N6    D    
C16   N1    S    
