data_mof_unit_45316.cif
_audit_creation_date              2013-03-05T16:06:48-0500
_audit_creation_method            fapswitch 2.2
_symmetry_space_group_name_H-M    P1
_symmetry_Int_Tables_number       1
_space_group_crystal_system       triclinic
_cell_length_a                    6.982102
_cell_length_b                    14.566087
_cell_length_c                    16.168012
_cell_angle_alpha                 90.40744
_cell_angle_beta                  89.888951
_cell_angle_gamma                 90.016842
_cell_volume                      1644.27289504

loop_
_atom_site_label
_atom_site_type_symbol
_atom_site_description
_atom_site_fract_x
_atom_site_fract_y
_atom_site_fract_z
_atom_type_partial_charge
O1    O     O_R   0.505830 0.583360 0.413880 -0.558906
O2    O     O_R   0.175830 0.595460 0.585520 -0.582271
O3    O     O_R   0.005520 0.416640 0.586120 -0.605006
C1    C     C_R   0.344498 0.616897 0.614833 0.979635
O4    O     O_R   0.176120 0.594390 0.414490 -0.538674
O5    O     O_R   0.005810 0.415570 0.413870 -0.606773
C2    C     C_R   0.345133 0.615034 0.384901 0.965097
O6    O     O_R   0.505540 0.584430 0.586130 -0.559019
O7    O     O_3   0.339200 0.441330 0.500000 -0.314281
V1    V     V_3+5 0.064350 0.510880 0.500000 1.277001
O8    O     O_R   0.676100 0.404540 0.414480 -0.601594
C3    C     C_R   0.845276 0.382173 0.386106 0.994632
O9    O     O_R   0.675810 0.405610 0.585510 -0.599397
C4    C     C_R   0.845072 0.382716 0.612750 1.074349
V2    V     V_3+5 0.564340 0.489120 0.500000 1.251064
O10   O     O_3   0.839360 0.558670 0.500000 -0.197741
C5    C     C_2   0.721781 0.208209 0.785650 -0.047612
C6    C     C_2   0.885795 0.181748 0.822594 -0.423303
H1    H     H_    0.586859 0.179141 0.806382 0.136487
H2    H     H_    0.022324 0.210237 0.804022 0.153109
C7    C     C_2   0.709205 0.276622 0.717603 -0.047805
C8    C     C_2   0.861515 0.314338 0.679501 -0.414111
H3    H     H_    0.566071 0.295852 0.698065 0.133110
H4    H     H_    0.005720 0.295603 0.697113 0.152404
C9    C     C_R   0.727580 0.181557 0.242930 0.184346
C10   C     C_R   0.882356 0.180343 0.187611 -0.221542
C11   C     C_R   0.034231 0.241595 0.203596 -0.150120
H5    H     H_    0.157159 0.243034 0.162958 0.143117
C12   C     C_R   0.022993 0.306139 0.268769 -0.120635
H6    H     H_    0.138188 0.355065 0.276489 0.135847
C13   C     C_R   0.859239 0.311605 0.319775 -0.230458
C14   C     C_R   0.716020 0.245684 0.307179 0.165546
C15   C     C_3   0.506319 0.258520 0.294993 -0.474352
C16   C     C_3   0.518778 0.188252 0.225302 -0.457097
H7    H     H_    0.471465 0.328787 0.273302 0.199646
H8    H     H_    0.421386 0.234337 0.348826 0.199183
H9    H     H_    0.490333 0.217548 0.163224 0.196831
H10   H     H_    0.441806 0.123272 0.239006 0.194158
C17   C     C_R   0.512292 0.743718 0.693168 0.092184
C18   C     C_R   0.353454 0.686341 0.682718 -0.170039
C19   C     C_R   0.204302 0.695897 0.740469 -0.136242
H11   H     H_    0.084795 0.650112 0.737569 0.173007
C20   C     C_R   0.216390 0.758660 0.806955 -0.036066
H12   H     H_    0.102903 0.759800 0.852563 0.130194
C21   C     C_R   0.378176 0.815314 0.817335 -0.208667
C22   C     C_R   0.521268 0.809905 0.756487 0.087406
C23   C     C_3   0.730649 0.795456 0.768451 0.003622
C24   C     C_3   0.716731 0.717017 0.705488 0.012984
H13   H     H_    0.769138 0.775426 0.832549 0.129644
H14   H     H_    0.805824 0.724237 0.648772 0.167194
C25   C     C_R   0.498818 0.750695 0.314920 0.039844
C26   C     C_R   0.355129 0.683579 0.317138 -0.170411
C27   C     C_R   0.219706 0.684337 0.252853 -0.030350
H15   H     H_    0.115736 0.630161 0.248354 0.169612
C28   C     C_R   0.227212 0.750369 0.189632 -0.144096
H16   H     H_    0.122151 0.747231 0.140501 0.136811
C29   C     C_R   0.377075 0.815094 0.186435 -0.145904
C30   C     C_R   0.508485 0.816019 0.251858 0.084012
C31   C     C_3   0.721993 0.813265 0.247727 -0.644626
C32   C     C_3   0.711451 0.737618 0.312346 0.542776
H17   H     H_    0.785859 0.878471 0.270886 0.208279
H18   H     H_    0.777057 0.790938 0.186264 0.229311
O11   O     O_R   0.229930 0.912420 0.917160 -0.560046
O12   O     O_R   0.559420 0.902500 0.088780 -0.591516
O13   O     O_R   0.729660 0.081330 0.089380 -0.599417
C33   C     C_R   0.390301 0.881058 0.117397 0.931978
O14   O     O_R   0.559650 0.901420 0.917750 -0.588611
O15   O     O_R   0.729880 0.080250 0.917130 -0.594284
C34   C     C_R   0.390859 0.880149 0.888467 0.963765
O16   O     O_R   0.229700 0.913500 0.089410 -0.602911
O17   O     O_3   0.396250 0.055540 0.003280 -0.290248
V3    V     V_3+5 0.671130 0.986010 0.003260 1.194330
O18   O     O_R   0.059600 0.091310 0.917720 -0.593906
C35   C     C_R   0.890984 0.113307 0.889723 1.085898
O19   O     O_R   0.059370 0.092380 0.088750 -0.605411
C36   C     C_R   0.890507 0.114469 0.117312 0.927149
V4    V     V_3+5 0.171120 0.007820 0.003230 1.188707
O20   O     O_3   0.896130 0.938240 0.003240 -0.266558
N1    N     N_R   0.839599 0.874390 0.738182 0.243121
O21   O     O_R   0.821645 0.902225 0.662218 -0.357091
O22   O     O_R   0.938204 0.923862 0.789992 -0.401479
N2    N     N_R   0.730417 0.626146 0.743856 0.223959
O23   O     O_R   0.806208 0.558390 0.702685 -0.417454
O24   O     O_R   0.650367 0.609754 0.815082 -0.406264
N3    N     N_R   0.806785 0.761564 0.390360 0.242260
O25   O     O_R   0.987612 0.782940 0.390604 -0.393254
O26   O     O_R   0.712140 0.762547 0.459845 -0.390876
N4    N     N_R   0.764667 0.646538 0.280095 0.194215
O27   O     O_R   0.713556 0.621142 0.205950 -0.442317
O28   O     O_R   0.837221 0.585474 0.329041 -0.399080

loop_
_geom_bond_atom_site_label_1
_geom_bond_atom_site_label_2
_geom_bond_distance
_ccdc_geom_bond_type
C28   H16   1.082998 S    
C11   C12   1.409245 A    
C16   H9    1.111664 S    
O18   C35   1.303046 A    
C23   N1    1.464968 S    
C29   C33   1.480695 S    
C1    O6    1.303262 A    
C32   N4    1.469606 S    
C23   H13   1.112087 S    
C27   H15   1.074251 S    
C10   C11   1.408726 A    
O13   C36   1.302593 A    
C2    C26   1.489050 S    
N3    O25   1.300300 A    
O15   C35   1.301645 A    
V2    O10   2.170807 S    
C15   H8    1.111535 S    
O14   V3    2.003696 S    
C19   H11   1.068918 S    
V3    O20   1.718361 S    
C15   H7    1.111475 S    
O8    V2    2.002674 S    
O11   C34   1.301497 A    
C10   C36   1.483258 S    
O1    V2    2.004915 S    
O7    V1    2.170285 S    
C9    C16   1.489378 S    
C9    C14   1.394270 A    
C24   H14   1.112648 S    
C31   C32   1.525497 S    
C6    C35   1.479414 S    
O1    C2    1.302569 A    
C7    C8    1.346900 D    
O16   V4    2.006498 S    
C19   C20   1.408805 A    
C5    C6    1.350162 D    
C27   C28   1.409405 A    
C7    H3    1.086112 S    
C31   H17   1.111989 S    
N3    O26   1.302267 A    
C21   C34   1.485682 S    
C25   C26   1.401182 A    
C23   C24   1.528058 S    
C1    C18   1.488686 S    
C17   C18   1.398266 A    
O4    C2    1.308243 A    
C30   C31   1.492641 S    
V4    O20   2.170826 S    
C5    C7    1.492369 S    
O14   C34   1.307258 A    
O12   C33   1.306004 A    
O2    C1    1.307222 A    
O19   C36   1.304934 A    
C12   H6    1.081279 S    
C20   C21   1.408330 A    
C13   C14   1.400309 A    
O15   V3    2.004104 S    
C15   C16   1.519237 S    
C25   C30   1.401063 A    
O19   V4    2.002469 S    
O3    C4    1.298223 A    
C17   C22   1.402708 A    
C18   C19   1.403634 A    
N4    O28   1.298402 A    
O6    V2    2.001430 S    
N2    O24   1.302647 A    
C28   C29   1.409357 A    
C3    C13   1.483300 S    
C8    H4    1.082447 S    
O2    V1    2.003716 S    
O17   V4    1.718522 S    
C26   C27   1.406572 A    
N1    O22   1.299351 A    
O11   V4    2.001682 S    
C22   C23   1.490230 S    
C31   H18   1.111342 S    
C16   H10   1.111750 S    
O5    V1    2.001998 S    
C32   N3    1.467150 S    
O13   V3    2.001970 S    
C14   C15   1.489736 S    
C4    C8    1.478438 S    
O9    V2    2.006347 S    
C9    C10   1.401472 A    
O4    V1    2.004801 S    
C12   C13   1.410365 A    
O3    V1    2.004104 S    
V1    O10   1.718416 S    
O5    C3    1.301155 A    
C29   C30   1.401575 A    
C33   O16   1.300293 A    
C20   H12   1.081411 S    
C5    H1    1.086104 S    
C24   N2    1.468991 S    
C6    H2    1.082356 S    
O12   V3    2.004751 S    
O7    V2    1.719001 S    
N1    O21   1.302412 A    
C21   C22   1.402621 A    
O17   V3    2.170332 S    
N4    O27   1.302518 A    
N2    O23   1.298760 A    
C11   H5    1.080192 S    
O18   V4    2.006306 S    
C25   C32   1.497312 S    
O9    C4    1.306206 A    
O8    C3    1.306849 A    
C17   C24   1.493648 S    
