data_mof_unit_44881.cif
_audit_creation_date              2013-03-05T15:50:44-0500
_audit_creation_method            fapswitch 2.2
_symmetry_space_group_name_H-M    P1
_symmetry_Int_Tables_number       1
_space_group_crystal_system       triclinic
_cell_length_a                    10.6821
_cell_length_b                    11.966971
_cell_length_c                    12.864838
_cell_angle_alpha                 93.560612
_cell_angle_beta                  90.53065
_cell_angle_gamma                 87.008718
_cell_volume                      1639.10205089

loop_
_atom_site_label
_atom_site_type_symbol
_atom_site_description
_atom_site_fract_x
_atom_site_fract_y
_atom_site_fract_z
_atom_type_partial_charge
O1    O     O_R   0.506240 0.421700 0.658830 -0.615703
O2    O     O_R   0.491240 0.609310 0.646410 -0.630299
C1    C     C_R   0.498724 0.522206 0.700394 0.854840
O3    O     O_R   0.692710 0.406190 0.506230 -0.610025
O4    O     O_R   0.677700 0.593810 0.493810 -0.631697
C2    C     C_R   0.741829 0.501336 0.501811 0.875990
Zn1   Zn    Zn3+2 0.510020 0.374730 0.508290 1.014967
Zn2   Zn    Zn3+2 0.489980 0.625270 0.491710 0.936962
O5    O     O_R   0.508760 0.390690 0.353590 -0.578650
O6    O     O_R   0.493760 0.578300 0.341170 -0.629984
O7    O     O_R   0.322300 0.406190 0.506190 -0.579893
O8    O     O_R   0.307290 0.593810 0.493770 -0.636470
C3    C     C_R   0.506761 0.477639 0.299587 0.908032
C4    C     C_R   0.257255 0.498484 0.498726 0.838819
C5    C     C_3   0.927524 0.460286 0.607337 -0.439379
H1    H     H_    0.881059 0.383881 0.628232 0.206563
H2    H     H_    0.898138 0.524863 0.669627 0.144642
C6    C     C_3   0.073323 0.440850 0.604149 0.446182
H3    H     H_    0.902727 0.337129 0.422974 0.246112
C7    C     C_3   0.926569 0.424519 0.410024 -0.366258
C8    C     C_3   0.921638 0.622189 0.492438 -0.417157
C9    C     C_3   0.877203 0.502417 0.502704 0.050606
H4    H     H_    0.890241 0.653867 0.416342 0.198781
H5    H     H_    0.881429 0.681202 0.555295 0.192951
C10   C     C_3   0.120118 0.495356 0.501364 -0.017239
C11   C     C_3   0.068675 0.433709 0.398372 -0.061048
C12   C     C_3   0.064034 0.619590 0.499681 -0.487748
H6    H     H_    0.093216 0.672073 0.568926 0.197296
H7    H     H_    0.099041 0.660937 0.431101 0.198188
H8    H     H_    0.878964 0.447739 0.336396 0.175255
H9    H     H_    0.079119 0.491819 0.334772 0.173836
C13   C     C_R   0.514316 0.463154 0.187960 -0.191279
C14   C     C_R   0.495590 0.535301 0.811600 -0.050312
C15   C     C_R   0.430386 0.638068 0.969885 -0.193506
C16   C     C_R   0.441133 0.632314 0.862460 -0.210059
C17   C     C_R   0.541401 0.445262 0.866952 -0.231149
C18   C     C_R   0.530484 0.449980 0.973442 0.116159
C19   C     C_R   0.474699 0.546982 0.025343 0.188787
C20   C     C_R   0.465290 0.551946 0.131965 -0.319284
C21   C     C_R   0.569932 0.365335 0.136361 0.316142
C22   C     C_R   0.575450 0.359208 0.028387 -0.276552
H10   H     H_    0.420699 0.626168 0.171467 0.171715
H11   H     H_    0.387379 0.712862 0.009347 0.144548
H12   H     H_    0.618902 0.285273 0.987688 0.176847
H13   H     H_    0.404560 0.701840 0.819237 0.165195
H14   H     H_    0.584974 0.370797 0.827034 0.153339
N1    N     N_R   0.523380 0.207800 0.519350 -0.095873
N2    N     N_R   0.476620 0.792180 0.480650 -0.103091
C23   C     C_R   0.387004 0.952898 0.398733 -0.288596
C24   C     C_R   0.396985 0.836833 0.409083 0.032278
C25   C     C_R   0.548162 0.859107 0.544132 -0.038085
C26   C     C_R   0.541084 0.976323 0.536836 0.081242
C27   C     C_R   0.459497 0.023587 0.462893 0.088138
C28   C     C_R   0.452748 0.140707 0.455329 0.053440
C29   C     C_R   0.602762 0.163248 0.591143 0.070789
C30   C     C_R   0.613269 0.047131 0.601181 -0.305416
H15   H     H_    0.391519 0.178577 0.398560 0.119562
H16   H     H_    0.658129 0.218065 0.640858 0.126127
H17   H     H_    0.323343 0.986938 0.341282 0.151364
H18   H     H_    0.676896 0.013193 0.658693 0.152866
H19   H     H_    0.341214 0.782105 0.359634 0.124354
H20   H     H_    0.610639 0.820945 0.600104 0.123474
N3    N     N_R   0.626051 0.274576 0.191442 0.215021
O9    O     O_R   0.607276 0.171545 0.159228 -0.400442
O10   O     O_R   0.713873 0.293660 0.260004 -0.415775
C31   C     C_3   0.130307 0.498079 0.706047 -0.439393
C32   C     C_3   0.092566 0.446748 0.806940 -0.783953
H21   H     H_    0.989526 0.453755 0.817838 0.237350
H22   H     H_    0.125108 0.357338 0.807793 0.298837
H23   H     H_    0.136599 0.492553 0.874343 0.242043
H24   H     H_    0.234153 0.492588 0.702528 0.219227
H25   H     H_    0.101259 0.588434 0.714302 0.184285
N4    N     N_R   0.108284 0.318743 0.600814 0.207038
O11   O     O_R   0.030522 0.244509 0.566380 -0.441835
O12   O     O_R   0.216640 0.282394 0.636092 -0.390211
C33   C     C_3   0.133013 0.318863 0.358207 -0.333907
C34   C     C_3   0.216186 0.330637 0.263923 -0.897776
H26   H     H_    0.279529 0.399815 0.279851 0.254529
H27   H     H_    0.272817 0.251429 0.245735 0.264770
H28   H     H_    0.157299 0.349682 0.194936 0.264011
H29   H     H_    0.188790 0.278066 0.419053 0.267209
H30   H     H_    0.062420 0.257778 0.332443 0.237337

loop_
_geom_bond_atom_site_label_1
_geom_bond_atom_site_label_2
_geom_bond_distance
_ccdc_geom_bond_type
C5    C6    1.563200 S    
C29   C30   1.402107 A    
N3    O10   1.300856 A    
C12   H7    1.114770 S    
N4    O11   1.302590 A    
C3    C13   1.438275 S    
H3    C7    1.111998 S    
C7    H8    1.114465 S    
C34   H26   1.104531 S    
Zn1   O7    2.021123 S    
C25   H20   1.082865 S    
C21   N3    1.435588 S    
C17   C18   1.373420 A    
C5    C9    1.548447 S    
C19   C20   1.373657 A    
O7    C4    1.282072 A    
C1    C14   1.430012 S    
C5    H1    1.111294 S    
C2    C9    1.446741 S    
C14   C17   1.393333 A    
Zn1   O5    2.010961 S    
C15   C16   1.384972 A    
C13   C20   1.397233 A    
O5    C3    1.285680 A    
N2    C25   1.365117 A    
C31   H25   1.108175 S    
C11   C33   1.564603 S    
C17   H14   1.085704 S    
N2    C24   1.362361 A    
C31   C32   1.535963 S    
C8    C12   1.521900 S    
C11   H9    1.116219 S    
O1    Zn1   1.982962 S    
C8    C9    1.546871 S    
N4    O12   1.302747 A    
C6    C10   1.605385 S    
O3    Zn1   2.007416 S    
C20   H10   1.085513 S    
C34   H27   1.111026 S    
C25   C26   1.409716 A    
C33   C34   1.527978 S    
O3    C2    1.282933 A    
C33   H30   1.111610 S    
C10   C11   1.584048 S    
C27   C28   1.409018 A    
C30   H18   1.083291 S    
C32   H22   1.108312 S    
Zn1   N1    2.009074 S    
C32   H21   1.109040 S    
Zn2   N2    2.008835 S    
C18   C19   1.409721 A    
C31   H24   1.108987 S    
Zn2   O8    2.007417 S    
N1    C28   1.364498 A    
C21   C22   1.388085 A    
O8    C4    1.290109 A    
C6    N4    1.487326 S    
C8    H4    1.114129 S    
C22   H12   1.084680 S    
C8    H5    1.113984 S    
C6    C31   1.573280 S    
C16   H13   1.083330 S    
C26   C27   1.408683 A    
N1    C29   1.362282 A    
C34   H28   1.111363 S    
C5    H2    1.113699 S    
C15   C19   1.399191 A    
O2    Zn2   2.010963 S    
C15   H11   1.083928 S    
C7    C9    1.546279 S    
O6    C3    1.288574 A    
C33   H29   1.102069 S    
O4    Zn2   2.021122 S    
C10   C12   1.574940 S    
C23   H17   1.083427 S    
C32   H23   1.110823 S    
O2    C1    1.286636 A    
O4    C2    1.279933 A    
C7    C11   1.537054 S    
C23   C27   1.402270 A    
C14   C16   1.398754 A    
C13   C21   1.414946 A    
C4    C10   1.468099 S    
C18   C22   1.394614 A    
N3    O9    1.301150 A    
Zn2   O6    1.982962 S    
C23   C24   1.401971 A    
C29   H16   1.081927 S    
C12   H6    1.109497 S    
C24   H19   1.081896 S    
O1    C1    1.284452 A    
C26   C30   1.402525 A    
C28   H15   1.080679 S    
