data_mof_unit_21117.cif
_audit_creation_date              2012-12-10T18:47:49-0500
_audit_creation_method            fapswitch 2.2
_symmetry_space_group_name_H-M    P1
_symmetry_Int_Tables_number       1
_space_group_crystal_system       triclinic
_cell_length_a                    9.908172
_cell_length_b                    10.691189
_cell_length_c                    15.022669
_cell_angle_alpha                 90.050611
_cell_angle_beta                  71.522844
_cell_angle_gamma                 90.001142
_cell_volume                      1509.31865174

loop_
_atom_site_label
_atom_site_type_symbol
_atom_type_description
_atom_site_fract_x
_atom_site_fract_y
_atom_site_fract_z
_atom_type_partial_charge
C1    C     C_R   0.500041 0.739889 0.500012 0.888710
C2    C     C_R   0.499960 0.260135 0.499997 0.846810
C3    C     C_R   0.338367 0.292196 0.093673 0.175235
C4    C     C_R   0.674417 0.310162 0.899511 0.156364
C5    C     C_R   0.241928 0.294088 0.042207 -0.187885
C6    C     C_R   0.771635 0.330794 0.947641 -0.150187
C7    C     C_R   0.601981 0.936025 0.529033 -0.181180
C8    C     C_R   0.398038 0.064079 0.471004 -0.191106
C9    C     C_R   0.601897 0.064194 0.529092 -0.194004
C10   C     C_R   0.398053 0.935916 0.471014 -0.183295
C11   C     C_R   0.499960 0.127632 0.500034 0.003435
C12   C     C_R   0.500048 0.872443 0.500004 0.006322
C13   C     C_R   0.944833 0.400185 0.465771 0.002847
C14   C     C_R   0.055178 0.599797 0.534199 0.006548
C15   C     C_R   0.088258 0.400328 0.465594 -0.055209
C16   C     C_R   0.911756 0.599643 0.534405 -0.073370
C17   C     C_R   0.412661 0.498387 0.676775 0.926322
C18   C     C_R   0.587096 0.499710 0.323372 0.935248
C19   C     C_R   0.363563 0.465153 0.777051 -0.198633
C20   C     C_R   0.636090 0.475109 0.221957 -0.210805
C21   C     C_R   0.183106 0.370790 0.907317 -0.263612
C22   C     C_R   0.823308 0.431877 0.077821 -0.230554
C23   C     C_R   0.218274 0.444931 0.826657 0.480543
C24   C     C_R   0.780706 0.483796 0.167061 0.451990
C25   C     C_R   0.466249 0.428911 0.818068 -0.289056
C26   C     C_R   0.536822 0.427163 0.181527 -0.286306
C27   C     C_R   0.428365 0.363609 0.903238 0.085186
C28   C     C_R   0.579975 0.373352 0.091828 0.081123
C29   C     C_R   0.284111 0.340424 0.950354 0.067688
C30   C     C_R   0.726073 0.376750 0.039574 0.046630
C31   C     C_R   0.528807 0.333545 0.947940 0.020295
C32   C     C_R   0.481546 0.331294 0.047274 0.028166
H1    H     H_    0.131528 0.268634 0.075991 0.151614
H2    H     H_    0.882724 0.317438 0.910798 0.169436
H3    H     H_    0.425657 0.438525 0.218956 0.194964
H4    H     H_    0.574614 0.459290 0.785902 0.191163
H5    H     H_    0.077108 0.338767 0.938411 0.128024
H6    H     H_    0.932117 0.442911 0.037045 0.204964
H7    H     H_    0.680370 0.887025 0.552423 0.145066
H8    H     H_    0.319653 0.113112 0.447628 0.147422
H9    H     H_    0.680206 0.113324 0.552540 0.152046
H10   H     H_    0.319646 0.886825 0.447653 0.152337
H11   H     H_    0.904588 0.320225 0.437936 0.130280
H12   H     H_    0.095679 0.680054 0.561456 0.130106
H13   H     H_    0.155367 0.320477 0.437653 0.113276
H14   H     H_    0.844731 0.679576 0.562207 0.121347
N1    N     N_R   0.142780 0.500030 0.500020 -0.070161
N2    N     N_R   0.857220 0.499970 0.499980 -0.077141
O1    O     O_R   0.385370 0.683250 0.500010 -0.626523
O2    O     O_R   0.614630 0.316750 0.499990 -0.638190
O3    O     O_R   0.614700 0.683220 0.500000 -0.623217
O4    O     O_R   0.385300 0.316780 0.500000 -0.630311
O5    O     O_R   0.319830 0.500020 0.632250 -0.520016
O6    O     O_R   0.680170 0.499980 0.367750 -0.533507
O7    O     O_R   0.549160 0.499990 0.632240 -0.633175
O8    O     O_R   0.450840 0.500010 0.367760 -0.631161
Zn1   Zn    Zn3+2 0.346870 0.500020 0.500000 0.998827
Zn2   Zn    Zn3+2 0.653130 0.499980 0.500000 0.985228
S1    S     S_3+6 0.911404 0.565496 0.202578 0.023883
O9    O     O_2   0.971323 0.478809 0.259266 -0.348730
O10   O     O_2   0.030318 0.608389 0.118144 -0.271153
O11   O     O_3   0.838713 0.691387 0.267460 -0.546714
H15   H     H_    0.906702 0.714931 0.300788 0.377456
S2    S     S_3+6 0.079522 0.523498 0.797709 0.003235
O12   O     O_2   0.025671 0.441395 0.735040 -0.346244
O13   O     O_2   0.959400 0.553274 0.885105 -0.316861
O14   O     O_3   0.139204 0.659413 0.742882 -0.551966
H16   H     H_    0.053416 0.701722 0.737138 0.369966
C33   C     C_3   0.288705 0.230836 0.190249 -0.398840
C34   C     C_3   0.387716 0.125468 0.199464 -0.838966
H17   H     H_    0.404375 0.057723 0.140841 0.273953
H18   H     H_    0.492076 0.162826 0.199520 0.264272
H19   H     H_    0.339191 0.075269 0.266728 0.243517
H20   H     H_    0.272436 0.298706 0.248107 0.204081
H21   H     H_    0.181924 0.188162 0.202756 0.213551
C35   C     C_3   0.727138 0.247687 0.803300 -0.372032
C36   C     C_3   0.650049 0.124373 0.801589 -0.859669
H22   H     H_    0.659069 0.061623 0.858341 0.271976
H23   H     H_    0.535950 0.141051 0.810520 0.267975
H24   H     H_    0.698767 0.077104 0.733015 0.244866
H25   H     H_    0.718255 0.308619 0.746139 0.217622
H26   H     H_    0.842492 0.225830 0.784640 0.227866

loop_
_geom_bond_atom_site_label_1
_geom_bond_atom_site_label_2
_ccdc_geom_bond_type
C10   H10   S    
C15   N1    A    
C16   N2    A    
C36   H22   S    
C3    C33   S    
C24   S1    S    
C27   C29   A    
C22   H6    S    
O1    Zn1   S    
O8    Zn1   S    
C2    O2    A    
C20   C24   A    
C5    H1    S    
C34   H17   S    
C14   C16   A    
C17   O7    A    
C18   O8    A    
S1    O9    D    
C3    C32   A    
C1    C12   S    
C2    C11   S    
C10   C12   A    
C5    C29   A    
C36   H23   S    
C7    C12   A    
S1    O10   D    
C27   C31   A    
O14   H16   S    
O2    Zn2   S    
S2    O14   S    
C28   C32   A    
C35   C36   S    
C4    C6    A    
C35   H26   S    
O5    Zn1   S    
C21   C29   A    
C6    H2    S    
S2    O13   D    
C19   C23   A    
O11   H15   S    
N1    Zn1   S    
C9    C11   A    
C31   C32   A    
C34   H19   S    
C33   H20   S    
O3    Zn2   S    
C1    O3    A    
C2    O4    A    
C23   S2    S    
C6    C30   A    
C13   C15   A    
C22   C24   A    
C15   H13   S    
C16   H14   S    
C17   O5    A    
C13   H11   S    
C14   H12   S    
O6    Zn2   S    
C36   H24   S    
C7    C9    A    
S1    O11   S    
C22   C30   A    
C9    H9    S    
C3    C5    A    
C35   H25   S    
C13   N2    A    
N2    Zn2   S    
C14   N1    A    
C25   C27   A    
C26   C28   A    
S2    O12   D    
C21   C23   A    
C20   C26   A    
C8    C11   A    
C28   C30   A    
C17   C19   S    
C33   H21   S    
C18   C20   S    
C33   C34   S    
C19   C25   A    
C4    C35   S    
C4    C31   A    
O4    Zn1   S    
C18   O6    A    
C25   H4    S    
C26   H3    S    
C21   H5    S    
C8    C10   A    
O7    Zn2   S    
C7    H7    S    
C34   H18   S    
C8    H8    S    
C1    O1    A    
