data_mof_unit_48277.cif
_audit_creation_date              2012-12-10T17:12:44-0500
_audit_creation_method            fapswitch 2.2
_symmetry_space_group_name_H-M    P1
_symmetry_Int_Tables_number       1
_space_group_crystal_system       triclinic
_cell_length_a                    23.427545
_cell_length_b                    10.662065
_cell_length_c                    10.039059
_cell_angle_alpha                 90.306413
_cell_angle_beta                  89.88036
_cell_angle_gamma                 90.062179
_cell_volume                      2507.57369518

loop_
_atom_site_label
_atom_site_type_symbol
_atom_type_description
_atom_site_fract_x
_atom_site_fract_y
_atom_site_fract_z
_atom_type_partial_charge
C1    C     C_R   0.502597 0.262367 0.499045 0.799952
C2    C     C_R   0.119465 0.602597 0.534923 0.503769
C3    C     C_R   0.237895 0.498390 0.622072 -0.100070
C4    C     C_R   0.389361 0.499488 0.500170 0.868188
C5    C     C_R   0.297129 0.499868 0.621866 -0.219083
C6    C     C_R   0.327095 0.498021 0.500565 -0.040400
C7    C     C_R   0.297067 0.494292 0.379689 -0.216778
C8    C     C_R   0.237831 0.492707 0.380301 -0.101710
C9    C     C_R   0.208357 0.494909 0.501386 0.321335
C10   C     C_R   0.762230 0.494504 0.378956 -0.099709
C11   C     C_R   0.702989 0.496006 0.378698 -0.207445
C12   C     C_R   0.970206 0.275254 0.433032 -0.157725
C13   C     C_R   0.672883 0.498248 0.499793 -0.040815
C14   C     C_R   0.702756 0.498682 0.620933 -0.219956
C15   C     C_R   0.761980 0.497344 0.620777 -0.099274
C16   C     C_R   0.496286 0.737178 0.500701 0.929018
C17   C     C_R   0.791601 0.495359 0.499901 0.321167
C18   C     C_2   0.476347 0.933839 0.394713 -0.124065
C19   C     C_2   0.484851 0.867949 0.505037 -0.253485
C20   C     C_2   0.473645 0.068687 0.407236 -0.243419
C21   C     C_2   0.508538 0.128682 0.492300 0.324403
C22   C     C_2   0.526852 0.582386 0.927485 -0.149784
C23   C     C_R   0.029627 0.275135 0.433461 -0.158160
C24   C     C_2   0.534007 0.569662 0.075784 -0.149921
C25   C     C_R   0.610631 0.499677 0.499877 0.879361
C26   C     C_R   0.880527 0.603004 0.533490 0.504099
C27   C     C_R   0.880444 0.387159 0.466889 0.503655
C28   C     C_R   0.940043 0.384696 0.466502 -0.015736
C29   C     C_R   0.969987 0.494863 0.500855 -0.021348
C30   C     C_R   0.940110 0.605172 0.534749 -0.015695
C31   C     C_3   0.570698 0.106825 0.670802 0.091822
C32   C     C_3   0.612134 0.013300 0.730938 -0.804527
C33   C     C_R   0.492326 0.375966 0.897925 0.288816
C34   C     C_R   0.059843 0.384461 0.467348 -0.015220
C35   C     C_R   0.437874 0.321645 0.889951 -0.169784
C36   C     C_R   0.428466 0.200389 0.937796 -0.182648
C37   C     C_R   0.473431 0.132238 0.993087 -0.124068
C38   C     C_R   0.528173 0.184206 0.998105 -0.164609
C39   C     C_R   0.537999 0.304499 0.948116 -0.184215
C40   C     C_R   0.029951 0.494745 0.501275 -0.021423
C41   C     C_R   0.059881 0.604943 0.535550 -0.015513
C42   C     C_R   0.029726 0.714372 0.569075 -0.157988
C43   C     C_R   0.970317 0.714484 0.568683 -0.157768
C44   C     C_R   0.119442 0.386723 0.468434 0.503088
H1    H     H_    0.948048 0.189519 0.406439 0.194814
H2    H     H_    0.051745 0.189315 0.407167 0.194533
H3    H     H_    0.462671 0.473467 0.106038 0.184302
H4    H     H_    0.051879 0.800122 0.595635 0.194599
H5    H     H_    0.948203 0.800312 0.594967 0.194670
H6    H     H_    0.214846 0.499946 0.715689 0.139455
H7    H     H_    0.319315 0.502620 0.716369 0.155588
H8    H     H_    0.319214 0.492629 0.284894 0.161250
H9    H     H_    0.214729 0.490292 0.286992 0.139876
H10   H     H_    0.785409 0.493212 0.285513 0.139609
H11   H     H_    0.531848 0.109057 0.734720 0.163735
H12   H     H_    0.680898 0.495497 0.284030 0.160617
H13   H     H_    0.591680 0.200465 0.669672 0.168797
H14   H     H_    0.651601 0.008196 0.669671 0.276740
H15   H     H_    0.623619 0.043215 0.833547 0.205057
H16   H     H_    0.592129 0.918865 0.734984 0.248651
H17   H     H_    0.402553 0.374374 0.849419 0.139692
H18   H     H_    0.386192 0.159616 0.932952 0.150504
H19   H     H_    0.465964 0.038812 0.031064 0.134949
H20   H     H_    0.563093 0.130786 0.039472 0.150957
H21   H     H_    0.580740 0.343127 0.951003 0.134786
H22   H     H_    0.680499 0.500169 0.715600 0.159957
H23   H     H_    0.784962 0.497823 0.714268 0.139394
H24   H     H_    0.472203 0.890308 0.297112 0.161640
H25   H     H_    0.483514 0.912237 0.602935 0.164867
H26   H     H_    0.441720 0.118277 0.349253 0.136571
H27   H     H_    0.545310 0.664583 0.880920 0.155446
H28   H     H_    0.567829 0.622306 0.124126 0.164538
N1    N     N_R   0.852286 0.495147 0.500024 -0.360582
N2    N     N_R   0.147661 0.494658 0.501741 -0.360210
N3    N     N_2   0.500610 0.501330 0.852150 -0.139535
N4    N     N_2   0.500630 0.501360 0.147810 -0.185112
O1    O     O_R   0.499990 0.319060 0.613040 -0.640100
O2    O     O_R   0.583840 0.500020 0.613040 -0.626015
O3    O     O_R   0.583850 0.500060 0.386900 -0.610611
O4    O     O_2   0.850886 0.707670 0.564630 -0.549094
O5    O     O_3   0.557237 0.068344 0.540044 -0.606012
O6    O     O_2   0.850716 0.282674 0.435294 -0.548554
O7    O     O_2   0.149109 0.282111 0.437250 -0.551469
O8    O     O_2   0.149151 0.707218 0.566251 -0.550532
O9    O     O_R   0.500010 0.319100 0.386900 -0.602824
O10   O     O_R   0.416150 0.499940 0.613100 -0.625518
O11   O     O_R   0.416160 0.499980 0.386960 -0.623456
O12   O     O_R   0.499990 0.680900 0.613100 -0.623201
O13   O     O_R   0.500010 0.680940 0.386960 -0.610054
Zn1   Zn    Zn3+2 0.499990 0.499970 0.650990 0.935292
Zn2   Zn    Zn3+2 0.500010 0.500030 0.349010 0.955658

loop_
_geom_bond_atom_site_label_1
_geom_bond_atom_site_label_2
_ccdc_geom_bond_type
C1    C21   S    
O11   Zn2   S    
C1    O1    A    
C41   C42   A    
C2    O8    S    
C35   C36   A    
C32   H14   S    
C44   O7    S    
C20   H26   S    
O9    Zn2   S    
C7    C8    A    
C4    O11   A    
O2    Zn1   S    
C12   C23   A    
C33   C39   A    
C12   C28   A    
C34   C40   A    
C36   C37   A    
C37   C38   A    
C7    H8    S    
C38   C39   A    
C4    O10   A    
C2    C41   A    
C18   H24   S    
C26   N1    A    
C18   C19   D    
N3    Zn1   S    
C33   N3    S    
C8    C9    A    
O13   Zn2   S    
O3    Zn2   S    
C2    N2    A    
C16   O13   A    
C23   H2    S    
C13   C14   A    
C17   N1    S    
C39   H21   S    
C13   C25   S    
C22   N3    D    
C36   H18   S    
C37   H19   S    
C3    H6    S    
C38   H20   S    
C1    O9    A    
O1    Zn1   S    
C25   O2    A    
C34   C44   A    
C4    C6    S    
O10   Zn1   S    
C43   H5    S    
C26   O4    S    
C29   C30   A    
C3    C9    A    
C31   C32   S    
C23   C34   A    
C15   H23   S    
C14   H22   S    
C35   H17   S    
C42   H4    S    
C44   N2    A    
C40   C41   A    
C21   O5    S    
C26   C30   A    
C22   C24   S    
C30   C43   A    
C19   H25   S    
C42   C43   A    
C32   H16   S    
C22   H27   S    
C24   H28   S    
C15   C17   A    
C28   C29   A    
C25   O3    A    
C27   O6    S    
C24   N4    D    
O12   Zn1   S    
C12   H1    S    
C3    C5    A    
C8    H9    S    
H3    N4    S    
C6    C7    A    
C31   O5    S    
C31   H13   S    
C11   C13   A    
C5    C6    A    
C16   C19   S    
C29   C40   A    
C33   C35   A    
C18   C20   S    
C10   H10   S    
C10   C11   A    
N4    Zn2   S    
C20   C21   D    
C9    N2    S    
C27   C28   A    
C16   O12   A    
C14   C15   A    
C5    H7    S    
C10   C17   A    
C32   H15   S    
C31   H11   S    
C27   N1    A    
C11   H12   S    
