data_mof_unit_45717.cif
_audit_creation_date              2012-12-11T18:06:56-0500
_audit_creation_method            fapswitch 2.2
_symmetry_space_group_name_H-M    P1
_symmetry_Int_Tables_number       1
_space_group_crystal_system       triclinic
_cell_length_a                    8.273127
_cell_length_b                    12.703482
_cell_length_c                    26.949761
_cell_angle_alpha                 96.905611
_cell_angle_beta                  92.662829
_cell_angle_gamma                 81.635077
_cell_volume                      2780.68265404

loop_
_atom_site_label
_atom_site_type_symbol
_atom_type_description
_atom_site_fract_x
_atom_site_fract_y
_atom_site_fract_z
_atom_type_partial_charge
Ba1   Ba    Ba6+2 0.859560 0.448380 0.523550 1.739970
Ba2   Ba    Ba6+2 0.330270 0.551530 0.476440 1.706398
C1    C     C_3   0.622037 0.086125 0.664669 -0.391631
C2    C     C_3   0.650656 0.184491 0.641124 0.307262
C3    C     C_3   0.479629 0.718001 0.628724 0.286197
C4    C     C_3   0.436795 0.761866 0.682289 -0.379473
C5    C     C_3   0.062813 0.791226 0.338447 0.156632
C6    C     C_3   0.119905 0.824317 0.289591 -0.188410
C7    C     C_3   0.504946 0.824261 0.364981 0.344379
C8    C     C_3   0.530440 0.930460 0.347671 -0.340735
C9    C     C_R   0.038803 0.414522 0.179467 0.585211
C10   C     C_R   0.873881 0.585203 0.176904 0.608503
C11   C     C_2   0.736125 0.520774 0.269902 -0.017557
C12   C     C_3   0.160895 0.219453 0.660417 0.291139
C13   C     C_3   0.693248 0.516573 0.323874 -0.054888
C14   C     C_1   0.983920 0.477051 0.342956 0.024742
C15   C     C_2   0.024607 0.476756 0.295637 -0.108283
C16   C     C_2   0.894489 0.500317 0.255730 0.218507
C17   C     C_R   0.017503 0.499636 0.101980 -0.077844
C18   C     C_R   0.080793 0.413514 0.128873 -0.032508
C19   C     C_R   0.184354 0.327637 0.104560 -0.054962
C20   C     C_R   0.913359 0.585893 0.126372 -0.051143
C21   C     C_2   0.839766 0.522690 0.358810 -0.280279
C22   C     C_2   0.348639 0.474399 0.641165 0.331953
C23   C     C_3   0.134343 0.194202 0.712878 -0.350674
C24   C     C_R   0.199249 0.409976 0.974837 0.019851
C25   C     C_R   0.034640 0.587865 0.973230 0.020407
C26   C     C_R   0.136507 0.498773 0.948653 0.051066
C27   C     C_R   0.297826 0.322773 0.948206 -0.098601
C28   C     C_R   0.334650 0.323240 0.898277 -0.059825
C29   C     C_R   0.275475 0.410571 0.872204 -0.033957
C30   C     C_R   0.176172 0.498539 0.897292 -0.077370
C31   C     C_R   0.116843 0.586402 0.871029 -0.036639
C32   C     C_R   0.158273 0.585695 0.820499 0.595148
C33   C     C_R   0.313429 0.411276 0.821467 0.580905
C34   C     C_3   0.214756 0.222542 0.417532 0.274769
C35   C     C_2   0.454633 0.479511 0.729430 -0.126676
C36   C     C_3   0.496129 0.485542 0.675502 -0.122408
C37   C     C_1   0.205363 0.521925 0.656762 -0.018135
C38   C     C_2   0.165652 0.523297 0.704203 -0.193343
C39   C     C_2   0.296529 0.499040 0.743713 0.205468
C40   C     C_R   0.161402 0.410925 0.026312 0.019033
C41   C     C_R   0.057646 0.499364 0.050653 0.052878
C42   C     C_R   0.993228 0.587500 0.024249 0.018867
C43   C     C_R   0.223914 0.326240 0.054703 -0.099299
C44   C     C_R   0.849914 0.671586 0.099771 -0.040576
C45   C     C_3   0.199063 0.104274 0.408241 -0.339166
C46   C     C_R   0.977940 0.674803 0.945604 -0.098030
C47   C     C_R   0.018171 0.673903 0.895911 -0.061586
C48   C     C_R   0.888466 0.672532 0.050099 -0.096885
C49   C     C_R   0.759352 0.821318 0.482392 -0.235996
C50   C     C_R   0.431116 0.188929 0.519714 -0.278957
C51   C     C_R   0.409977 0.010528 0.537906 -0.105747
C52   C     C_R   0.346076 0.118118 0.539876 -0.007788
C53   C     C_R   0.575857 0.152722 0.494553 0.051345
C54   C     C_R   0.639387 0.041651 0.490031 -0.056672
C55   C     C_R   0.555438 0.970311 0.512621 -0.066574
C56   C     C_3   0.962339 0.779786 0.586736 0.858746
C57   C     C_R   0.617685 0.860086 0.508296 -0.004230
C58   C     C_R   0.846974 0.890393 0.462523 0.046852
C59   C     C_R   0.784340 0.999203 0.464304 -0.098176
C60   C     C_3   0.944309 0.899945 0.601872 -0.269011
C61   C     C_3   0.714302 0.294547 0.373488 0.288789
C62   C     C_3   0.755855 0.246847 0.320266 -0.350295
H1    H     H_    0.757856 0.162765 0.616638 0.071017
H2    H     H_    0.243187 0.070878 0.370645 0.119808
H3    H     H_    0.270830 0.060150 0.436863 0.080773
H4    H     H_    0.068949 0.093728 0.409468 0.130074
H5    H     H_    0.840580 0.754227 0.581175 -0.075737
H6    H     H_    0.886779 0.919153 0.638765 0.049545
H7    H     H_    0.867635 0.943478 0.573965 0.055226
H8    H     H_    0.066574 0.926877 0.604778 0.136965
H9    H     H_    0.825383 0.320999 0.392429 0.027737
H10   H     H_    0.615325 0.363390 0.372762 0.029541
H11   H     H_    0.600962 0.020585 0.634996 0.086877
H12   H     H_    0.847451 0.173913 0.321055 0.137873
H13   H     H_    0.808310 0.304473 0.300264 0.068883
H14   H     H_    0.644064 0.225078 0.299526 0.129322
H15   H     H_    0.539815 0.210051 0.618405 0.023195
H16   H     H_    0.513455 0.105286 0.688492 0.135634
H17   H     H_    0.369719 0.689453 0.609659 0.046658
H18   H     H_    0.580963 0.650329 0.628952 0.018089
H19   H     H_    0.341037 0.832949 0.682404 0.143675
H20   H     H_    0.389266 0.700695 0.701367 0.066210
H21   H     H_    0.547042 0.785611 0.703263 0.124555
H22   H     H_    0.729875 0.059187 0.688374 0.137282
H23   H     H_    0.160433 0.262077 0.740521 0.122029
H24   H     H_    0.149931 0.722246 0.348252 0.082631
H25   H     H_    0.114792 0.758071 0.258763 0.121438
H26   H     H_    0.248548 0.837947 0.294136 0.075894
H27   H     H_    0.600084 0.806041 0.394090 -0.029416
H28   H     H_    0.383288 0.833905 0.381884 0.067367
H29   H     H_    0.652795 0.925147 0.331853 0.157991
H30   H     H_    0.522469 0.993555 0.380069 0.054057
H31   H     H_    0.083105 0.295932 0.654860 0.102554
H32   H     H_    0.436943 0.954242 0.318775 0.118762
H33   H     H_    0.151771 0.459072 0.285543 0.134380
H34   H     H_    0.235969 0.260286 0.124141 0.128308
H35   H     H_    0.553173 0.466486 0.757017 0.120610
H36   H     H_    0.410738 0.254036 0.880052 0.122744
H37   H     H_    0.348513 0.251665 0.964654 0.070203
H38   H     H_    0.305225 0.257000 0.039707 0.072066
H39   H     H_    0.637754 0.533343 0.242237 0.098373
H40   H     H_    0.768966 0.739149 0.117368 0.140591
H41   H     H_    0.902452 0.746136 0.961235 0.070751
H42   H     H_    0.290887 0.229213 0.657259 0.005478
H43   H     H_    0.970963 0.742970 0.876910 0.122262
H44   H     H_    0.039143 0.543278 0.714786 0.148345
H45   H     H_    0.832192 0.741647 0.033061 0.072362
H46   H     H_    0.824618 0.558728 0.397264 0.070782
H47   H     H_    0.341560 0.959282 0.555134 0.115476
H48   H     H_    0.850993 0.048972 0.445904 0.103678
H49   H     H_    0.806145 0.736773 0.479671 0.094232
H50   H     H_    0.379094 0.272256 0.521010 0.138435
H51   H     H_    0.005450 0.181706 0.716418 0.147001
H52   H     H_    0.216612 0.120658 0.720926 0.122202
H53   H     H_    0.345329 0.232093 0.421371 0.009622
H54   H     H_    0.150969 0.255835 0.452570 0.058353
N1    N     N_R   0.936772 0.500236 0.203350 -0.432800
N2    N     N_R   0.255139 0.498445 0.795966 -0.417825
O1    O     O_2   0.907040 0.557650 0.617910 -0.492141
O2    O     O_3   0.659878 0.215652 0.397468 -0.644973
O3    O     O_3   0.117985 0.135843 0.625667 -0.618411
O4    O     O_2   0.282660 0.442310 0.382060 -0.466739
O5    O     O_3   0.050670 0.442340 0.442260 -0.490033
O6    O     O_3   0.504750 0.639360 0.411530 -0.492015
O7    O     O_3   0.146816 0.270742 0.375993 -0.628860
O8    O     O_3   0.618400 0.630290 0.524520 -0.475803
O9    O     O_3   0.090070 0.694820 0.435810 -0.451165
O10   O     O_2   0.181812 0.885813 0.467935 -0.456707
O11   O     O_3   0.063925 0.877004 0.376700 -0.676689
O12   O     O_3   0.139040 0.557570 0.557730 -0.377555
O13   O     O_3   0.571310 0.369620 0.475470 -0.468924
O14   O     O_2   0.348200 0.764910 0.523260 -0.383020
O15   O     O_3   0.529601 0.800085 0.605511 -0.658902
O16   O     O_2   0.356652 0.580423 0.325627 -0.518893
O17   O     O_3   0.515614 0.742958 0.324234 -0.555805
O18   O     O_2   0.091193 0.337971 0.201895 -0.591772
O19   O     O_2   0.397550 0.333661 0.799925 -0.597391
O20   O     O_2   0.783662 0.661037 0.197337 -0.515866
O21   O     O_2   0.109838 0.663727 0.798623 -0.598419
O22   O     O_3   0.684960 0.360550 0.588460 -0.431655
O23   O     O_2   0.836159 0.425215 0.673491 -0.511929
O24   O     O_3   0.047578 0.729121 0.625165 -0.677940
O25   O     O_3   0.680897 0.265295 0.679256 -0.585233
O26   O     O_2   0.841490 0.235060 0.476710 -0.481686
O27   O     O_3   0.099640 0.305100 0.564190 -0.440784
O28   O     O_2   0.010916 0.115285 0.533121 -0.488424
P1    P     P_3+3 0.072810 0.589830 0.610360 1.077953
P2    P     P_3+3 0.661990 0.251250 0.462170 0.976722
P3    P     P_3+3 0.143902 0.167214 0.565331 0.968811
P4    P     P_3+3 0.116900 0.410080 0.389630 0.995609
P5    P     P_3+3 0.046884 0.835359 0.435999 0.991607
P6    P     P_3+3 0.674281 0.386388 0.653730 1.035224
P7    P     P_3+3 0.531493 0.764209 0.540834 0.962659
P8    P     P_3+3 0.518495 0.618075 0.346403 0.978788
F1    F     F_    0.046985 0.756611 0.543021 -0.702293
C63   C     C_2   0.896674 0.756283 0.331654 0.504744
H55   H     H_    0.842819 0.730754 0.363028 -0.123101
O29   O     O_2   0.822247 0.754939 0.291520 -0.514438
C64   C     C_2   0.021317 0.925903 0.275442 0.587326
H56   H     H_    0.020715 0.999803 0.300250 -0.011123
O30   O     O_2   0.942805 0.926193 0.235966 -0.527861
F2    F     F_    0.359177 0.406745 0.598077 -0.735720

loop_
_geom_bond_atom_site_label_1
_geom_bond_atom_site_label_2
_ccdc_geom_bond_type
C25   C46   A    
C56   C60   S    
C53   C54   A    
C32   O21   D    
C19   H34   S    
C10   C20   A    
C62   H13   S    
C45   H4    S    
C17   C18   A    
O28   P3    D    
Ba1   O12   S    
C9    N1    Am   
C7    H27   S    
C64   H56   S    
Ba1   O26   S    
C5    C6    S    
C47   H43   S    
C5    C63   S    
C51   C52   A    
C26   C30   A    
Ba2   O14   S    
C4    H21   S    
C11   C16   D    
O2    P2    S    
C9    O18   D    
Ba1   O5    S    
C6    C64   S    
C23   H51   S    
C28   C29   A    
O16   P8    D    
C55   C57   A    
C8    H30   S    
C31   C47   A    
C28   H36   S    
C23   H23   S    
C22   C37   D    
O15   P7    S    
C54   C55   A    
C60   H6    S    
C34   C45   S    
Ba1   Ba2   S    
C5    H24   S    
C58   P5    S    
Ba1   O22   S    
O8    P7    S    
C33   O19   D    
O26   P2    D    
C7    O17   S    
C25   C42   A    
O14   P7    D    
C17   C41   A    
C14   C15   D    
Ba2   O12   S    
C10   O20   D    
Ba1   P1    S    
C12   O3    S    
C11   H39   S    
C1    H11   S    
C7    C8    S    
C45   H2    S    
C5    O11   S    
C50   C53   A    
C38   H44   S    
C51   H47   S    
C13   C21   S    
O4    P4    D    
C39   N2    S    
C1    H22   S    
C63   O29   D    
O12   P1    S    
C33   N2    Am   
C22   F2    S    
Ba1   O13   S    
C1    H16   S    
C7    H28   S    
C45   H3    S    
C64   O30   D    
C50   C52   A    
C31   C32   A    
C19   C43   A    
Ba2   P4    S    
O3    P3    S    
C9    C18   A    
Ba2   O13   S    
C4    H20   S    
C27   H37   S    
O11   P5    S    
C17   C20   A    
C2    H15   S    
C23   H52   S    
C37   C38   D    
C51   C55   A    
O23   P6    D    
C61   H9    S    
C8    H29   S    
C44   H40   S    
C48   H45   S    
O17   P8    S    
C58   C59   A    
C40   C43   A    
C35   C36   S    
O27   P3    S    
C41   C42   A    
C27   C28   A    
O5    P4    S    
O7    P4    S    
C10   N1    Am   
C3    H17   S    
C22   C36   S    
C46   H41   S    
C8    H32   S    
C15   C16   S    
C62   H12   S    
C60   H8    S    
Ba1   P2    S    
C14   P4    S    
C49   H49   S    
O22   P6    S    
C34   H53   S    
C13   P8    S    
C24   C27   A    
O25   P6    S    
Ba2   O6    S    
Ba1   O8    S    
C46   C47   A    
C20   C44   A    
C14   C21   D    
Ba2   O4    S    
C11   C13   S    
C63   H55   S    
C29   C33   A    
Ba1   O27   S    
C34   O7    S    
C49   C57   A    
C40   C41   A    
C36   P6    S    
C1    C2    S    
C12   H31   S    
C35   H35   S    
C61   O2    S    
C34   H54   S    
C24   C40   A    
C53   P2    S    
C42   C48   A    
C3    O15   S    
C21   H46   S    
C44   C48   A    
C38   C39   S    
C57   P7    S    
C4    H19   S    
O24   P1    S    
C62   H14   S    
C29   C30   A    
O13   P2    S    
C56   F1    S    
C56   H5    S    
C52   P3    S    
C6    H25   S    
C61   H10   S    
C50   H50   S    
C37   P1    S    
C24   C26   A    
C30   C31   A    
O9    P5    S    
C3    H18   S    
C3    C4    S    
C2    O25   S    
C2    H1    S    
O1    P1    D    
C60   H7    S    
O10   P5    D    
C12   C23   S    
C35   C39   D    
Ba1   O1    S    
C43   H38   S    
C61   C62   S    
Ba2   O5    S    
C56   O24   S    
C12   H42   S    
C6    H26   S    
C18   C19   A    
C32   N2    Am   
Ba2   O9    S    
C54   C59   A    
C49   C58   A    
C59   H48   S    
C15   H33   S    
C16   N1    S    
O6    P8    S    
C25   C26   A    
Ba2   O8    S    
