data_mof_unit_23128.cif
_audit_creation_date              2012-12-10T17:19:24-0500
_audit_creation_method            fapswitch 2.2
_symmetry_space_group_name_H-M    P1
_symmetry_Int_Tables_number       1
_space_group_crystal_system       triclinic
_cell_length_a                    15.063046
_cell_length_b                    10.854228
_cell_length_c                    9.575523
_cell_angle_alpha                 90.019755
_cell_angle_beta                  90.03037
_cell_angle_gamma                 92.706099
_cell_volume                      1563.83015666

loop_
_atom_site_label
_atom_site_type_symbol
_atom_type_description
_atom_site_fract_x
_atom_site_fract_y
_atom_site_fract_z
_atom_type_partial_charge
C1    C     C_R   0.506150 0.262762 0.501155 0.792861
C2    C     C_R   0.907702 0.553787 0.392775 0.081711
C3    C     C_R   0.951521 0.333755 0.678825 -0.244070
C4    C     C_R   0.044159 0.336268 0.679510 0.236741
C5    C     C_R   0.092422 0.414511 0.586316 0.103239
C6    C     C_R   0.046957 0.486579 0.488717 -0.031527
C7    C     C_R   0.094788 0.561401 0.389365 0.026696
C8    C     C_R   0.046675 0.616733 0.280329 0.184273
C9    C     C_R   0.954286 0.616625 0.286748 -0.214446
C10   C     C_R   0.185072 0.419730 0.586145 -0.239884
C11   C     C_R   0.232321 0.500669 0.497427 -0.139554
C12   C     C_R   0.328973 0.501194 0.499747 0.857195
C13   C     C_R   0.187965 0.577192 0.404380 0.117543
C14   C     C_R   0.535583 0.116974 0.765464 -0.137366
C15   C     C_R   0.515772 0.056201 0.890553 -0.141580
C16   C     C_R   0.471793 0.941018 0.888269 -0.122003
C17   C     C_R   0.455756 0.881611 0.761147 -0.132191
C18   C     C_R   0.484591 0.936742 0.633575 0.101667
C19   C     C_R   0.511467 0.062735 0.634983 0.102589
C20   C     C_R   0.512191 0.128506 0.506080 -0.122532
C21   C     C_R   0.506846 0.063667 0.379769 -0.192095
C22   C     C_R   0.499040 0.936430 0.379406 -0.181923
C23   C     C_R   0.494118 0.737228 0.500905 0.805926
C24   C     C_R   0.488519 0.871428 0.504991 -0.090443
C25   C     C_R   0.615489 0.668023 0.144299 -0.192634
C26   C     C_R   0.670023 0.752625 0.072066 -0.252459
C27   C     C_R   0.669505 0.753366 0.928077 0.174742
C28   C     C_R   0.614745 0.668879 0.855914 -0.185737
C29   C     C_R   0.556138 0.583392 0.925283 0.142051
C30   C     C_R   0.556392 0.583062 0.074901 0.163977
C31   C     C_R   0.446433 0.420092 0.073709 0.334249
C32   C     C_R   0.447615 0.419573 0.925187 -0.119668
C33   C     C_R   0.671020 0.496404 0.500131 0.788304
C34   C     C_R   0.815529 0.555396 0.397544 -0.254590
C35   C     C_R   0.767543 0.488752 0.499594 -0.117509
C36   C     C_R   0.811889 0.414569 0.596438 0.218028
C37   C     C_R   0.905295 0.410996 0.590057 0.057665
C38   C     C_R   0.953324 0.484054 0.490875 0.022834
Cu1   Cu    Cu3+1 0.499990 0.499990 0.640660 0.929478
Cu2   Cu    Cu3+1 0.500010 0.500010 0.359340 0.970299
H1    H     H_    0.780824 0.610136 0.322141 0.155436
H2    H     H_    0.572334 0.204350 0.773692 0.160690
H3    H     H_    0.532746 0.099895 0.989303 0.124951
H4    H     H_    0.452033 0.896210 0.985145 0.149810
H5    H     H_    0.418662 0.794114 0.764901 0.176204
H6    H     H_    0.500565 0.889029 0.279887 0.171484
H7    H     H_    0.623172 0.673059 0.254253 0.209003
H8    H     H_    0.713669 0.817067 0.128821 0.176338
H9    H     H_    0.622422 0.673157 0.746046 0.220295
H10   H     H_    0.405335 0.353590 0.868387 0.153827
H11   H     H_    0.916394 0.271554 0.750344 0.194408
H12   H     H_    0.221344 0.361965 0.656350 0.185462
H13   H     H_    0.918254 0.661169 0.204323 0.173640
H14   H     H_    0.509475 0.111220 0.280318 0.154843
N1    N     N_R   0.500860 0.501210 0.147910 -0.203386
N2    N     N_R   0.500890 0.501290 0.852040 -0.209072
O1    O     O_R   0.499990 0.319640 0.618810 -0.601967
O2    O     O_R   0.500000 0.319660 0.381240 -0.559631
O3    O     O_R   0.370250 0.499960 0.618800 -0.579496
O4    O     O_R   0.370260 0.499980 0.381230 -0.531882
O5    O     O_R   0.500000 0.680340 0.618760 -0.611715
O6    O     O_R   0.500010 0.680360 0.381190 -0.590994
O7    O     O_R   0.629740 0.500020 0.618770 -0.598841
O8    O     O_R   0.629750 0.500040 0.381200 -0.602601
N3    N     N_2   0.389739 0.333979 0.146139 -0.378624
H15   H     H_    0.405192 0.244023 0.126657 0.226397
C39   C     C_3   0.295987 0.351908 0.127406 -0.647322
H16   H     H_    0.257009 0.289846 0.199053 0.230731
H17   H     H_    0.276304 0.329977 0.018286 0.200461
H18   H     H_    0.280324 0.448719 0.151109 0.266891
I1    I     I_    0.752836 0.881359 0.817800 -0.395037
N4    N     N_2   0.763284 0.337805 0.693687 -0.432977
H19   H     H_    0.703340 0.300612 0.657785 0.253010
C40   C     C_3   0.759415 0.385756 0.834673 -0.625176
H20   H     H_    0.724563 0.473236 0.836489 0.244424
H21   H     H_    0.827131 0.403299 0.878175 0.228768
H22   H     H_    0.722994 0.317695 0.902665 0.217462
N5    N     N_2   0.088055 0.259765 0.775423 -0.441344
H23   H     H_    0.060739 0.170814 0.778209 0.272897
C41   C     C_3   0.096717 0.312139 0.913865 -0.664240
H24   H     H_    0.030198 0.328522 0.958634 0.236037
H25   H     H_    0.136870 0.400604 0.910069 0.257115
H26   H     H_    0.130240 0.246852 0.983146 0.231327
I2    I     I_    0.260137 0.741236 0.334270 -0.334621
I3    I     I_    0.099146 0.667878 0.080729 -0.362836

loop_
_geom_bond_atom_site_label_1
_geom_bond_atom_site_label_2
_ccdc_geom_bond_type
Cu2   O4    S    
C35   C36   A    
C10   H12   S    
C7    C8    A    
C13   I2    S    
C26   C27   A    
C29   C30   A    
C40   H21   S    
C18   C24   A    
C36   C37   A    
C17   H5    S    
C34   C35   A    
C5    C6    A    
N5    C41   S    
C16   C17   A    
C15   C16   A    
Cu1   O1    S    
Cu2   O6    S    
C8    I3    S    
C12   O3    A    
C23   O6    A    
C31   C32   A    
C8    C9    A    
N3    C39   S    
C40   H22   S    
C23   C24   S    
C6    C38   A    
C16   H4    S    
C26   H8    S    
C14   H2    S    
C2    C34   A    
C21   C22   A    
C34   H1    S    
C41   H26   S    
Cu1   O5    S    
Cu2   O2    S    
C40   H20   S    
C39   H16   S    
N4    H19   S    
N4    C40   S    
Cu1   Cu2   S    
C3    H11   S    
N5    H23   S    
C41   H24   S    
C25   C26   A    
C39   H17   S    
C4    N5    S    
C37   C38   A    
C1    O1    A    
C28   H9    S    
C2    C38   A    
Cu1   N2    S    
C7    C13   A    
C33   O7    A    
Cu2   N1    S    
Cu1   O3    S    
C17   C18   A    
C32   H10   S    
C41   H25   S    
C22   H6    S    
C22   C24   A    
C9    H13   S    
C3    C4    A    
C27   I1    S    
C25   C30   A    
C31   N3    S    
C25   H7    S    
C28   C29   A    
C1    C20   S    
C14   C19   A    
C4    C5    A    
C11   C12   S    
C6    C7    A    
C29   N2    A    
Cu1   O7    S    
C30   N1    A    
Cu2   O8    S    
C39   H18   S    
C19   C20   A    
C15   H3    S    
C5    C10   A    
C1    O2    A    
C11   C13   A    
C21   H14   S    
C33   O8    A    
C33   C35   S    
C10   C11   A    
C12   O4    A    
C23   O5    A    
C20   C21   A    
C3    C37   A    
N3    H15   S    
C27   C28   A    
C18   C19   A    
C14   C15   A    
C31   N1    A    
C2    C9    A    
C32   N2    A    
C36   N4    S    
