data_mof_unit_37184.cif
_audit_creation_date              2013-03-05T16:03:53-0500
_audit_creation_method            fapswitch 2.2
_symmetry_space_group_name_H-M    P1
_symmetry_Int_Tables_number       1
_space_group_crystal_system       triclinic
_cell_length_a                    11.053879
_cell_length_b                    10.798785
_cell_length_c                    9.56553
_cell_angle_alpha                 89.489528
_cell_angle_beta                  102.282216
_cell_angle_gamma                 90.874291
_cell_volume                      1115.53954433

loop_
_atom_site_label
_atom_site_type_symbol
_atom_site_description
_atom_site_fract_x
_atom_site_fract_y
_atom_site_fract_z
_atom_type_partial_charge
O1    O     O_R   0.499990 0.319660 0.618740 -0.515440
O2    O     O_R   0.500010 0.680340 0.381260 -0.515419
O3    O     O_R   0.499990 0.319630 0.381170 -0.604747
O4    O     O_R   0.500010 0.680370 0.618830 -0.604710
C1    C     C_R   0.503108 0.262479 0.501150 0.870473
C2    C     C_R   0.496900 0.737521 0.498851 0.870597
O5    O     O_R   0.320690 0.500020 0.575130 -0.557948
O6    O     O_R   0.679310 0.499980 0.424870 -0.557564
O7    O     O_R   0.320680 0.499990 0.337560 -0.568589
O8    O     O_R   0.679320 0.500010 0.662440 -0.568673
C3    C     C_R   0.263016 0.499874 0.442176 0.887608
C4    C     C_R   0.736984 0.500142 0.557823 0.887833
Cu1   Cu    Cu3+1 0.500000 0.500020 0.640660 1.058971
Cu2   Cu    Cu3+1 0.500000 0.499980 0.359340 1.059030
C5    C     C_R   0.438438 0.409998 0.061128 -0.112431
C6    C     C_R   0.561520 0.590023 0.938843 -0.112650
C7    C     C_R   0.437837 0.409475 0.912821 0.446058
C8    C     C_R   0.562059 0.590610 0.087128 0.445617
H1    H     H_    0.883901 0.487462 0.373722 0.212013
H2    H     H_    0.116094 0.512814 0.626243 0.212238
H3    H     H_    0.388553 0.338301 0.106153 0.177859
H4    H     H_    0.611342 0.661751 0.893784 0.177982
C9    C     C_2   0.128372 0.497933 0.409689 -0.267618
C10   C     C_2   0.871629 0.502133 0.590302 -0.267416
C11   C     C_2   0.067131 0.503415 0.515488 -0.099972
C12   C     C_2   0.932866 0.496779 0.484489 -0.100034
H5    H     H_    0.921010 0.509473 0.701146 0.169832
H6    H     H_    0.078994 0.490520 0.298850 0.169750
C13   C     C_R   0.433970 0.066906 0.383861 -0.243015
C14   C     C_R   0.566057 0.933093 0.616132 -0.242927
H7    H     H_    0.379733 0.119409 0.295918 0.196471
H8    H     H_    0.620293 0.880589 0.704074 0.196491
C15   C     C_R   0.425880 0.938344 0.381421 0.380722
C16   C     C_R   0.574154 0.061656 0.618567 0.380924
C17   C     C_R   0.494296 0.871423 0.498319 -0.184605
C18   C     C_R   0.505725 0.128577 0.501676 -0.184473
N1    N     N_R   0.500030 0.500030 0.852080 -0.248514
N2    N     N_R   0.499970 0.499970 0.147920 -0.248383
N3    N     N_R   0.371395 0.312178 0.828295 0.138510
O9    O     O_R   0.408883 0.198906 0.853135 -0.299220
O10   O     O_R   0.257802 0.330560 0.761300 -0.359369
N4    N     N_R   0.628042 0.688276 0.171456 0.138544
O11   O     O_R   0.741053 0.669925 0.240303 -0.358994
O12   O     O_R   0.591040 0.801525 0.145128 -0.299214
N5    N     N_R   0.343581 0.878349 0.263950 0.149989
O13   O     O_R   0.271349 0.787902 0.287813 -0.352285
O14   O     O_R   0.326482 0.926202 0.136006 -0.275574
N6    N     N_R   0.656469 0.121650 0.736025 0.150070
O15   O     O_R   0.728679 0.212113 0.712149 -0.352248
O16   O     O_R   0.673598 0.073792 0.863968 -0.275551

loop_
_geom_bond_atom_site_label_1
_geom_bond_atom_site_label_2
_geom_bond_distance
_ccdc_geom_bond_type
O5    C3    1.295723 A    
O7    Cu2   1.948527 S    
C5    N2    1.360082 A    
Cu1   Cu2   2.690979 S    
Cu2   N2    2.022275 S    
C15   N5    1.438768 S    
C4    C10   1.454157 S    
Cu1   N1    2.022275 S    
C10   H5    1.087378 S    
O5    Cu1   1.947545 S    
C6    N1    1.359936 A    
O6    C4    1.295717 A    
N6    O16   1.301486 A    
C8    N2    1.380731 A    
C13   H7    1.084355 S    
C7    N1    1.380495 A    
C9    H6    1.087379 S    
C14   H8    1.084355 S    
O7    C3    1.295779 A    
C13   C18   1.399871 A    
O2    C2    1.295051 A    
O3    Cu2   1.956874 S    
N4    O12   1.300879 A    
C14   C17   1.399871 A    
O1    C1    1.295065 A    
O8    C4    1.295788 A    
C6    C8    1.417234 A    
N6    O15   1.301296 A    
C15   C17   1.409622 A    
C10   C12   1.334067 D    
C16   C18   1.409624 A    
C8    N4    1.427008 S    
C7    N3    1.426886 S    
O2    Cu2   1.960774 S    
C16   N6    1.438770 S    
H2    C11   1.087159 S    
C14   C16   1.389926 A    
N3    O9    1.301068 A    
C1    C18   1.446658 S    
C13   C15   1.389921 A    
C5    H3    1.082163 S    
C9    C11   1.334054 D    
O1    Cu1   1.960774 S    
C2    C17   1.446648 S    
N3    O10   1.299898 A    
O4    C2    1.292456 A    
N4    O11   1.299513 A    
N5    O14   1.301485 A    
C3    C9    1.454150 S    
O4    Cu1   1.956873 S    
C5    C7    1.417301 A    
H1    C12   1.087175 S    
O6    Cu2   1.947544 S    
C11   C12   1.451093 S    
N5    O13   1.301294 A    
C6    H4    1.082159 S    
O3    C1    1.292446 A    
O8    Cu1   1.948526 S    
