data_mof_unit_40713.cif
_audit_creation_date              2012-12-10T19:00:42-0500
_audit_creation_method            fapswitch 2.2
_symmetry_space_group_name_H-M    P1
_symmetry_Int_Tables_number       1
_space_group_crystal_system       triclinic
_cell_length_a                    15.092663
_cell_length_b                    10.867061
_cell_length_c                    9.536088
_cell_angle_alpha                 90.046764
_cell_angle_beta                  89.951767
_cell_angle_gamma                 90.506498
_cell_volume                      1563.97916959

loop_
_atom_site_label
_atom_site_type_symbol
_atom_type_description
_atom_site_fract_x
_atom_site_fract_y
_atom_site_fract_z
_atom_type_partial_charge
C1    C     C_R   0.500329 0.262708 0.499796 0.801683
C2    C     C_R   0.907466 0.491892 0.371654 0.109553
C3    C     C_R   0.953815 0.491071 0.755587 -0.211685
C4    C     C_R   0.046205 0.492308 0.755672 -0.212143
C5    C     C_R   0.092974 0.493733 0.628567 0.108531
C6    C     C_R   0.046667 0.493264 0.500069 0.062666
C7    C     C_R   0.093131 0.494274 0.371596 0.108133
C8    C     C_R   0.046542 0.493382 0.244455 -0.211744
C9    C     C_R   0.954162 0.492092 0.244483 -0.210446
C10   C     C_R   0.185303 0.495805 0.627690 -0.249567
C11   C     C_R   0.231743 0.497395 0.500110 -0.074191
C12   C     C_R   0.328596 0.499352 0.500055 0.813605
C13   C     C_R   0.185442 0.496349 0.372517 -0.246992
C14   C     C_R   0.499179 0.062266 0.620999 0.102677
C15   C     C_R   0.501283 0.130178 0.498022 -0.124355
C16   C     C_R   0.504252 0.064534 0.370273 -0.206746
C17   C     C_R   0.504149 0.935412 0.370383 -0.211970
C18   C     C_R   0.500677 0.869964 0.498230 -0.093347
C19   C     C_R   0.498153 0.938094 0.621184 0.060888
C20   C     C_3   0.492980 0.928249 0.777071 -0.460195
C21   C     C_3   0.494714 0.070236 0.777550 0.072338
C22   C     C_R   0.538677 0.594781 0.073727 0.260201
C23   C     C_R   0.500095 0.737334 0.499871 0.811767
C24   C     C_R   0.453224 0.414355 0.074454 -0.084715
C25   C     C_R   0.452819 0.414789 0.925482 -0.108376
C26   C     C_R   0.539266 0.594225 0.926237 0.266096
C27   C     C_3   0.634570 0.630948 0.921462 -0.510228
C28   C     C_3   0.633374 0.633793 0.080259 -0.508207
C29   C     C_R   0.671497 0.498160 0.499962 0.814076
C30   C     C_R   0.815164 0.492187 0.372648 -0.242885
C31   C     C_R   0.768528 0.494147 0.499965 -0.076344
C32   C     C_R   0.814977 0.491805 0.627326 -0.248031
C33   C     C_R   0.907284 0.491419 0.628393 0.109946
C34   C     C_R   0.953784 0.492147 0.500041 0.060900
Cu1   Cu    Cu3+1 0.500000 0.499980 0.640670 0.936496
Cu2   Cu    Cu3+1 0.500000 0.500020 0.359330 0.939508
H1    H     H_    0.780000 0.490861 0.274068 0.144366
H2    H     H_    0.506556 0.887611 0.270747 0.164453
H3    H     H_    0.428642 0.888420 0.812289 0.168401
H4    H     H_    0.552175 0.884737 0.823599 0.200479
H5    H     H_    0.432053 0.111224 0.816555 0.100043
H6    H     H_    0.416905 0.343485 0.130280 0.138464
H7    H     H_    0.415978 0.344503 0.869580 0.133456
H8    H     H_    0.677007 0.556770 0.879750 0.209276
H9    H     H_    0.645698 0.722709 0.873397 0.189710
H10   H     H_    0.676260 0.562649 0.126886 0.211799
H11   H     H_    0.779642 0.490286 0.725863 0.145046
H12   H     H_    0.641598 0.727830 0.124607 0.196431
H13   H     H_    0.918771 0.490400 0.854843 0.136466
H14   H     H_    0.081057 0.492446 0.854993 0.136107
H15   H     H_    0.220853 0.496234 0.726471 0.155051
H16   H     H_    0.221090 0.497217 0.273733 0.155268
H17   H     H_    0.081527 0.493970 0.145154 0.136050
H18   H     H_    0.919256 0.491831 0.145205 0.136565
H19   H     H_    0.506498 0.112161 0.270578 0.168683
N1    N     N_R   0.500570 0.500930 0.147930 -0.184580
N2    N     N_R   0.500570 0.500890 0.852020 -0.184869
O1    O     O_R   0.500000 0.319640 0.618810 -0.587262
O2    O     O_R   0.500010 0.319680 0.381230 -0.588909
O3    O     O_R   0.370250 0.499950 0.618800 -0.588016
O4    O     O_R   0.370260 0.499990 0.381220 -0.587232
O5    O     O_R   0.499990 0.680320 0.618770 -0.578394
O6    O     O_R   0.500000 0.680360 0.381190 -0.587611
O7    O     O_R   0.629740 0.500010 0.618780 -0.586636
O8    O     O_R   0.629750 0.500050 0.381200 -0.586032
N3    N     N_2   0.573548 0.123122 0.843877 -0.405936
H20   H     H_    0.564393 0.211717 0.879201 0.261899
C35   C     C_3   0.659736 0.106248 0.779350 -0.627599
H21   H     H_    0.712183 0.137223 0.853255 0.213321
H22   H     H_    0.665149 0.162237 0.682253 0.220137
H23   H     H_    0.671318 0.008000 0.754265 0.224709

loop_
_geom_bond_atom_site_label_1
_geom_bond_atom_site_label_2
_ccdc_geom_bond_type
C8    H17   S    
N3    C35   S    
C11   C12   S    
C35   H23   S    
C6    C7    A    
C1    C15   S    
C21   N3    S    
C24   N1    A    
Cu2   O6    S    
C24   H6    S    
C19   C20   S    
Cu1   N2    S    
C30   C31   A    
C2    C30   A    
Cu2   O2    S    
C32   C33   A    
C27   H9    S    
C23   O6    A    
C17   C18   A    
C3    H13   S    
C16   H19   S    
C5    C10   A    
C29   C31   S    
C22   C28   S    
C1    O1    A    
C24   C25   A    
C12   O4    A    
C11   C13   A    
C28   H10   S    
C26   C27   S    
Cu1   O7    S    
C25   N2    A    
Cu1   O1    S    
C29   O8    A    
C10   H15   S    
C14   C19   A    
C14   C21   S    
C25   H7    S    
C32   H11   S    
C33   C34   A    
Cu1   O5    S    
C17   H2    S    
C1    O2    A    
Cu2   O4    S    
C5    C6    A    
C20   H4    S    
C26   N2    A    
C21   H5    S    
C29   O7    A    
C7    C8    A    
C10   C11   A    
C3    C33   A    
C18   C23   S    
C13   H16   S    
C6    C34   A    
C7    C13   A    
N3    H20   S    
C20   C21   S    
C30   H1    S    
C35   H22   S    
C18   C19   A    
C22   C26   A    
Cu2   N1    S    
C27   C28   S    
C20   H3    S    
Cu2   O8    S    
Cu1   O3    S    
C22   N1    A    
C9    H18   S    
C23   O5    A    
C2    C34   A    
C14   C15   A    
C2    C9    A    
C4    C5    A    
C27   H8    S    
C35   H21   S    
C31   C32   A    
C28   H12   S    
C3    C4    A    
C15   C16   A    
C16   C17   A    
C4    H14   S    
C8    C9    A    
Cu1   Cu2   S    
C12   O3    A    
