data_mof_unit_51647.cif
_audit_creation_date              2012-10-26T21:17:41-0400
_audit_creation_method            fapswitch 2.2
_symmetry_space_group_name_H-M    P1
_symmetry_Int_Tables_number       1
_space_group_crystal_system       triclinic
_cell_length_a                    10.801924
_cell_length_b                    9.093753
_cell_length_c                    7.795105
_cell_angle_alpha                 90.042634
_cell_angle_beta                  90.000085
_cell_angle_gamma                 89.99909
_cell_volume                      765.713176418

loop_
_atom_site_label
_atom_site_type_symbol
_atom_type_description
_atom_site_fract_x
_atom_site_fract_y
_atom_site_fract_z
_atom_type_partial_charge
C1    C     C_R   0.500000 0.220057 0.499954 0.533009
C2    C     C_R   0.065466 0.374728 0.594741 0.025299
C3    C     C_R   0.128599 0.484266 0.499981 0.004937
C4    C     C_R   0.871401 0.484276 0.499977 0.004940
C5    C     C_R   0.063832 0.586419 0.401234 -0.146840
C6    C     C_R   0.936172 0.586427 0.401235 -0.146850
C7    C     C_1   0.500000 0.065396 0.499992 -0.058164
C8    C     C_1   0.500000 0.934639 0.500088 -0.053801
C9    C     C_R   0.500000 0.779949 0.500027 0.552271
C10   C     C_R   0.262020 0.494612 0.500064 0.530143
C11   C     C_R   0.737980 0.494627 0.500062 0.530143
C12   C     C_R   0.129142 0.262431 0.684108 -0.100203
C13   C     C_R   0.870850 0.262420 0.684068 -0.100188
C14   C     C_R   0.064361 0.154286 0.773493 -0.117951
C15   C     C_R   0.935628 0.154280 0.773470 -0.117946
C16   C     C_R   0.934531 0.374728 0.594726 0.025305
Cu1   Cu    Cu3+1 0.500000 0.500000 0.669080 1.006976
Cu2   Cu    Cu3+1 0.500000 0.500000 0.330920 1.019544
H1    H     H_    0.112516 0.668894 0.326896 0.130268
H2    H     H_    0.887493 0.668908 0.326902 0.130262
H3    H     H_    0.228970 0.254873 0.683317 0.138281
H4    H     H_    0.771023 0.254848 0.683233 0.138271
H5    H     H_    0.114302 0.068974 0.841191 0.121485
H6    H     H_    0.885690 0.068951 0.841139 0.121485
N1    N     N_1   0.500000 0.500000 0.076820 -0.079118
N2    N     N_1   0.500000 0.500000 0.923180 -0.080425
O1    O     O_R   0.500000 0.288390 0.642760 -0.514127
O2    O     O_R   0.500000 0.711610 0.642760 -0.492307
O3    O     O_R   0.500000 0.288370 0.357190 -0.493283
O4    O     O_R   0.500000 0.711630 0.357190 -0.495970
O5    O     O_R   0.319650 0.500000 0.642810 -0.507296
O6    O     O_R   0.680350 0.500000 0.642810 -0.507291
O7    O     O_R   0.319630 0.500000 0.357240 -0.500429
O8    O     O_R   0.680370 0.500000 0.357240 -0.500429

loop_
_geom_bond_atom_site_label_1
_geom_bond_atom_site_label_2
_ccdc_geom_bond_type
C14   H5    S    
C4    C16   A    
Cu2   O4    S    
C6    H2    S    
C2    C12   A    
C1    O3    A    
C2    C3    A    
C7    C8    T    
C1    O1    A    
C3    C10   S    
C4    C11   S    
Cu2   O8    S    
Cu2   N1    S    
C9    O4    A    
C5    H1    S    
Cu1   N2    S    
C12   H3    S    
C15   H6    S    
C13   H4    S    
C12   C14   A    
C11   O6    A    
Cu1   Cu2   S    
C10   O7    A    
C13   C15   A    
C5    C6    A    
Cu1   O5    S    
Cu2   O7    S    
Cu1   O1    S    
C2    C16   A    
C4    C6    A    
C13   C16   A    
Cu2   O3    S    
Cu1   O6    S    
C14   C15   A    
N1    N2    T    
C1    C7    S    
Cu1   O2    S    
C10   O5    A    
C11   O8    A    
C9    O2    A    
C8    C9    S    
C3    C5    A    
