data_mof_unit_25698.cif
_audit_creation_date              2013-03-05T15:41:04-0500
_audit_creation_method            fapswitch 2.2
_symmetry_space_group_name_H-M    P1
_symmetry_Int_Tables_number       1
_space_group_crystal_system       triclinic
_cell_length_a                    11.029422
_cell_length_b                    10.961857
_cell_length_c                    18.666396
_cell_angle_alpha                 90.022292
_cell_angle_beta                  89.559544
_cell_angle_gamma                 59.873589
_cell_volume                      1951.88985876

loop_
_atom_site_label
_atom_site_type_symbol
_atom_site_description
_atom_site_fract_x
_atom_site_fract_y
_atom_site_fract_z
_atom_type_partial_charge
O1    O     O_R   0.507110 0.256280 0.580300 -0.490298
O2    O     O_R   0.280830 0.527190 0.577940 -0.493666
C1    C     C_R   0.227394 0.649622 0.605663 0.588344
O3    O     O_R   0.261360 0.738990 0.584270 -0.433845
O4    O     O_R   0.532590 0.694780 0.574370 -0.414973
C2    C     C_R   0.653768 0.624475 0.600779 0.571533
O5    O     O_R   0.744470 0.503750 0.577000 -0.540084
O6    O     O_R   0.698520 0.277230 0.571620 -0.483108
C3    C     C_R   0.632413 0.218953 0.598324 0.605699
O7    O     O_R   0.498530 0.256920 0.419280 -0.515186
O8    O     O_R   0.272880 0.527780 0.428680 -0.507157
C4    C     C_R   0.215909 0.652228 0.404132 0.540525
O9    O     O_R   0.252780 0.739630 0.423250 -0.522683
O10   O     O_R   0.524640 0.695370 0.425100 -0.501245
C5    C     C_R   0.641391 0.621651 0.392687 0.540389
O11   O     O_R   0.735890 0.504390 0.415980 -0.519830
O12   O     O_R   0.690560 0.277820 0.422350 -0.518735
C6    C     C_R   0.620915 0.223505 0.397354 0.541532
Cr1   Cr    Cr6+3 0.393010 0.398050 0.501480 1.056503
Cr2   Cr    Cr6+3 0.398820 0.707980 0.501630 1.117167
Cr3   Cr    Cr6+3 0.708140 0.393940 0.496850 1.038391
O13   O     O_3   0.499990 0.499990 0.499980 -0.241091
C7    C     C_3   0.576897 0.799915 0.787008 -0.209799
H1    H     H_    0.556226 0.906938 0.802582 0.118197
H2    H     H_    0.499742 0.783613 0.817053 0.254125
C8    C     C_3   0.555323 0.802967 0.705924 0.095986
H3    H     H_    0.577987 0.884879 0.684994 0.105044
H4    H     H_    0.807767 0.812503 0.758011 0.086292
H5    H     H_    0.800430 0.750640 0.641568 0.107551
C9    C     C_3   0.829829 0.702168 0.755795 -0.310018
C10   C     C_3   0.755885 0.526206 0.798632 0.368925
C11   C     C_3   0.730860 0.683174 0.808014 -0.042182
C12   C     C_3   0.673232 0.656137 0.675181 -0.026751
C13   C     C_3   0.808629 0.666588 0.678139 -0.320053
C14   C     C_3   0.696785 0.525228 0.723117 0.116809
H6    H     H_    0.776201 0.427852 0.695340 0.162104
H7    H     H_    0.938573 0.636053 0.772053 0.204366
H8    H     H_    0.900258 0.568733 0.657969 0.188743
C15   C     C_2   0.691688 0.120297 0.658766 -0.097689
C16   C     C_2   0.720763 0.079014 0.814340 -0.055996
C17   C     C_2   0.830055 0.048939 0.770766 -0.113273
C18   C     C_2   0.806535 0.097948 0.694883 -0.103880
H9    H     H_    0.935229 0.000068 0.792305 0.169149
H10   H     H_    0.875377 0.132259 0.672258 0.182817
H11   H     H_    0.615675 0.129602 0.792685 0.160024
H12   H     H_    0.627760 0.078448 0.679404 0.090697
C19   C     C_2   0.163859 0.669168 0.676412 -0.067473
C20   C     C_2   0.164073 0.682020 0.833059 -0.132262
C21   C     C_2   0.183776 0.568012 0.797089 -0.142480
C22   C     C_2   0.206139 0.556161 0.719306 -0.049385
H13   H     H_    0.182777 0.481514 0.824886 0.219593
H14   H     H_    0.267213 0.449718 0.697988 0.205201
H15   H     H_    0.172144 0.765647 0.806518 0.189563
H16   H     H_    0.100759 0.776086 0.696570 0.100633
C23   C     C_2   0.649671 0.646826 0.317112 -0.091167
C24   C     C_2   0.633893 0.664654 0.159443 -0.096844
C25   C     C_2   0.708074 0.544993 0.195565 -0.159236
C26   C     C_2   0.689027 0.536717 0.272176 -0.147782
H17   H     H_    0.795236 0.453056 0.170365 0.161114
H18   H     H_    0.721056 0.432195 0.292909 0.152657
H19   H     H_    0.541672 0.753697 0.183272 0.107087
H20   H     H_    0.616380 0.752730 0.298390 0.084908
C27   C     C_2   0.673708 0.139079 0.333271 -0.108065
C28   C     C_2   0.651440 0.146649 0.178916 -0.094096
C29   C     C_2   0.608423 0.077039 0.221935 -0.158654
C30   C     C_2   0.592604 0.101353 0.298392 -0.158084
H21   H     H_    0.577478 0.004599 0.200291 0.147115
H22   H     H_    0.502818 0.103331 0.324019 0.159430
H23   H     H_    0.683546 0.219017 0.199094 0.092134
H24   H     H_    0.768376 0.128221 0.308745 0.093618
C31   C     C_2   0.116730 0.688239 0.346236 -0.104698
C32   C     C_2   0.046036 0.724053 0.195152 -0.099690
C33   C     C_2   0.009181 0.833032 0.239948 -0.161038
C34   C     C_2   0.062804 0.812743 0.313094 -0.152899
H25   H     H_    0.956458 0.940020 0.219286 0.140478
H26   H     H_    0.073993 0.897752 0.335883 0.153279
H27   H     H_    0.101483 0.615278 0.212680 0.114446
H28   H     H_    0.098229 0.605654 0.327028 0.106617
O14   O     O_R   0.089190 0.825870 0.932320 -0.490218
O15   O     O_R   0.819070 0.053960 0.931440 -0.429642
C35   C     C_R   0.729620 0.041078 0.890123 0.531400
O16   O     O_R   0.607070 0.076440 0.916460 -0.495741
O17   O     O_R   0.647110 0.806550 0.917690 -0.489015
C36   C     C_R   0.756748 0.709530 0.882691 0.539508
O18   O     O_R   0.837080 0.593860 0.915300 -0.407088
O19   O     O_R   0.064770 0.636080 0.932550 -0.500576
C37   C     C_R   0.113018 0.709912 0.905838 0.542193
O20   O     O_R   0.068250 0.829200 0.092940 -0.489597
O21   O     O_R   0.799650 0.057040 0.080330 -0.511868
C38   C     C_R   0.675557 0.104935 0.104958 0.562469
O22   O     O_R   0.586130 0.079760 0.077080 -0.497206
O23   O     O_R   0.627700 0.809630 0.066580 -0.494936
C39   C     C_R   0.692403 0.688277 0.094602 0.575299
O24   O     O_R   0.816140 0.597180 0.075920 -0.501733
O25   O     O_R   0.045360 0.639170 0.081440 -0.490597
C40   C     C_R   0.023734 0.748668 0.119152 0.558737
Cr4   Cr    Cr6+3 0.937950 0.938450 0.008940 1.080192
Cr5   Cr    Cr6+3 0.626180 0.937030 0.994750 1.060379
Cr6   Cr    Cr6+3 0.937790 0.625760 0.001410 1.094825
O26   O     O_3   0.833980 0.833750 0.001700 -0.347949
N1    N     N_R   0.408021 0.854835 0.685578 0.140799
O27   O     O_R   0.360895 0.935589 0.629478 -0.334702
O28   O     O_R   0.315056 0.869131 0.733251 -0.294218
S1    S     S_3+6 0.943181 0.379490 0.798722 0.028870
O29   O     O_2   0.013076 0.359923 0.869898 -0.200151
O30   O     O_2   0.944243 0.244447 0.783226 -0.273333
O31   O     O_3   0.046741 0.392749 0.736445 -0.608588
H29   H     H_    0.057806 0.326168 0.697599 0.362688
N2    N     N_R   0.683804 0.492416 0.857034 0.129726
O32   O     O_R   0.722328 0.361916 0.871806 -0.215705
O33   O     O_R   0.591913 0.588842 0.899887 -0.343529
S2    S     S_3+6 0.548610 0.500211 0.726353 0.023583
O34   O     O_2   0.493016 0.510477 0.652970 -0.242766
O35   O     O_2   0.590107 0.357258 0.754477 -0.306649
O36   O     O_3   0.425307 0.618609 0.780456 -0.508740
H30   H     H_    0.428832 0.564717 0.823619 0.390492

loop_
_geom_bond_atom_site_label_1
_geom_bond_atom_site_label_2
_geom_bond_distance
_ccdc_geom_bond_type
C30   H22   1.086789 S    
O20   C40   1.300579 A    
C39   O24   1.267162 A    
O15   Cr4   1.944034 S    
C33   H25   1.086992 S    
C17   C18   1.492869 S    
O25   C40   1.304807 A    
C28   C38   1.434380 S    
S1    O30   1.502460 D    
C35   O16   1.297154 A    
C38   O22   1.265240 A    
O23   Cr5   1.930461 S    
O4    Cr2   1.964181 S    
O8    Cr1   1.939660 S    
C8    H3    1.115988 S    
N1    O27   1.302915 A    
C34   H26   1.086501 S    
O17   C36   1.310148 A    
N2    O33   1.302231 A    
C8    N1    1.479674 S    
O4    C2    1.264800 A    
O25   Cr6   1.965461 S    
C6    C27   1.440102 S    
C25   H17   1.086854 S    
C26   H18   1.087872 S    
O36   H30   0.988657 S    
C23   H20   1.085847 S    
C3    C15   1.473918 S    
C24   C25   1.332851 D    
C33   C34   1.464270 S    
C7    C8    1.531706 S    
S1    O29   1.501827 D    
C14   H6    1.108822 S    
O6    C3    1.284687 A    
C21   H13   1.085900 S    
O17   Cr5   1.957038 S    
C22   H14   1.086326 S    
O31   H29   0.991056 S    
C15   C18   1.349367 D    
O20   Cr4   2.065564 S    
C31   H28   1.084461 S    
C7    H2    1.102733 S    
C27   C30   1.332356 D    
N1    O28   1.300907 A    
Cr3   O13   1.986015 S    
C17   H9    1.085259 S    
C24   C39   1.450680 S    
C18   H10   1.085439 S    
S2    O35   1.491658 D    
S2    O34   1.486182 D    
O12   C6    1.275392 A    
C19   C22   1.348966 D    
C16   H11   1.084674 S    
C11   C36   1.482131 S    
O1    Cr1   2.056832 S    
O16   Cr5   2.049048 S    
O10   Cr2   1.939694 S    
Cr1   O13   1.991174 S    
O1    C3    1.276794 A    
C36   O18   1.282347 A    
C9    C13   1.550591 S    
O19   C37   1.270982 A    
C32   C33   1.340930 D    
C29   H21   1.088198 S    
O5    Cr3   2.083229 S    
H5    C13   1.113956 S    
O12   Cr3   1.960171 S    
C9    H7    1.090443 S    
O21   Cr4   1.941484 S    
C32   C40   1.443918 S    
C32   H27   1.083613 S    
O18   Cr6   2.087253 S    
C8    C12   1.580439 S    
Cr6   O26   1.971961 S    
C27   H24   1.087127 S    
O7    Cr1   2.065306 S    
C7    H1    1.114931 S    
C12   C13   1.555406 S    
C10   N2    1.496747 S    
C20   C37   1.439169 S    
C24   H19   1.086854 S    
C28   H23   1.086437 S    
C10   S1    1.875901 S    
O19   Cr6   1.938530 S    
O14   C37   1.261483 A    
C19   H16   1.084632 S    
C16   C17   1.345033 D    
C4    C31   1.450988 S    
Cr2   O13   1.972279 S    
C21   C22   1.465599 S    
Cr5   O26   1.987825 S    
C15   H12   1.084740 S    
C10   C14   1.559845 S    
C1    O3    1.275107 A    
Cr4   O26   1.993460 S    
C20   C21   1.335800 D    
O9    Cr2   2.081125 S    
O2    Cr1   1.945482 S    
C13   H8    1.104247 S    
C16   C35   1.464703 S    
O14   Cr4   2.060714 S    
C10   C11   1.609293 S    
O15   C35   1.318918 A    
O6    Cr3   1.931664 S    
C31   C34   1.338139 D    
O8    C4    1.268957 A    
O11   Cr3   2.050516 S    
C2    O5    1.269993 A    
C20   H15   1.084124 S    
C2    C12   1.474568 S    
C7    C11   1.582483 S    
H4    C9    1.108208 S    
O2    C1    1.271652 A    
N2    O32   1.301884 A    
C28   C29   1.345442 D    
C9    C11   1.548200 S    
C25   C26   1.453276 S    
O24   Cr6   2.055823 S    
O7    C6    1.272321 A    
C1    C19   1.454605 S    
O23   C39   1.267193 A    
C12   C14   1.599293 S    
S2    O36   1.661307 S    
O22   Cr5   2.073344 S    
O3    Cr2   2.059130 S    
C4    O9    1.266384 A    
C29   C30   1.444838 S    
C23   C26   1.347780 D    
O10   C5    1.272916 A    
O21   C38   1.276350 A    
S1    O31   1.680318 S    
C14   S2    1.788328 S    
C5    O11   1.261023 A    
C5    C23   1.448539 S    
