data_mof_unit_59074.cif
_audit_creation_date              2012-12-10T21:00:48-0500
_audit_creation_method            fapswitch 2.2
_symmetry_space_group_name_H-M    P1
_symmetry_Int_Tables_number       1
_space_group_crystal_system       triclinic
_cell_length_a                    18.143787
_cell_length_b                    18.186734
_cell_length_c                    18.315154
_cell_angle_alpha                 119.970252
_cell_angle_beta                  89.930927
_cell_angle_gamma                 119.983323
_cell_volume                      4279.00656234

loop_
_atom_site_label
_atom_site_type_symbol
_atom_type_description
_atom_site_fract_x
_atom_site_fract_y
_atom_site_fract_z
_atom_type_partial_charge
C1    C     C_R   0.110731 0.220025 0.609819 0.518412
C2    C     C_3   0.450548 0.897505 0.947495 0.060693
C3    C     C_3   0.681818 0.830020 0.359785 -0.362015
C4    C     C_2   0.566551 0.453728 0.780377 0.214779
C5    C     C_2   0.430847 0.546850 0.217988 0.194153
C6    C     C_2   0.455398 0.296495 0.389861 0.213558
C7    C     C_2   0.544603 0.703656 0.610102 0.211275
C8    C     C_3   0.445705 0.032248 0.015679 -0.107673
C9    C     C_3   0.554290 0.967753 0.984292 -0.107053
C10   C     C_3   0.412590 0.432897 0.448015 -0.145621
C11   C     C_3   0.587423 0.567262 0.551971 -0.146995
C12   C     C_3   0.480062 0.404943 0.447463 0.025723
C13   C     C_3   0.519950 0.595213 0.552524 0.024709
C14   C     C_3   0.551038 0.499286 0.449103 0.067672
C15   C     C_3   0.448973 0.500864 0.550887 0.067817
C16   C     C_3   0.484742 0.528548 0.449598 -0.162031
C17   C     C_R   0.888844 0.779970 0.390185 0.498007
C18   C     C_3   0.515277 0.471610 0.550386 -0.159825
C19   C     C_R   0.161756 0.175516 0.828205 -0.122951
C20   C     C_R   0.834080 0.821643 0.171367 -0.125684
C21   C     C_R   0.392916 0.781168 0.888300 0.510579
C22   C     C_R   0.607083 0.218832 0.111690 0.512214
C23   C     C_R   0.133981 0.123040 0.734926 0.303910
C24   C     C_R   0.860199 0.871011 0.264464 0.304455
C25   C     C_R   0.053727 0.098934 0.690590 0.062703
C26   C     C_R   0.943272 0.900898 0.309418 0.072749
C27   C     C_R   0.999779 0.122334 0.739119 -0.158548
C28   C     C_3   0.921584 0.404244 0.447724 -0.158359
C29   C     C_R   0.998374 0.879987 0.261252 -0.155851
C30   C     C_R   0.026757 0.172420 0.831574 -0.096478
C31   C     C_R   0.971180 0.829192 0.168762 -0.094143
C32   C     C_R   0.108455 0.200376 0.876956 0.004673
C33   C     C_R   0.888662 0.799273 0.123051 0.010449
C34   C     C_R   0.972279 0.943731 0.537274 -0.153597
C35   C     C_R   0.025362 0.056262 0.462735 -0.134331
C36   C     C_R   0.944478 0.892318 0.444666 0.024240
C37   C     C_R   0.053697 0.107678 0.555349 0.033076
C38   C     C_R   0.970883 0.949277 0.406716 0.009752
C39   C     C_3   0.078694 0.596132 0.552357 -0.162528
C40   C     C_R   0.026574 0.050716 0.593310 0.007020
C41   C     C_R   0.648851 0.626811 0.807608 -0.122254
C42   C     C_R   0.351421 0.375303 0.193562 -0.121605
C43   C     C_R   0.603023 0.565707 0.839180 0.055634
C44   C     C_R   0.396268 0.435428 0.160929 0.058294
C45   C     C_R   0.110269 0.500210 0.889107 0.502713
C46   C     C_R   0.889759 0.499832 0.110928 0.505575
C47   C     C_R   0.593704 0.613463 0.924691 0.058452
C48   C     C_R   0.406257 0.387246 0.075877 0.061178
C49   C     C_R   0.631103 0.720222 0.975918 -0.119167
C50   C     C_3   0.449548 0.966158 0.922399 -0.119921
C51   C     C_R   0.369731 0.280752 0.025700 -0.117318
C52   C     C_R   0.676137 0.779233 0.943132 -0.113072
C53   C     C_R   0.325371 0.222595 0.059372 -0.116263
C54   C     C_R   0.684820 0.732567 0.859075 -0.090154
C55   C     C_R   0.316537 0.269872 0.143270 -0.089242
C56   C     C_R   0.593077 0.553865 0.018366 -0.128645
C57   C     C_R   0.406895 0.446323 0.981806 -0.103960
C58   C     C_R   0.550316 0.499809 0.055952 0.050361
C59   C     C_R   0.449667 0.500405 0.944251 0.063512
C60   C     C_R   0.456139 0.445595 0.037975 0.024816
C61   C     C_3   0.550445 0.033842 0.077572 -0.119129
C62   C     C_R   0.543828 0.554613 0.962210 0.019930
C63   C     C_R   0.138852 0.815882 0.986551 -0.089617
C64   C     C_R   0.860740 0.184587 0.014054 -0.090407
C65   C     C_R   0.115810 0.747115 0.010489 -0.078477
C66   C     C_R   0.883926 0.253259 0.989978 -0.078000
C67   C     C_R   0.047686 0.640892 0.949155 0.071699
C68   C     C_R   0.952456 0.359381 0.051072 0.073035
C69   C     C_R   0.392239 0.500361 0.607798 0.547369
C70   C     C_R   0.607766 0.499703 0.392199 0.543798
C71   C     C_R   0.001950 0.604485 0.864216 -0.008488
C72   C     C_3   0.553982 0.037837 0.959916 -0.118741
C73   C     C_R   0.998378 0.395801 0.135940 -0.006664
C74   C     C_R   0.025363 0.673479 0.840447 -0.049644
C75   C     C_R   0.974824 0.326904 0.159848 -0.048536
C76   C     C_R   0.093801 0.779057 0.901544 -0.074624
C77   C     C_R   0.906023 0.221415 0.098972 -0.074644
C78   C     C_R   0.972126 0.566025 0.028692 -0.147672
C79   C     C_R   0.028090 0.434261 0.971549 -0.147340
C80   C     C_R   0.946855 0.499056 0.055039 0.010543
C81   C     C_R   0.053266 0.501120 0.945097 0.011356
C82   C     C_R   0.975531 0.432372 0.026284 -0.039868
C83   C     C_3   0.446013 0.962164 0.040056 -0.118344
C84   C     C_R   0.024630 0.567859 0.973899 -0.039385
C85   C     C_R   0.393942 0.499563 0.888197 0.524236
C86   C     C_R   0.606051 0.500546 0.111908 0.502433
C87   C     C_R   0.108563 0.499729 0.607753 0.534602
C88   C     C_R   0.891530 0.500381 0.392254 0.534426
C89   C     C_3   0.016930 0.429278 0.447511 -0.141092
C90   C     C_3   0.983348 0.571104 0.552550 -0.145197
C91   C     C_3   0.042961 0.524934 0.449333 0.266383
C92   C     C_3   0.957307 0.475453 0.550739 0.268779
C93   C     C_3   0.949044 0.500312 0.449140 0.040606
C94   C     C_3   0.549447 0.102496 0.052478 0.059994
C95   C     C_3   0.051213 0.500030 0.550920 0.042723
C96   C     C_3   0.173966 0.580709 0.414820 -0.018607
C97   C     C_3   0.213383 0.588800 0.343702 -0.373167
C98   C     C_3   0.826481 0.420501 0.585639 -0.016736
C99   C     C_3   0.787004 0.412106 0.656632 -0.372717
C100  C     C_2   0.139341 0.255955 0.975032 0.211393
C101  C     C_2   0.858689 0.744998 0.025104 0.212497
C102  C     C_3   0.181073 0.017136 0.679466 -0.016097
C103  C     C_3   0.227747 0.981996 0.614757 -0.355442
C104  C     C_3   0.723172 0.805439 0.286157 0.000545
H1    H     H_    0.225250 0.197410 0.862489 0.089684
H2    H     H_    0.282303 0.224668 0.169368 0.117378
H3    H     H_    0.656927 0.592571 0.742705 0.084576
H4    H     H_    0.342996 0.409972 0.258228 0.085403
H5    H     H_    0.624418 0.757511 0.041139 0.106546
H6    H     H_    0.376718 0.243066 0.960712 0.109593
H7    H     H_    0.032228 0.372469 0.405057 0.122339
H8    H     H_    0.968099 0.627969 0.594990 0.116318
H9    H     H_    0.704176 0.861266 0.982909 0.104810
H10   H     H_    0.298080 0.140791 0.020461 0.100159
H11   H     H_    0.665318 0.594898 0.031502 0.130856
H12   H     H_    0.771473 0.801112 0.136827 0.078385
H13   H     H_    0.334656 0.405355 0.968730 0.132778
H14   H     H_    0.111917 0.832329 0.883026 0.093892
H15   H     H_    0.887796 0.168218 0.117596 0.099717
H16   H     H_    0.191808 0.897655 0.033786 0.098943
H17   H     H_    0.807482 0.102890 0.967002 0.098847
H18   H     H_    0.151386 0.776303 0.076349 0.092042
H19   H     H_    0.848142 0.224085 0.924207 0.091347
H20   H     H_    0.949449 0.522684 0.816333 0.114805
H21   H     H_    0.051143 0.477543 0.183663 0.114251
H22   H     H_    0.990716 0.645206 0.774663 0.132858
H23   H     H_    0.937471 0.103155 0.705405 0.109072
H24   H     H_    0.009644 0.355187 0.225568 0.134012
H25   H     H_    0.950298 0.617082 0.050134 0.164887
H26   H     H_    0.050032 0.383334 0.950227 0.166090
H27   H     H_    0.856774 0.326402 0.404597 0.107273
H28   H     H_    0.143484 0.674000 0.595499 0.099647
H29   H     H_    0.598984 0.070017 0.927423 0.115553
H30   H     H_    0.401011 0.929985 0.072549 0.116063
H31   H     H_    0.407602 0.937328 0.857955 0.113926
H32   H     H_    0.592391 0.062674 0.142017 0.117598
H33   H     H_    0.401236 0.059440 0.028970 0.123289
H34   H     H_    0.061897 0.901773 0.295350 0.108194
H35   H     H_    0.598760 0.940562 0.971002 0.124310
H36   H     H_    0.340457 0.377462 0.405698 0.119049
H37   H     H_    0.659560 0.622699 0.594279 0.117996
H38   H     H_    0.473585 0.552734 0.408185 0.089856
H39   H     H_    0.526489 0.447471 0.591815 0.095038
H40   H     H_    0.178520 0.524257 0.419558 0.130726
H41   H     H_    0.215495 0.658516 0.479639 0.135780
H42   H     H_    0.207282 0.641742 0.334617 0.162488
H43   H     H_    0.285769 0.619809 0.364289 0.102853
H44   H     H_    0.177309 0.510905 0.279326 0.154069
H45   H     H_    0.984183 0.190184 0.867604 0.147837
H46   H     H_    0.784621 0.342971 0.520607 0.139985
H47   H     H_    0.822476 0.477585 0.581534 0.129468
H48   H     H_    0.823339 0.489816 0.721223 0.152221
H49   H     H_    0.714737 0.381604 0.636268 0.103853
H50   H     H_    0.792674 0.358628 0.665198 0.164729
H51   H     H_    0.202653 0.276889 0.008788 0.109765
H52   H     H_    0.794865 0.722688 0.990975 0.110867
H53   H     H_    0.109198 0.949899 0.652742 0.120462
H54   H     H_    0.214484 0.040140 0.745266 0.121487
H55   H     H_    0.300064 0.046554 0.639898 0.172889
H56   H     H_    0.014667 0.813270 0.133046 0.148298
H57   H     H_    0.222679 0.915267 0.607923 0.094528
H58   H     H_    0.195138 0.957553 0.548115 0.161496
H59   H     H_    0.728017 0.741799 0.274006 0.156187
H60   H     H_    0.677565 0.778068 0.224496 0.149916
H61   H     H_    0.672018 0.890185 0.371617 0.167692
H62   H     H_    0.615577 0.758884 0.340297 0.133230
H63   H     H_    0.726953 0.859017 0.422528 0.145707
H64   H     H_    0.574643 0.422143 0.715089 0.086814
H65   H     H_    0.425988 0.580151 0.284631 0.085111
H66   H     H_    0.402108 0.236827 0.395067 0.094086
H67   H     H_    0.952216 0.900689 0.566840 0.132334
H68   H     H_    0.597841 0.763299 0.604835 0.088801
H69   H     H_    0.045385 0.099294 0.433161 0.144983
H70   H     H_    0.719667 0.778464 0.833707 0.116442
O1    O     O_3   0.251620 0.500000 0.748430 -0.450720
O2    O     O_R   0.570330 0.268390 0.136490 -0.522180
O3    O     O_R   0.134680 0.268390 0.572240 -0.555735
O4    O     O_R   0.865320 0.731610 0.427760 -0.557127
O5    O     O_R   0.306670 0.731630 0.863510 -0.547781
O6    O     O_R   0.693330 0.268370 0.136490 -0.546344
O7    O     O_R   0.135450 0.439270 0.865360 -0.549588
O8    O     O_R   0.864550 0.560730 0.134640 -0.545106
O9    O     O_R   0.429670 0.560710 0.692610 -0.503107
O10   O     O_R   0.570330 0.439290 0.307390 -0.503980
O11   O     O_R   0.308540 0.439240 0.865360 -0.547514
O12   O     O_3   0.748380 0.500000 0.251570 -0.445244
O13   O     O_R   0.691460 0.560760 0.134640 -0.572146
O14   O     O_R   0.133580 0.439310 0.571150 -0.553166
O15   O     O_R   0.866420 0.560690 0.428850 -0.554454
O16   O     O_R   0.430770 0.560690 0.864590 -0.542547
O17   O     O_R   0.569230 0.439310 0.135410 -0.539178
O18   O     O_R   0.133580 0.560760 0.692610 -0.526154
O19   O     O_R   0.866420 0.439240 0.307390 -0.524418
O20   O     O_3   0.083948 0.548840 0.391635 -0.560531
O21   O     O_3   0.916265 0.451537 0.608411 -0.558557
O22   O     O_2   0.094747 0.279199 0.019377 -0.527860
O23   O     O_R   0.134680 0.560740 0.864590 -0.539388
O24   O     O_2   0.904613 0.724290 0.981269 -0.528135
O25   O     O_3   0.188169 0.101957 0.687468 -0.546305
O26   O     O_3   0.808444 0.896440 0.313547 -0.568652
O27   O     O_2   0.527792 0.395434 0.803169 -0.509519
O28   O     O_2   0.463839 0.602569 0.191931 -0.540270
O29   O     O_2   0.494626 0.274594 0.337388 -0.501121
O30   O     O_2   0.505418 0.725575 0.662618 -0.502498
O31   O     O_R   0.865320 0.439260 0.135410 -0.538396
O32   O     O_R   0.306670 0.439270 0.571150 -0.559004
O33   O     O_R   0.693330 0.560730 0.428850 -0.560808
O34   O     O_R   0.135450 0.268370 0.694460 -0.527847
O35   O     O_R   0.864550 0.731630 0.305540 -0.551391
O36   O     O_R   0.429670 0.731610 0.863510 -0.524342
Zn1   Zn    Zn3+2 0.207400 0.586780 0.791530 0.948959
Zn2   Zn    Zn3+2 0.792600 0.413220 0.208470 0.953278
Zn3   Zn    Zn3+2 0.208510 0.413230 0.792630 0.953778
Zn4   Zn    Zn3+2 0.791490 0.586770 0.207370 0.920578
Zn5   Zn    Zn3+2 0.383150 0.586740 0.791530 0.977062
Zn6   Zn    Zn3+2 0.616850 0.413260 0.208470 0.969407
Zn7   Zn    Zn3+2 0.207400 0.413250 0.618010 0.937693
Zn8   Zn    Zn3+2 0.792600 0.586750 0.381990 0.922295

loop_
_geom_bond_atom_site_label_1
_geom_bond_atom_site_label_2
_ccdc_geom_bond_type
C17   O4    A    
C3    C104  S    
C15   C18   S    
C66   C68   A    
C63   C65   A    
C11   C18   S    
O34   Zn3   S    
O12   Zn2   S    
C46   O31   A    
C8    C83   S    
C41   C43   A    
C64   C77   A    
C53   C55   A    
C19   C23   A    
C9    C72   S    
C90   H8    S    
C92   O21   S    
C8    H33   S    
C102  H54   S    
C104  H59   S    
C7    C13   S    
C79   C82   A    
C72   H29   S    
C3    H63   S    
C47   C49   A    
O14   Zn7   S    
C53   H10   S    
C96   H41   S    
O12   Zn8   S    
C69   O32   A    
C74   C76   A    
C33   C101  S    
C6    H66   S    
O1    Zn3   S    
C49   H5    S    
C18   H39   S    
C35   C37   A    
C78   H25   S    
C24   C26   A    
C37   C40   A    
C17   O35   A    
C50   H31   S    
C25   C40   S    
C6    C12   S    
C42   C55   A    
C11   C14   S    
C78   C80   A    
O10   Zn6   S    
C96   H40   S    
C63   C76   A    
C58   C60   A    
C64   H17   S    
C99   H50   S    
O5    Zn1   S    
C21   O36   A    
O33   Zn8   S    
C75   H24   S    
C97   H42   S    
O6    Zn2   S    
C1    O34   A    
C50   C72   S    
C83   H30   S    
C2    C50   S    
C9    H35   S    
C27   H23   S    
C48   C51   A    
C20   C24   A    
O11   Zn3   S    
C103  H58   S    
O12   Zn6   S    
O2    Zn6   S    
C28   C89   S    
C17   C36   S    
O1    Zn1   S    
C89   C91   S    
C43   C47   A    
O16   Zn5   S    
C39   C90   S    
C67   C71   A    
C31   H56   S    
C1    C37   S    
C72   C94   S    
C96   O20   S    
O13   Zn4   S    
C86   O13   A    
C7    H68   S    
C27   C30   A    
O9    Zn5   S    
O1    Zn7   S    
C2    C83   S    
C14   C70   S    
C42   C44   A    
C47   C62   S    
C19   C32   A    
C58   C86   S    
C102  H53   S    
C39   C91   S    
C52   C54   A    
C48   C60   S    
C98   H47   S    
C100  O22   D    
O32   Zn7   S    
C85   O11   A    
C88   O15   A    
C15   C69   S    
C103  H57   S    
C55   H2    S    
C45   O7    A    
C35   H69   S    
C71   H20   S    
C35   C38   A    
C8    C94   S    
C22   O6    A    
C104  O26   S    
C57   C60   A    
C5    O28   D    
C20   H12   S    
C91   O20   S    
C101  O24   D    
C26   C38   S    
O19   Zn2   S    
C101  H52   S    
C65   C67   A    
C70   O33   A    
C52   H9    S    
C79   H26   S    
C80   C82   A    
C22   C94   S    
C76   H14   S    
C4    H64   S    
C87   C95   S    
C28   C93   S    
C51   C53   A    
O1    Zn5   S    
C89   C95   S    
C16   H38   S    
C59   C85   S    
O18   Zn1   S    
C7    O30   D    
O23   Zn1   S    
C78   C84   A    
O17   Zn6   S    
C91   C93   S    
C11   H37   S    
C3    H62   S    
C90   C92   S    
C46   O8    A    
C21   O5    A    
C49   C52   A    
C96   C97   S    
C2    C21   S    
C31   C33   A    
C86   O17   A    
C28   C92   S    
C65   H18   S    
C75   C77   A    
O12   Zn4   S    
C39   C95   S    
C10   C12   S    
C69   O9    A    
C20   C33   A    
C19   H1    S    
C100  H51   S    
C70   O10   A    
C5    C44   S    
C12   C14   S    
C51   H6    S    
C10   H36   S    
C61   C83   S    
C97   H44   S    
C56   C62   A    
C73   C75   A    
C23   O25   S    
C8    C50   S    
C81   C84   A    
O15   Zn8   S    
C3    H61   S    
C90   C93   S    
C57   H13   S    
C98   H46   S    
C88   C93   S    
C59   C62   A    
C41   H3    S    
C14   C16   S    
C61   C94   S    
C88   O19   A    
O4    Zn8   S    
C45   C81   S    
O3    Zn7   S    
C77   H15   S    
C29   H34   S    
C104  H60   S    
C71   C74   A    
C22   O2    A    
C79   C81   A    
C87   O14   A    
C4    C43   S    
C25   C27   A    
C99   H48   S    
C89   H7    S    
C1    O3    A    
O35   Zn4   S    
O31   Zn2   S    
C10   C15   S    
C28   H27   S    
C68   C82   S    
C54   H70   S    
C13   C15   S    
C68   C73   A    
C6    O29   D    
C29   C31   A    
C44   C48   A    
C10   C16   S    
C102  O25   S    
C30   C32   A    
C63   H16   S    
C11   C13   S    
C103  H55   S    
C4    O27   D    
C74   H22   S    
C42   H4    S    
C97   H43   S    
C73   H21   S    
C99   H49   S    
C36   C38   A    
C56   H11   S    
C56   C58   A    
C98   O21   S    
C9    C61   S    
C34   C36   A    
C92   C95   S    
C102  C103  S    
C41   C54   A    
C85   O16   A    
C57   C59   A    
C32   C100  S    
C67   C84   S    
C23   C25   A    
C24   O26   S    
C26   C29   A    
C98   C99   S    
C39   H28   S    
C13   C16   S    
C12   C18   S    
O8    Zn4   S    
C5    H65   S    
C66   H19   S    
C34   C40   A    
O7    Zn3   S    
C46   C80   S    
O36   Zn5   S    
C2    C9    S    
C45   O23   A    
C34   H67   S    
C30   H45   S    
C61   H32   S    
C64   C66   A    
C87   O18   A    
