data_mof_unit_61601.cif
_audit_creation_date              2012-12-10T20:08:37-0500
_audit_creation_method            fapswitch 2.2
_symmetry_space_group_name_H-M    P1
_symmetry_Int_Tables_number       1
_space_group_crystal_system       triclinic
_cell_length_a                    19.101803
_cell_length_b                    18.576639
_cell_length_c                    14.957623
_cell_angle_alpha                 90.054286
_cell_angle_beta                  91.332782
_cell_angle_gamma                 91.206057
_cell_volume                      5305.05519831

loop_
_atom_site_label
_atom_site_type_symbol
_atom_type_description
_atom_site_fract_x
_atom_site_fract_y
_atom_site_fract_z
_atom_type_partial_charge
C1    C     C_R   0.365715 0.499370 0.508724 0.898726
C2    C     C_R   0.635246 0.501011 0.497231 0.944706
C3    C     C_R   0.379384 0.451692 0.046729 0.261009
C4    C     C_R   0.617460 0.550078 0.952792 0.267653
C5    C     C_R   0.752336 0.440473 0.507458 -0.028320
C6    C     C_R   0.265173 0.562553 0.578298 -0.017982
C7    C     C_R   0.247297 0.437159 0.529044 -0.035651
C8    C     C_R   0.748429 0.572368 0.514150 -0.050412
C9    C     C_R   0.822012 0.444572 0.537580 -0.198955
C10   C     C_R   0.194370 0.565511 0.596934 -0.198335
C11   C     C_R   0.176835 0.442045 0.549750 -0.207914
C12   C     C_R   0.816680 0.574023 0.548273 -0.190543
C13   C     C_R   0.853958 0.510874 0.559107 0.072413
C14   C     C_R   0.150353 0.506089 0.581744 0.057101
C15   C     C_R   0.712877 0.504547 0.501888 -0.204023
C16   C     C_R   0.292211 0.499181 0.538426 -0.192958
C17   C     C_R   0.969898 0.568461 0.534810 -0.163661
C18   C     C_R   0.035452 0.461863 0.636266 -0.163640
C19   C     C_R   0.042137 0.567748 0.541552 -0.144200
C20   C     C_R   0.962681 0.463266 0.630829 -0.150319
C21   C     C_R   0.075120 0.513260 0.589890 0.119186
C22   C     C_R   0.929562 0.515398 0.577843 0.118785
C23   C     C_R   0.529007 0.728282 0.570840 0.096097
C24   C     C_R   0.472090 0.271701 0.428456 0.124882
C25   C     C_R   0.470089 0.726507 0.429458 0.113844
C26   C     C_R   0.528908 0.273315 0.571206 0.116244
C27   C     C_R   0.528342 0.804074 0.571558 -0.295361
C28   C     C_R   0.473110 0.195917 0.427454 -0.283580
C29   C     C_R   0.470772 0.802357 0.427993 -0.275211
C30   C     C_R   0.528644 0.197441 0.572185 -0.282958
C31   C     C_R   0.499789 0.842272 0.499525 0.084601
C32   C     C_R   0.500874 0.157659 0.499864 0.088309
C33   C     C_R   0.501221 0.500096 0.327121 0.909855
C34   C     C_R   0.497689 0.499828 0.672696 0.898859
C35   C     C_R   0.442984 0.961163 0.463535 -0.158129
C36   C     C_R   0.557764 0.038839 0.535708 -0.158274
C37   C     C_R   0.557558 0.963247 0.535374 -0.154034
C38   C     C_R   0.443234 0.036749 0.463773 -0.152515
C39   C     C_R   0.500622 0.076814 0.499868 0.133278
C40   C     C_R   0.500138 0.923154 0.499343 0.133607
C41   C     C_R   0.555076 0.523100 0.813721 -0.182818
C42   C     C_R   0.442516 0.477109 0.186045 -0.177601
C43   C     C_R   0.495236 0.499201 0.767865 -0.102607
C44   C     C_R   0.502680 0.500610 0.231700 -0.108700
C45   C     C_R   0.434759 0.475908 0.812022 -0.022635
C46   C     C_R   0.561527 0.527140 0.187104 -0.046509
C47   C     C_R   0.435813 0.476774 0.905946 0.012580
C48   C     C_R   0.559912 0.527724 0.093315 0.008180
C49   C     C_R   0.496984 0.502000 0.952846 0.024531
C50   C     C_R   0.498719 0.502586 0.046532 0.031343
C51   C     C_R   0.556863 0.525542 0.906134 0.070436
C52   C     C_R   0.439618 0.477184 0.093426 0.068861
C53   C     C_R   0.378070 0.451274 0.954085 -0.172636
C54   C     C_R   0.618582 0.550906 0.045339 -0.181737
H1    H     H_    0.600438 0.538718 0.775918 0.169715
H2    H     H_    0.397800 0.459994 0.224077 0.171958
H3    H     H_    0.397289 0.932465 0.436623 0.148304
H4    H     H_    0.603387 0.067599 0.562742 0.146620
H5    H     H_    0.603079 0.936189 0.562160 0.147251
H6    H     H_    0.397749 0.063849 0.436939 0.147864
H7    H     H_    0.331524 0.429550 0.920585 0.207062
H8    H     H_    0.666454 0.569135 0.078968 0.202144
H9    H     H_    0.852723 0.396153 0.539580 0.168671
H10   H     H_    0.173192 0.614296 0.624527 0.171778
H11   H     H_    0.141792 0.395972 0.538864 0.165880
H12   H     H_    0.842552 0.625517 0.561753 0.176967
H13   H     H_    0.946015 0.608089 0.491444 0.146710
H14   H     H_    0.060807 0.419601 0.673993 0.153131
H15   H     H_    0.072351 0.606977 0.504182 0.159235
H16   H     H_    0.932394 0.422313 0.665146 0.156585
H17   H     H_    0.550497 0.833128 0.628751 0.166854
H18   H     H_    0.451659 0.166868 0.369838 0.162197
H19   H     H_    0.448320 0.830019 0.370726 0.160105
H20   H     H_    0.550312 0.169601 0.629811 0.161835
N1    N     N_R   0.500000 0.689440 0.500000 -0.159340
N2    N     N_R   0.500000 0.310560 0.500000 -0.150290
O1    O     O_R   0.398180 0.560840 0.499980 -0.587066
O2    O     O_R   0.601820 0.439160 0.500020 -0.571320
O3    O     O_R   0.601820 0.560840 0.500020 -0.578630
O4    O     O_R   0.398180 0.439160 0.499980 -0.550383
O5    O     O_R   0.499980 0.560820 0.367840 -0.617682
O6    O     O_R   0.500020 0.439180 0.632160 -0.599920
O7    O     O_R   0.500020 0.560820 0.632160 -0.595708
O8    O     O_R   0.499980 0.439180 0.367840 -0.597563
Zn1   Zn    Zn3+2 0.500000 0.581210 0.500000 1.055289
Zn2   Zn    Zn3+2 0.500000 0.418790 0.500000 1.077895
C55   C     C_2   0.370860 0.452539 0.760210 0.877881
O9    O     O_2   0.373209 0.402045 0.708029 -0.563077
O10   O     O_R   0.307809 0.487644 0.772738 -0.783181
H21   H     H_    0.267532 0.465263 0.736374 0.347637
C56   C     C_2   0.624788 0.551608 0.238637 0.917295
O11   O     O_2   0.644006 0.614732 0.235635 -0.541679
O12   O     O_R   0.663054 0.501840 0.288446 -0.778111
H22   H     H_    0.707601 0.523837 0.315718 0.350678
Br1   Br    Br    0.297195 0.415107 0.104979 -0.460193
Br2   Br    Br    0.701105 0.583010 0.894664 -0.468513
C57   C     C_2   0.725356 0.369045 0.476290 0.995719
O13   O     O_2   0.690092 0.363933 0.407178 -0.570414
O14   O     O_R   0.743294 0.307061 0.523816 -0.784980
H23   H     H_    0.722136 0.261609 0.495872 0.346878
C58   C     C_2   0.308596 0.625956 0.606757 0.989274
O15   O     O_2   0.360334 0.618124 0.655148 -0.594584
O16   O     O_R   0.288370 0.694999 0.581321 -0.786565
H24   H     H_    0.321957 0.733900 0.604949 0.349764
C59   C     C_2   0.269696 0.365826 0.498283 0.997333
O17   O     O_2   0.313833 0.332834 0.541143 -0.548912
O18   O     O_R   0.235519 0.333586 0.424414 -0.777297
H25   H     H_    0.253226 0.283638 0.411583 0.357475
C60   C     C_2   0.719766 0.642913 0.486051 1.001834
O19   O     O_2   0.685212 0.647844 0.416626 -0.577935
O20   O     O_R   0.736153 0.704814 0.536307 -0.778100
H26   H     H_    0.714193 0.749557 0.510092 0.348387
C61   C     C_2   0.562382 0.693584 0.648688 0.979701
O21   O     O_2   0.541471 0.705951 0.723708 -0.591491
O22   O     O_R   0.620605 0.650830 0.637668 -0.779521
H27   H     H_    0.642984 0.635772 0.696559 0.353835
C62   C     C_2   0.438739 0.306254 0.350553 0.954866
O23   O     O_2   0.459601 0.293793 0.275530 -0.599359
O24   O     O_R   0.380411 0.348804 0.361570 -0.778452
H28   H     H_    0.357516 0.363025 0.302669 0.354471
C63   C     C_2   0.435713 0.689458 0.352915 0.963702
O25   O     O_2   0.459128 0.697525 0.278100 -0.596964
O26   O     O_R   0.374426 0.648708 0.364756 -0.773009
H29   H     H_    0.355671 0.626310 0.306936 0.342895
C64   C     C_2   0.561155 0.309991 0.649539 0.969872
O27   O     O_2   0.537586 0.298895 0.723707 -0.597158
O28   O     O_R   0.620518 0.354123 0.640120 -0.780988
H30   H     H_    0.637924 0.375763 0.699006 0.341968

loop_
_geom_bond_atom_site_label_1
_geom_bond_atom_site_label_2
_ccdc_geom_bond_type
C55   O9    D    
C58   O15   D    
C18   C21   A    
C1    O1    A    
O20   H26   S    
C57   O13   D    
O26   H29   S    
C47   C49   A    
C48   C54   A    
C59   O18   S    
C24   C62   S    
O12   H22   S    
C14   C21   S    
C36   C37   A    
C19   C21   A    
O8    Zn2   S    
C37   C40   A    
C36   H4    S    
C62   O24   S    
C38   C39   A    
C30   H20   S    
C11   C14   A    
C32   C39   S    
C23   C61   S    
C18   H14   S    
O22   H27   S    
C31   C40   S    
C6    C58   S    
C9    C13   A    
C41   H1    S    
O4    Zn2   S    
C2    O3    A    
C42   H2    S    
C4    Br2   S    
C53   H7    S    
N1    Zn1   S    
C49   C51   A    
C26   N2    A    
O18   H25   S    
C7    C59   S    
C23   C27   A    
C47   C53   A    
C4    C54   A    
O2    Zn2   S    
C48   C50   A    
O1    Zn1   S    
C58   O16   S    
C41   C43   A    
C20   H16   S    
C28   H18   S    
C42   C44   A    
C57   O14   S    
C44   C46   A    
C45   C47   A    
C25   C29   A    
C46   C48   A    
C17   H13   S    
C5    C15   A    
C4    C51   A    
C27   C31   A    
C28   C32   A    
C35   C38   A    
C10   C14   A    
C23   N1    A    
C56   O11   D    
C24   N2    A    
C46   C56   S    
C54   H8    S    
O6    Zn2   S    
C12   H12   S    
C25   N1    A    
C26   C64   S    
C7    C11   A    
C5    C9    A    
C2    O2    A    
C56   O12   S    
C50   C52   A    
O14   H23   S    
C8    C12   A    
C1    C16   S    
O24   H28   S    
C2    C15   S    
C43   C45   A    
C63   O25   D    
C37   H5    S    
C38   H6    S    
C7    C16   A    
O7    Zn1   S    
C5    C57   S    
C26   C30   A    
C8    C15   A    
C55   O10   S    
C64   O27   D    
C19   H15   S    
C34   O7    A    
O28   H30   S    
N2    Zn2   S    
O3    Zn1   S    
C27   H17   S    
C61   O21   D    
C45   C55   S    
C9    H9    S    
C33   C44   S    
C36   C39   A    
C10   H10   S    
C34   C43   S    
C24   C28   A    
C20   C22   A    
C6    C10   A    
C3    C52   A    
C59   O17   D    
C62   O23   D    
C17   C22   A    
C35   H3    S    
C60   O20   S    
C35   C40   A    
C29   C31   A    
C8    C60   S    
C30   C32   A    
C3    C53   A    
C33   O5    A    
C17   C19   A    
C13   C22   S    
C18   C20   A    
C33   O8    A    
C63   O26   S    
C6    C16   A    
C29   H19   S    
C12   C13   A    
C49   C50   A    
O16   H24   S    
C64   O28   S    
C1    O4    A    
C3    Br1   S    
C34   O6    A    
O10   H21   S    
C60   O19   D    
C25   C63   S    
C41   C51   A    
O5    Zn1   S    
C11   H11   S    
C42   C52   A    
C61   O22   S    
