data_mof_unit_9888.cif
_audit_creation_date              2012-12-10T17:32:23-0500
_audit_creation_method            fapswitch 2.2
_symmetry_space_group_name_H-M    P1
_symmetry_Int_Tables_number       1
_space_group_crystal_system       triclinic
_cell_length_a                    15.563792
_cell_length_b                    15.47749
_cell_length_c                    15.52217
_cell_angle_alpha                 91.721223
_cell_angle_beta                  71.553736
_cell_angle_gamma                 111.268843
_cell_volume                      3290.18575864

loop_
_atom_site_label
_atom_site_type_symbol
_atom_type_description
_atom_site_fract_x
_atom_site_fract_y
_atom_site_fract_z
_atom_type_partial_charge
C1    C     C_R   0.461479 0.258411 0.463098 0.534191
C2    C     C_R   0.500988 0.532809 0.120510 0.094423
C3    C     C_R   0.674845 0.594852 0.104376 0.124134
C4    C     C_R   0.534015 0.741089 0.536647 0.487524
C5    C     C_R   0.410465 0.441013 0.844362 0.019045
C6    C     C_R   0.324080 0.006765 0.452968 -0.117604
C7    C     C_R   0.441445 0.160410 0.452263 0.062759
C8    C     C_R   0.640714 0.895377 0.561798 -0.131157
C9    C     C_R   0.671316 0.991899 0.555882 -0.018896
C10   C     C_R   0.616995 0.035525 0.531628 -0.123353
C11   C     C_R   0.527912 0.982873 0.516790 0.025190
C12   C     C_R   0.294233 0.472536 0.974893 -0.111128
C13   C     C_R   0.493148 0.884113 0.530618 0.026613
C14   C     C_R   0.471704 0.024796 0.489314 0.024408
C15   C     C_R   0.380651 0.967512 0.480097 0.023891
C16   C     C_R   0.756550 0.550596 0.463079 0.491254
C17   C     C_R   0.344428 0.871737 0.501888 -0.135073
C18   C     C_R   0.398461 0.830967 0.529133 -0.106205
C19   C     C_R   0.501660 0.121857 0.472462 -0.158425
C20   C     C_R   0.352745 0.103237 0.441235 0.126249
C21   C     C_R   0.553589 0.840836 0.546591 0.006550
C22   C     C_R   0.020097 0.613417 0.326726 -0.012497
C23   C     C_R   0.366273 0.509438 0.014446 -0.123724
C24   C     C_R   0.860932 0.571382 0.442551 0.007212
C25   C     C_R   0.069971 0.388927 0.640699 -0.011183
C26   C     C_R   0.990149 0.415575 0.681328 0.137590
C27   C     C_R   0.973000 0.479339 0.631848 0.135923
C28   C     C_R   0.242876 0.448008 0.534026 0.491706
C29   C     C_R   0.022256 0.498797 0.536053 0.028744
C30   C     C_R   0.108931 0.480158 0.499153 -0.014790
C31   C     C_R   0.989490 0.538005 0.476340 0.026347
C32   C     C_R   0.051187 0.571746 0.384958 0.023326
C33   C     C_R   0.139026 0.556886 0.351906 -0.135760
C34   C     C_R   0.456240 0.498287 0.978682 0.013631
C35   C     C_R   0.164429 0.507621 0.406365 -0.110379
C36   C     C_R   0.893132 0.535460 0.502126 -0.114482
C37   C     C_R   0.925286 0.612676 0.356094 -0.127331
C38   C     C_R   0.138059 0.433664 0.555618 -0.043513
C39   C     C_R   0.552157 0.550867 0.258433 0.526971
C40   C     C_R   0.445941 0.451224 0.742992 0.543218
C41   C     C_R   0.697196 0.575074 0.013512 -0.127914
C42   C     C_R   0.575903 0.567196 0.159707 0.061881
C43   C     C_R   0.312660 0.432232 0.892076 0.126083
C44   C     C_3   0.759329 0.716237 0.186912 -0.285304
C45   C     C_R   0.479433 0.464975 0.891371 0.002675
C46   C     C_1   0.761370 0.046911 0.571145 0.189861
C47   C     C_1   0.081708 0.652785 0.234749 0.173125
C48   C     C_1   0.081302 0.315914 0.686818 0.268089
C49   C     C_3   0.971909 0.629752 0.679020 -0.308010
C50   C     C_3   0.965785 0.434870 0.841411 -0.311307
C51   C     C_3   0.367245 0.392201 0.202417 -0.298003
C52   C     C_3   0.135568 0.362832 0.913996 -0.313240
C53   C     C_3   0.681797 0.411417 0.720549 -0.293080
C54   C     C_3   0.206715 0.138583 0.493286 -0.275611
C55   C     C_R   0.525918 0.524428 0.025058 0.041288
C56   C     C_R   0.623322 0.535640 0.975230 -0.035069
C57   C     C_R   0.645099 0.500857 0.890269 -0.096568
C58   C     C_R   0.571493 0.457481 0.851997 0.154221
H1    H     H_    0.272957 0.828051 0.499382 0.109205
H2    H     H_    0.839416 0.496858 0.564422 0.136022
H3    H     H_    0.227252 0.489432 0.373881 0.136537
H4    H     H_    0.772410 0.587569 0.973484 0.103038
H5    H     H_    0.350110 0.547432 0.072974 0.159977
H6    H     H_    0.224503 0.477871 0.009505 0.125698
H7    H     H_    0.818049 0.627841 0.105074 0.248089
H8    H     H_    0.826110 0.774507 0.145951 0.134165
H9    H     H_    0.764529 0.706388 0.255368 0.145879
H10   H     H_    0.695400 0.735958 0.195257 0.147462
H11   H     H_    0.868220 0.503025 0.743023 0.241257
H12   H     H_    0.255293 0.962664 0.444976 0.109403
H13   H     H_    0.921545 0.664875 0.714738 0.143210
H14   H     H_    0.010870 0.663656 0.608244 0.165374
H15   H     H_    0.025655 0.638871 0.714933 0.142250
H16   H     H_    0.856831 0.362428 0.786211 0.244566
H17   H     H_    0.952639 0.500934 0.844915 0.134128
H18   H     H_    0.045159 0.451513 0.825113 0.160776
H19   H     H_    0.926608 0.394048 0.909174 0.147039
H20   H     H_    0.380158 0.528030 0.231927 0.266856
H21   H     H_    0.378335 0.354961 0.139966 0.165339
H22   H     H_    0.406291 0.377305 0.245357 0.153305
H23   H     H_    0.568451 0.170110 0.479924 0.101324
H24   H     H_    0.287969 0.365807 0.241508 0.135884
H25   H     H_    0.244636 0.333965 0.816557 0.289255
H26   H     H_    0.084682 0.322062 0.878360 0.175974
H27   H     H_    0.119480 0.426411 0.932700 0.140948
H28   H     H_    0.121755 0.319311 0.976217 0.145055
H29   H     H_    0.533555 0.333295 0.790296 0.243881
H30   H     H_    0.677278 0.375510 0.658213 0.138503
H31   H     H_    0.716175 0.379933 0.756525 0.127150
H32   H     H_    0.725522 0.486577 0.699860 0.180931
H33   H     H_    0.275008 0.117694 0.361376 0.246026
H34   H     H_    0.686982 0.862978 0.575187 0.143030
H35   H     H_    0.155440 0.065132 0.514355 0.134887
H36   H     H_    0.169023 0.178112 0.471388 0.148996
H37   H     H_    0.227108 0.170025 0.552635 0.201764
H38   H     H_    0.646092 0.110510 0.525973 0.107795
H39   H     H_    0.363604 0.757305 0.550835 0.146773
H40   H     H_    0.899639 0.639896 0.309688 0.119711
H41   H     H_    0.185893 0.577845 0.281651 0.127054
H42   H     H_    0.717931 0.501422 0.857908 0.099668
N1    N     N_2   0.751713 0.631245 0.142561 -0.502990
N2    N     N_2   0.292473 0.142925 0.418390 -0.530623
N3    N     N_1   0.833666 0.091127 0.583395 -0.298824
N4    N     N_1   0.130976 0.684265 0.161120 -0.315442
N5    N     N_1   0.090137 0.256603 0.722518 -0.310916
N6    N     N_2   0.916531 0.531681 0.679280 -0.548546
N7    N     N_2   0.930685 0.381040 0.773283 -0.511507
N8    N     N_2   0.401841 0.491378 0.178385 -0.548407
N9    N     N_2   0.235771 0.387597 0.854659 -0.498368
N10   N     N_2   0.585076 0.400145 0.778820 -0.512037
O1    O     O_3   0.500000 0.500000 0.500000 -0.441324
O2    O     O_R   0.588830 0.499590 0.285390 -0.518186
O3    O     O_R   0.395900 0.395880 0.699370 -0.551639
O4    O     O_R   0.493280 0.582590 0.315890 -0.560588
O5    O     O_R   0.521980 0.521940 0.699340 -0.508996
O6    O     O_R   0.708210 0.582550 0.530770 -0.538176
O7    O     O_R   0.270260 0.395900 0.573760 -0.532724
O8    O     O_R   0.537060 0.322180 0.411040 -0.543203
O9    O     O_R   0.484470 0.699370 0.484430 -0.547299
O10   O     O_R   0.404710 0.279110 0.530840 -0.540356
O11   O     O_R   0.573760 0.699350 0.573690 -0.545718
O12   O     O_R   0.714470 0.499570 0.411000 -0.535983
O13   O     O_R   0.307050 0.521980 0.484470 -0.547417
Zn1   Zn    Zn3+2 0.574690 0.574670 0.574650 0.946264
Zn2   Zn    Zn3+2 0.583640 0.456100 0.403530 0.946937
Zn3   Zn    Zn3+2 0.447120 0.574690 0.447120 0.917185
Zn4   Zn    Zn3+2 0.394550 0.394550 0.574700 0.946176

loop_
_geom_bond_atom_site_label_1
_geom_bond_atom_site_label_2
_ccdc_geom_bond_type
C53   N10   S    
C55   C56   A    
C3    C42   A    
C27   C29   A    
C11   C13   A    
C44   H8    S    
H7    N1    S    
O10   Zn4   S    
H29   N10   S    
C12   C23   A    
C26   C27   A    
C24   C36   A    
C22   C32   A    
C13   C18   A    
C52   H27   S    
C12   C43   A    
C2    C55   A    
C31   C36   A    
O4    Zn3   S    
C11   C14   A    
C40   O5    A    
C20   N2    S    
C56   C57   A    
C30   C38   A    
H20   N8    S    
C52   H26   S    
C16   O12   A    
C51   H22   S    
O11   Zn1   S    
C6    C15   A    
C31   C32   A    
C8    C9    A    
C54   H35   S    
C49   H14   S    
O1    Zn2   S    
H25   N9    S    
C4    O9    A    
C8    H34   S    
O8    Zn2   S    
C10   H38   S    
C9    C10   A    
C3    N1    S    
C23   H5    S    
C22   C47   S    
C5    C43   A    
C34   C55   A    
C16   C24   S    
C58   N10   S    
C41   H4    S    
C16   O6    A    
C37   H40   S    
C24   C37   A    
C39   C42   S    
C45   C58   A    
C28   O13   A    
C51   N8    S    
O13   Zn3   S    
C27   N6    S    
C25   C26   A    
C57   H42   S    
C5    C45   A    
C40   O3    A    
C33   H41   S    
C1    O10   A    
C41   C56   A    
C29   C30   A    
C50   H18   S    
C25   C38   A    
C48   N5    T    
C25   C48   S    
C28   C38   S    
H11   N6    S    
C39   O4    A    
O1    Zn3   S    
C17   C18   A    
C54   H37   S    
C13   C21   A    
C35   H3    S    
C34   C45   A    
O7    Zn4   S    
C51   H24   S    
O2    Zn2   S    
C17   H1    S    
H16   N7    S    
C39   O2    A    
C18   H39   S    
C7    C19   A    
C53   H31   S    
C50   N7    S    
C49   H15   S    
C44   H10   S    
H33   N2    S    
C50   H19   S    
O5    Zn1   S    
C6    C20   A    
C6    H12   S    
C3    C41   A    
C23   C34   A    
C47   N4    T    
O6    Zn1   S    
O1    Zn1   S    
C1    C7    S    
C14   C19   A    
C54   N2    S    
C36   H2    S    
C8    C21   A    
C26   N7    S    
C44   N1    S    
C15   C17   A    
C49   N6    S    
O3    Zn4   S    
C30   C35   A    
C46   N3    T    
C28   O7    A    
C32   C33   A    
O12   Zn2   S    
C52   H28   S    
C29   C31   A    
C50   H17   S    
O1    Zn4   S    
C4    C21   S    
C22   C37   A    
C57   C58   A    
C52   N9    S    
C2    C42   A    
C12   H6    S    
C2    N8    S    
C33   C35   A    
C4    O11   A    
C53   H30   S    
C1    O8    A    
C51   H21   S    
C54   H36   S    
C10   C11   A    
O9    Zn3   S    
C9    C46   S    
C7    C20   A    
C49   H13   S    
C5    C40   S    
C53   H32   S    
C14   C15   A    
C44   H9    S    
C43   N9    S    
C19   H23   S    
