data_mof_unit_40370.cif
_audit_creation_date              2012-12-10T20:49:46-0500
_audit_creation_method            fapswitch 2.2
_symmetry_space_group_name_H-M    P1
_symmetry_Int_Tables_number       1
_space_group_crystal_system       triclinic
_cell_length_a                    8.091173
_cell_length_b                    8.935365
_cell_length_c                    16.688871
_cell_angle_alpha                 90.016175
_cell_angle_beta                  83.863168
_cell_angle_gamma                 90.019861
_cell_volume                      1199.65063697

loop_
_atom_site_label
_atom_site_type_symbol
_atom_type_description
_atom_site_fract_x
_atom_site_fract_y
_atom_site_fract_z
_atom_type_partial_charge
C1    C     C_R   0.500014 0.782087 0.499984 0.937788
C2    C     C_R   0.499993 0.217910 0.499949 0.951737
C3    C     C_1   0.500010 0.934820 0.499959 -0.143461
C4    C     C_1   0.499975 0.065159 0.499942 -0.142013
C5    C     C_R   0.474630 0.505476 0.654327 0.910258
C6    C     C_R   0.525128 0.502274 0.345873 0.928864
C7    C     C_R   0.456726 0.535420 0.741258 -0.210353
C8    C     C_R   0.546539 0.545580 0.261373 -0.145598
C9    C     C_R   0.597747 0.511260 0.781630 -0.196473
C10   C     C_R   0.436363 0.653375 0.236913 -0.246683
C11   C     C_R   0.601571 0.558505 0.860216 -0.073970
C12   C     C_R   0.460947 0.714303 0.160414 -0.117480
C13   C     C_R   0.464172 0.632206 0.900357 0.091069
C14   C     C_R   0.594786 0.666389 0.106650 0.124977
C15   C     C_R   0.319649 0.649853 0.862676 -0.235322
C16   C     C_R   0.709184 0.563400 0.131286 -0.244594
C17   C     C_R   0.312659 0.602531 0.783300 0.466279
C18   C     C_R   0.685777 0.500444 0.208245 0.374657
C19   C     C_2   0.460379 0.674377 0.985195 -0.172682
C20   C     C_2   0.598897 0.697546 0.020716 -0.177783
H1    H     H_    0.212295 0.701911 0.895747 0.185109
H2    H     H_    0.811156 0.525773 0.088664 0.175959
H3    H     H_    0.372459 0.795167 0.142231 0.159350
H4    H     H_    0.711487 0.534123 0.889471 0.169867
H5    H     H_    0.707453 0.457211 0.751863 0.223601
H6    H     H_    0.332239 0.692920 0.277668 0.178303
H7    H     H_    0.719327 0.704723 0.985368 0.170486
H8    H     H_    0.340693 0.665984 0.021345 0.159242
N1    N     N_1   0.926360 0.500000 0.499990 0.010609
N2    N     N_1   0.073640 0.500000 0.500010 0.010801
O1    O     O_R   0.363150 0.714660 0.500000 -0.605604
O2    O     O_R   0.636850 0.285340 0.500000 -0.596987
O3    O     O_R   0.636850 0.714660 0.500000 -0.628516
O4    O     O_R   0.363150 0.285340 0.500000 -0.610611
O5    O     O_R   0.346950 0.500000 0.615800 -0.539307
O6    O     O_R   0.653050 0.500000 0.384200 -0.560583
O7    O     O_R   0.620700 0.500000 0.615800 -0.624249
O8    O     O_R   0.379300 0.500000 0.384200 -0.621304
Zn1   Zn    Zn3+2 0.317220 0.500000 0.500010 1.070736
Zn2   Zn    Zn3+2 0.682780 0.500000 0.499990 1.067140
S1    S     S_3+6 0.827692 0.361537 0.233831 0.044531
O9    O     O_2   0.735826 0.239065 0.281624 -0.270314
O10   O     O_2   0.919284 0.294824 0.159143 -0.290511
O11   O     O_3   0.966069 0.438943 0.289833 -0.513436
H9    H     H_    0.022124 0.517867 0.255182 0.341550
S2    S     S_3+6 0.123638 0.634347 0.740551 0.016832
O12   O     O_2   0.057211 0.487852 0.713306 -0.314811
O13   O     O_2   0.995778 0.704245 0.801196 -0.328419
O14   O     O_3   0.159129 0.750460 0.661287 -0.537676
H10   H     H_    0.054228 0.750638 0.635639 0.378996

loop_
_geom_bond_atom_site_label_1
_geom_bond_atom_site_label_2
_ccdc_geom_bond_type
C2    C4    S    
C6    O8    A    
C15   C17   A    
N1    N2    T    
C20   H7    S    
C5    O7    A    
C9    C11   A    
S1    O9    D    
O5    Zn1   S    
C19   C20   D    
S2    O14   S    
O6    Zn2   S    
C16   H2    S    
C10   H6    S    
C13   C15   A    
C9    H5    S    
C16   C18   A    
C17   S2    S    
C19   H8    S    
S1    O10   D    
C12   H3    S    
C2    O4    A    
C15   H1    S    
C10   C12   A    
O1    Zn1   S    
C5    O5    A    
N1    Zn2   S    
C8    C10   A    
C6    O6    A    
N2    Zn1   S    
O7    Zn2   S    
C14   C16   A    
O2    Zn2   S    
C1    O1    A    
O8    Zn1   S    
S1    O11   S    
S2    O13   D    
O3    Zn2   S    
C13   C19   S    
C1    O3    A    
C3    C4    T    
C7    C9    A    
C11   H4    S    
C11   C13   A    
O11   H9    S    
C14   C20   S    
C2    O2    A    
O14   H10   S    
C18   S1    S    
C5    C7    S    
S2    O12   D    
C6    C8    S    
C1    C3    S    
C8    C18   A    
O4    Zn1   S    
C12   C14   A    
C7    C17   A    
