data_mof_unit_35742.cif
_audit_creation_date              2012-12-10T16:56:31-0500
_audit_creation_method            fapswitch 2.2
_symmetry_space_group_name_H-M    P1
_symmetry_Int_Tables_number       1
_space_group_crystal_system       triclinic
_cell_length_a                    7.843916
_cell_length_b                    8.668227
_cell_length_c                    15.723721
_cell_angle_alpha                 91.695393
_cell_angle_beta                  86.323881
_cell_angle_gamma                 95.043993
_cell_volume                      1062.46071797

loop_
_atom_site_label
_atom_site_type_symbol
_atom_type_description
_atom_site_fract_x
_atom_site_fract_y
_atom_site_fract_z
_atom_type_partial_charge
C1    C     C_R   0.546435 0.794682 0.497823 0.947244
C2    C     C_3   0.378133 0.367868 0.029719 0.316574
C3    C     C_1   0.508889 0.500998 0.749918 -0.220317
C4    C     C_1   0.487650 0.489300 0.250138 -0.214084
C5    C     C_3   0.329812 0.502794 0.975840 0.337833
C6    C     C_3   0.645859 0.466724 0.024632 0.265949
C7    C     C_3   0.492409 0.483273 0.915980 -0.265146
C8    C     C_3   0.484763 0.486738 0.083945 -0.234503
C9    C     C_1   0.506341 0.495440 0.825036 0.027016
C10   C     C_1   0.482411 0.485049 0.175115 0.056449
C11   C     C_3   0.847562 0.772152 0.963556 0.159186
C12   C     C_R   0.453570 0.205322 0.502228 0.946832
C13   C     C_3   0.957998 0.874792 0.900730 -0.893870
C14   C     C_3   0.216858 0.127583 0.031215 0.116225
C15   C     C_3   0.115986 0.012715 0.091761 -0.800749
C16   C     C_3   0.500059 0.819169 0.130316 0.135329
C17   C     C_3   0.563286 0.988790 0.123211 -0.903841
C18   C     C_3   0.525008 0.155752 0.862329 0.042078
C19   C     C_3   0.528881 0.982411 0.847067 -0.757683
C20   C     C_3   0.824931 0.333353 0.102307 0.176504
C21   C     C_3   0.937141 0.378287 0.176100 -0.726103
C22   C     C_3   0.133073 0.453403 0.870924 0.093350
C23   C     C_R   0.503245 0.502377 0.661492 0.890287
C24   C     C_3   0.946816 0.398418 0.860678 -0.774599
C25   C     C_R   0.496562 0.497048 0.338514 0.889594
C26   C     C_2   0.569635 0.959126 0.496611 -0.375348
C27   C     C_2   0.430381 0.040885 0.503529 -0.376270
C28   C     C_3   0.437108 0.620846 0.030634 0.352899
C29   C     C_3   0.540608 0.347353 0.969648 0.244493
C30   C     C_3   0.597368 0.601276 0.971207 0.340018
H1    H     H_    0.921826 0.674348 0.975115 0.258990
H2    H     H_    0.172956 0.015151 0.154568 0.267002
H3    H     H_    0.618563 0.757760 0.132355 0.137128
H4    H     H_    0.424277 0.802725 0.192015 0.160233
H5    H     H_    0.460851 0.064303 0.142826 0.281000
H6    H     H_    0.668398 0.015793 0.166821 0.193379
H7    H     H_    0.613601 0.013624 0.057204 0.305241
H8    H     H_    0.599878 0.213695 0.808175 0.177351
H9    H     H_    0.388593 0.179551 0.862442 0.117339
H10   H     H_    0.473896 0.918875 0.903991 0.302417
H11   H     H_    0.451560 0.944751 0.792225 0.193895
H12   H     H_    0.824040 0.837003 0.024120 0.148524
H13   H     H_    0.661974 0.954179 0.830934 0.283814
H14   H     H_    0.884539 0.247305 0.059689 0.185025
H15   H     H_    0.700770 0.279801 0.129633 0.137867
H16   H     H_    0.869230 0.454152 0.222486 0.234674
H17   H     H_    0.966258 0.272999 0.208986 0.209086
H18   H     H_    0.058648 0.442941 0.152700 0.304655
H19   H     H_    0.203143 0.349559 0.856404 0.113793
H20   H     H_    0.171664 0.544031 0.823249 0.172805
H21   H     H_    0.866982 0.497224 0.864315 0.280037
H22   H     H_    0.933157 0.340661 0.797180 0.197289
H23   H     H_    0.950518 0.825084 0.834997 0.268070
H24   H     H_    0.903302 0.313250 0.910147 0.291446
H25   H     H_    0.700353 0.012422 0.490015 0.180499
H26   H     H_    0.299664 0.987592 0.510134 0.180425
H27   H     H_    0.011174 0.382481 0.436423 0.193124
H28   H     H_    0.988817 0.617546 0.563553 0.192048
H29   H     H_    0.914207 0.993242 0.902874 0.255402
H30   H     H_    0.094385 0.881905 0.916370 0.228787
H31   H     H_    0.331731 0.072136 0.006305 0.218063
H32   H     H_    0.137943 0.151972 0.977842 0.137120
H33   H     H_    0.981235 0.039079 0.103063 0.204868
H34   H     H_    0.116607 0.893363 0.064918 0.261447
N1    N     N_2   0.950320 0.457950 0.477300 -0.177757
N2    N     N_2   0.049680 0.542050 0.522700 -0.177927
O1    O     O_R   0.389250 0.738570 0.505570 -0.611337
O2    O     O_3   0.262025 0.264469 0.077271 -0.605863
O3    O     O_3   0.395058 0.768286 0.062608 -0.606588
O4    O     O_3   0.598448 0.203512 0.939807 -0.632382
O5    O     O_3   0.811044 0.465335 0.054569 -0.610519
O6    O     O_3   0.159050 0.515713 0.953924 -0.577463
O7    O     O_R   0.610750 0.261430 0.494430 -0.611507
O8    O     O_R   0.678390 0.711630 0.491020 -0.627083
O9    O     O_R   0.321610 0.288370 0.508980 -0.628368
O10   O     O_R   0.355460 0.513480 0.630490 -0.620243
O11   O     O_R   0.644540 0.486520 0.369510 -0.618749
O12   O     O_R   0.644600 0.486540 0.615950 -0.617019
O13   O     O_R   0.355400 0.513460 0.384050 -0.614719
O14   O     O_3   0.691890 0.724476 0.927409 -0.614317
Zn1   Zn    Zn3+2 0.306940 0.517990 0.509710 0.942026
Zn2   Zn    Zn3+2 0.693060 0.482010 0.490290 0.941623

loop_
_geom_bond_atom_site_label_1
_geom_bond_atom_site_label_2
_ccdc_geom_bond_type
C18   O4    S    
C24   H22   S    
C7    C29   S    
C3    C23   S    
C28   O3    S    
C23   O10   A    
C26   H25   S    
C4    C25   S    
C15   H2    S    
C13   H30   S    
C26   C27   D    
C2    C29   S    
C25   O11   A    
C1    O8    A    
C29   O4    S    
C5    O6    S    
C2    O2    S    
C24   H24   S    
C14   H32   S    
C11   H12   S    
C18   C19   S    
C16   H4    S    
H28   N2    S    
C16   C17   S    
C15   H34   S    
C20   O5    S    
C17   H6    S    
C20   H15   S    
C22   H20   S    
C21   H18   S    
C30   O14   S    
C24   H21   S    
C11   H1    S    
C7    C30   S    
C12   O7    A    
O8    Zn2   S    
C22   O6    S    
C20   H14   S    
C19   H13   S    
C13   H23   S    
C6    O5    S    
C12   C27   S    
C11   O14   S    
C5    C7    S    
C27   H26   S    
O9    Zn1   S    
C6    C8    S    
C14   H31   S    
C18   H9    S    
C3    C9    T    
C16   H3    S    
C5    C28   S    
O12   Zn2   S    
C17   H7    S    
C22   H19   S    
C6    C30   S    
O1    Zn1   S    
C1    C26   S    
C8    C28   S    
C22   C24   S    
C2    C5    S    
C4    C10   T    
O7    Zn2   S    
O13   Zn1   S    
C21   H16   S    
C7    C9    S    
C15   H33   S    
C25   O13   A    
C2    C8    S    
C16   O3    S    
H27   N1    S    
O10   Zn1   S    
C13   H29   S    
C28   C30   S    
C18   H8    S    
N2    Zn1   S    
C11   C13   S    
N1    Zn2   S    
O11   Zn2   S    
C1    O1    A    
C23   O12   A    
C19   H10   S    
C6    C29   S    
C20   C21   S    
C8    C10   S    
N1    N2    D    
C12   O9    A    
C14   O2    S    
C14   C15   S    
C17   H5    S    
C19   H11   S    
C21   H17   S    
