data_mof_unit_50494.cif
_audit_creation_date              2012-10-26T19:46:28-0400
_audit_creation_method            fapswitch 2.2
_symmetry_space_group_name_H-M    P1
_symmetry_Int_Tables_number       1
_space_group_crystal_system       triclinic
_cell_length_a                    10.828523
_cell_length_b                    9.605176
_cell_length_c                    15.150476
_cell_angle_alpha                 88.840791
_cell_angle_beta                  92.057494
_cell_angle_gamma                 89.52122
_cell_volume                      1574.39576817

loop_
_atom_site_label
_atom_site_type_symbol
_atom_type_description
_atom_site_fract_x
_atom_site_fract_y
_atom_site_fract_z
_atom_type_partial_charge
C1    C     C_R   0.262328 0.500420 0.499254 0.551814
C2    C     C_R   0.935712 0.625067 0.509194 -0.134261
C3    C     C_R   0.936507 0.376204 0.484087 -0.137108
C4    C     C_R   0.063498 0.625509 0.509269 -0.141749
C5    C     C_R   0.393794 0.559607 0.094390 -0.120846
C6    C     C_R   0.521404 0.377284 0.910484 -0.121976
C7    C     C_R   0.456297 0.618516 0.904637 -0.125208
C8    C     C_R   0.593226 0.442097 0.099008 -0.122901
C9    C     C_R   0.395589 0.561075 0.186512 0.050700
C10   C     C_R   0.522584 0.374956 0.818486 0.061970
C11   C     C_R   0.456430 0.619043 0.812524 0.063675
C12   C     C_R   0.737669 0.499750 0.499243 0.552134
C13   C     C_R   0.596130 0.442754 0.191125 0.056396
C14   C     C_R   0.497401 0.503163 0.234802 0.101765
C15   C     C_R   0.492349 0.497305 0.767994 0.086985
C16   C     C_R   0.492338 0.500373 0.050450 -0.005559
C17   C     C_R   0.489875 0.498741 0.953708 -0.005608
C18   C     C_R   0.871629 0.500107 0.497577 0.026288
C19   C     C_R   0.128348 0.500894 0.497854 0.023925
C20   C     C_R   0.498885 0.501138 0.330649 0.617120
C21   C     C_R   0.497852 0.498896 0.670354 0.580375
C22   C     C_R   0.420687 0.078707 0.445258 0.238261
C23   C     C_R   0.578427 0.921467 0.555425 0.244572
C24   C     C_R   0.582781 0.069461 0.552809 0.186350
C25   C     C_R   0.423251 0.930858 0.442694 0.173602
C26   C     C_R   0.064275 0.376376 0.484891 -0.132423
Cu1   Cu    Cu3+1 0.500000 0.640660 0.500000 0.987657
Cu2   Cu    Cu3+1 0.500000 0.359340 0.500000 0.988042
H1    H     H_    0.314377 0.602384 0.057284 0.110994
H2    H     H_    0.248364 0.123563 0.396842 0.210765
H3    H     H_    0.645611 0.874370 0.678537 0.227338
H4    H     H_    0.751465 0.868788 0.599300 0.210674
H5    H     H_    0.752667 0.153252 0.554889 0.227754
H6    H     H_    0.658145 0.222269 0.629898 0.305358
H7    H     H_    0.288135 0.796662 0.399357 0.277424
H8    H     H_    0.405820 0.827973 0.327147 0.268554
H9    H     H_    0.276884 0.718824 0.208311 0.228564
H10   H     H_    0.214152 0.558717 0.212561 0.230645
H11   H     H_    0.493368 0.170900 0.796328 0.230151
H12   H     H_    0.544821 0.283123 0.948300 0.108979
H13   H     H_    0.643719 0.217469 0.801449 0.223241
H14   H     H_    0.327059 0.766873 0.781929 0.222551
H15   H     H_    0.474085 0.824862 0.785676 0.219805
H16   H     H_    0.779422 0.435481 0.220982 0.225195
H17   H     H_    0.708581 0.279364 0.223288 0.229960
H18   H     H_    0.431087 0.712937 0.937889 0.107622
H19   H     H_    0.670364 0.397316 0.065455 0.110225
H20   H     H_    0.112514 0.279123 0.475108 0.132569
H21   H     H_    0.887523 0.722415 0.518665 0.129237
H22   H     H_    0.889035 0.279409 0.472326 0.122047
H23   H     H_    0.111220 0.722960 0.519074 0.129352
H24   H     H_    0.360076 0.134761 0.321734 0.228609
N1    N     N_R   0.500000 0.852070 0.500000 -0.216926
N2    N     N_3   0.699951 0.383799 0.240420 -0.628999
N3    N     N_R   0.500000 0.147930 0.500000 -0.219889
N4    N     N_3   0.338479 0.156925 0.386708 -0.547020
N5    N     N_3   0.660728 0.843484 0.614017 -0.541031
N6    N     N_3   0.684378 0.131640 0.599794 -0.653267
N7    N     N_3   0.349035 0.869019 0.374337 -0.660808
N8    N     N_3   0.292029 0.616374 0.231003 -0.646736
N9    N     N_3   0.555586 0.247685 0.777393 -0.625279
N10   N     N_3   0.417481 0.743229 0.764916 -0.600506
O1    O     O_R   0.319640 0.618740 0.499990 -0.521872
O2    O     O_R   0.680360 0.381260 0.500010 -0.525278
O3    O     O_R   0.680360 0.618740 0.500010 -0.486652
O4    O     O_R   0.319640 0.381260 0.499990 -0.481952
O5    O     O_R   0.499990 0.618780 0.371460 -0.509861
O6    O     O_R   0.500010 0.381220 0.628540 -0.494279
O7    O     O_R   0.500010 0.618780 0.628540 -0.440773
O8    O     O_R   0.499990 0.381220 0.371460 -0.460480

loop_
_geom_bond_atom_site_label_1
_geom_bond_atom_site_label_2
_ccdc_geom_bond_type
H8    N7    S    
C6    C10   A    
C2    C4    A    
C23   C24   A    
Cu1   N1    S    
C5    C9    A    
C8    C13   A    
Cu1   O3    S    
C2    H21   S    
H13   N9    S    
C2    C18   A    
C12   O3    A    
H14   N10   S    
C20   O5    A    
Cu2   O4    S    
Cu1   O7    S    
H16   N2    S    
C26   H20   S    
C9    C14   A    
C11   N10   S    
H2    N4    S    
C9    N8    S    
C1    O4    A    
C8    H19   S    
C8    C16   A    
C13   C14   A    
C24   N3    A    
C7    C11   A    
C20   O8    A    
H5    N6    S    
Cu1   O1    S    
H4    N5    S    
H10   N8    S    
C1    O1    A    
H7    N7    S    
Cu2   O6    S    
C3    H22   S    
C25   N1    A    
H17   N2    S    
C23   N1    A    
C5    H1    S    
C10   C15   A    
C21   O6    A    
C12   O2    A    
H6    N6    S    
C6    H12   S    
C1    C19   S    
C10   N9    S    
Cu1   O5    S    
C4    H23   S    
H9    N8    S    
C7    H18   S    
C14   C20   S    
C15   C21   S    
H11   N9    S    
Cu2   O2    S    
C3    C18   A    
C24   N6    S    
C13   N2    S    
C12   C18   S    
Cu1   Cu2   S    
C23   N5    S    
C6    C17   A    
C5    C16   A    
C22   N4    S    
C22   N3    A    
C25   N7    S    
C4    C19   A    
C11   C15   A    
Cu2   N3    S    
C3    C26   A    
Cu2   O8    S    
H3    N5    S    
H24   N4    S    
H15   N10   S    
C21   O7    A    
C16   C17   S    
C7    C17   A    
C22   C25   A    
C19   C26   A    
