data_mof_unit_43494.cif
_audit_creation_date              2013-03-05T16:03:48-0500
_audit_creation_method            fapswitch 2.2
_symmetry_space_group_name_H-M    P1
_symmetry_Int_Tables_number       1
_space_group_crystal_system       triclinic
_cell_length_a                    11.008219
_cell_length_b                    9.58893
_cell_length_c                    10.929898
_cell_angle_alpha                 90.275821
_cell_angle_beta                  92.603328
_cell_angle_gamma                 90.498747
_cell_volume                      1152.47763506

loop_
_atom_site_label
_atom_site_type_symbol
_atom_site_description
_atom_site_fract_x
_atom_site_fract_y
_atom_site_fract_z
_atom_type_partial_charge
O1    O     O_R   0.319640 0.618740 0.499990 -0.533657
O2    O     O_R   0.680360 0.618740 0.500010 -0.536206
O3    O     O_R   0.319620 0.381170 0.499990 -0.531363
O4    O     O_R   0.680380 0.381170 0.500010 -0.530876
C1    C     C_R   0.262618 0.499247 0.504968 0.892834
C2    C     C_R   0.737804 0.500394 0.497293 0.885344
O5    O     O_R   0.500000 0.618750 0.321940 -0.549172
O6    O     O_R   0.500000 0.618750 0.678060 -0.543304
O7    O     O_R   0.499970 0.381180 0.321940 -0.524472
O8    O     O_R   0.500030 0.381180 0.678060 -0.527987
C3    C     C_R   0.499019 0.499634 0.265366 0.924023
C4    C     C_R   0.498736 0.500134 0.734371 0.930392
Cu1   Cu    Cu3+1 0.500000 0.640660 0.500000 1.139704
Cu2   Cu    Cu3+1 0.500000 0.359340 0.500000 1.160730
C5    C     C_2   0.467273 0.394191 0.933715 0.262446
C6    C     C_2   0.508732 0.389886 0.062652 0.271879
C7    C     C_2   0.509250 0.499790 0.866498 -0.377739
C8    C     C_2   0.481016 0.499088 0.133380 -0.389815
H1    H     H_    0.565145 0.582007 0.909629 0.178739
H2    H     H_    0.432321 0.587315 0.093371 0.183752
C9    C     C_R   0.062337 0.371266 0.498674 0.232401
C10   C     C_R   0.935476 0.372645 0.490590 0.234742
C11   C     C_R   0.872167 0.500588 0.495496 -0.333955
C12   C     C_R   0.128967 0.497789 0.511714 -0.326474
C13   C     C_R   0.939236 0.627184 0.508290 0.222780
C14   C     C_R   0.066029 0.624782 0.523101 0.232041
C15   C     C_R   0.430719 0.072776 0.414834 0.410151
C16   C     C_R   0.569336 0.075227 0.585153 0.408389
C17   C     C_R   0.429688 0.924701 0.415641 0.404750
C18   C     C_R   0.569031 0.927195 0.585333 0.407438
N1    N     N_R   0.500000 0.852070 0.500000 -0.296927
N2    N     N_R   0.500000 0.147940 0.500000 -0.296548
N3    N     N_R   0.376961 0.294973 0.886872 0.179618
O9    O     O_R   0.358373 0.179779 0.945854 -0.200082
O10   O     O_R   0.296018 0.332445 0.803208 -0.298066
N4    N     N_R   0.590700 0.281645 0.104073 0.181292
O11   O     O_R   0.589321 0.161574 0.048106 -0.205378
O12   O     O_R   0.684319 0.313437 0.176006 -0.283006
N5    N     N_R   0.121496 0.238621 0.493241 0.187918
O13   O     O_R   0.173022 0.187191 0.592372 -0.214570
O14   O     O_R   0.097424 0.156164 0.400234 -0.183466
N6    N     N_R   0.872709 0.241090 0.477856 0.184901
O15   O     O_R   0.821638 0.205725 0.372536 -0.220533
O16   O     O_R   0.890842 0.145683 0.560699 -0.182109
N7    N     N_R   0.880341 0.760126 0.507463 0.188613
O17   O     O_R   0.831722 0.807379 0.405288 -0.253182
O18   O     O_R   0.899486 0.845527 0.599278 -0.177832
N8    N     N_R   0.129790 0.752775 0.552837 0.187924
O19   O     O_R   0.186056 0.767814 0.659457 -0.267000
O20   O     O_R   0.120586 0.859082 0.479631 -0.182942
Cl1   Cl    Cl    0.341851 0.157987 0.300541 -0.370599
Cl2   Cl    Cl    0.661382 0.163647 0.697170 -0.374645
Cl3   Cl    Cl    0.333894 0.835856 0.306994 -0.393925
Cl4   Cl    Cl    0.657410 0.841911 0.699953 -0.386973

loop_
_geom_bond_atom_site_label_1
_geom_bond_atom_site_label_2
_geom_bond_distance
_ccdc_geom_bond_type
C4    C7    1.443543 S    
O5    Cu1   1.956480 S    
O7    Cu2   1.958401 S    
C3    C8    1.447184 S    
O6    Cu1   1.958490 S    
C15   C17   1.419901 A    
C16   Cl2   1.762642 S    
C9    N5    1.436184 S    
C14   N8    1.437017 S    
O6    C4    1.296121 A    
C9    C10   1.395474 A    
N8    O20   1.300719 A    
N3    O9    1.300957 A    
C13   C14   1.398201 A    
N5    O14   1.301118 A    
C10   N6    1.436139 S    
N7    O17   1.301433 A    
C6    N4    1.442269 S    
N4    O12   1.300691 A    
O5    C3    1.295937 A    
C18   Cl4   1.760039 S    
O7    C3    1.295759 A    
O2    C2    1.304777 A    
O3    Cu2   1.998472 S    
N6    O16   1.300539 A    
C17   N1    1.372961 A    
O1    C1    1.304235 A    
C2    C11   1.480104 S    
O8    C4    1.293979 A    
C16   C18   1.419448 A    
N8    O19   1.301429 A    
N3    O10   1.301525 A    
C15   Cl1   1.760086 S    
C17   Cl3   1.763185 S    
C8    H2    1.088327 S    
C11   C13   1.418320 A    
O4    Cu2   1.994848 S    
C18   N1    1.373285 A    
C9    C12   1.415479 A    
O4    C2    1.302652 A    
O1    Cu1   1.994713 S    
N6    O15   1.300118 A    
C5    C6    1.462356 S    
C13   N7    1.435069 S    
C1    C12   1.476391 S    
C16   N2    1.373296 A    
C6    C8    1.344007 D    
O8    Cu2   1.956395 S    
N7    O18   1.300752 A    
Cu2   N2    2.027100 S    
N5    O13   1.301183 A    
C5    C7    1.344786 D    
O2    Cu1   1.998350 S    
C10   C11   1.418218 A    
N4    O11   1.300803 A    
C7    H1    1.088108 S    
C15   N2    1.373714 A    
Cu1   Cu2   2.697558 S    
Cu1   N1    2.027196 S    
C12   C14   1.414014 A    
C5    N3    1.445093 S    
O3    C1    1.301361 A    
