data_mof_unit_54265.cif
_audit_creation_date              2012-12-10T17:28:36-0500
_audit_creation_method            fapswitch 2.2
_symmetry_space_group_name_H-M    P1
_symmetry_Int_Tables_number       1
_space_group_crystal_system       triclinic
_cell_length_a                    10.751793
_cell_length_b                    11.955165
_cell_length_c                    12.910167
_cell_angle_alpha                 93.71834
_cell_angle_beta                  90.48963
_cell_angle_gamma                 84.245904
_cell_volume                      1647.62521216

loop_
_atom_site_label
_atom_site_type_symbol
_atom_type_description
_atom_site_fract_x
_atom_site_fract_y
_atom_site_fract_z
_atom_type_partial_charge
C1    C     C_R   0.500006 0.522962 0.700872 0.865438
C2    C     C_R   0.532407 0.552672 0.133722 -0.262690
C3    C     C_R   0.492688 0.448542 0.973541 -0.046371
C4    C     C_R   0.525888 0.547730 0.027121 -0.079625
C5    C     C_R   0.407396 0.954122 0.386161 -0.319529
C6    C     C_R   0.591375 0.045403 0.613617 -0.303451
C7    C     C_R   0.413116 0.838033 0.399310 -0.012114
C8    C     C_R   0.583934 0.161535 0.601719 0.010647
C9    C     C_R   0.537148 0.858381 0.550656 -0.051240
C10   C     C_R   0.464536 0.141466 0.447956 -0.042804
C11   C     C_R   0.532935 0.975604 0.541227 0.094313
C12   C     C_R   0.501363 0.477190 0.299371 0.963875
C13   C     C_R   0.467756 0.024046 0.457505 0.086518
C14   C     C_R   0.741648 0.498578 0.500963 0.919001
C15   C     C_R   0.261181 0.504498 0.516328 0.907238
C16   C     C_R   0.884239 0.367547 0.659882 0.092309
C17   C     C_R   0.084036 0.719868 0.510027 0.103782
C18   C     C_R   0.951400 0.273420 0.700568 0.108978
C19   C     C_R   0.020384 0.794793 0.442625 0.072683
C20   C     C_R   0.080198 0.261575 0.693975 -0.143426
C21   C     C_R   0.927595 0.756699 0.377206 -0.186911
C22   C     C_R   0.141594 0.346813 0.655125 0.083614
C23   C     C_R   0.502898 0.461738 0.187887 -0.159127
C24   C     C_R   0.884286 0.651648 0.389417 0.090696
C25   C     C_R   0.074460 0.428816 0.593794 0.020465
C26   C     C_R   0.936366 0.583997 0.468800 0.031575
C27   C     C_R   0.943040 0.429981 0.587460 -0.005598
C28   C     C_R   0.051500 0.607662 0.510018 0.024195
C29   C     C_R   0.129386 0.516227 0.546879 -0.182330
C30   C     C_R   0.876299 0.499303 0.514690 -0.181123
C31   C     C_R   0.506302 0.537514 0.812763 -0.205149
C32   C     C_R   0.550426 0.641115 0.973556 0.672100
C33   C     C_R   0.467542 0.355193 0.027085 0.608903
C34   C     C_R   0.540752 0.637057 0.866228 0.005122
C35   C     C_R   0.471495 0.361510 0.134966 -0.009922
C36   C     C_R   0.483927 0.444399 0.867157 -0.239184
F1    F     F_    0.583645 0.736410 0.025275 -0.664214
F2    F     F_    0.436131 0.259313 0.975233 -0.682943
H1    H     H_    0.885291 0.810537 0.319497 0.172149
H2    H     H_    0.366609 0.784317 0.344081 0.152500
H3    H     H_    0.752023 0.500313 0.699461 0.174516
H4    H     H_    0.707968 0.367089 0.708731 0.213067
H5    H     H_    0.117022 0.819765 0.637748 0.175654
H6    H     H_    0.235897 0.800835 0.551992 0.201623
H7    H     H_    0.846975 0.245757 0.825171 0.215774
H8    H     H_    0.826314 0.160831 0.717153 0.175587
H9    H     H_    0.144242 0.906583 0.417060 0.184792
H10   H     H_    0.037897 0.949597 0.511273 0.188130
H11   H     H_    0.276633 0.445780 0.706546 0.189099
H12   H     H_    0.132640 0.196795 0.736131 0.176679
H13   H     H_    0.329040 0.307933 0.661240 0.241158
H14   H     H_    0.835000 0.604177 0.243168 0.191196
H15   H     H_    0.718058 0.672527 0.315452 0.218347
H16   H     H_    0.501069 0.197505 0.166740 0.227430
H17   H     H_    0.349220 0.251165 0.168958 0.213780
H18   H     H_    0.642308 0.708628 0.761538 0.185357
H19   H     H_    0.490569 0.767075 0.776106 0.211260
H20   H     H_    0.356267 0.988718 0.320961 0.160994
H21   H     H_    0.640777 0.010892 0.679688 0.158814
H22   H     H_    0.558328 0.628818 0.174986 0.221726
H23   H     H_    0.459630 0.367488 0.826469 0.233464
H24   H     H_    0.413853 0.180242 0.384668 0.145599
H25   H     H_    0.589464 0.819662 0.613008 0.121655
H26   H     H_    0.624813 0.214735 0.659868 0.121438
N1    N     N_R   0.523130 0.207800 0.519340 -0.110436
N2    N     N_3   0.570287 0.733470 0.814540 -0.391215
N3    N     N_R   0.476870 0.792200 0.480660 -0.111593
N4    N     N_3   0.779565 0.418300 0.719319 -0.458246
N5    N     N_3   0.167964 0.760181 0.587741 -0.430598
N6    N     N_3   0.892624 0.199034 0.762903 -0.455877
N7    N     N_3   0.050326 0.908368 0.437656 -0.454371
N8    N     N_3   0.260285 0.361152 0.701296 -0.438614
N9    N     N_3   0.794616 0.611346 0.316982 -0.446311
N10   N     N_3   0.439898 0.268010 0.190110 -0.430093
O1    O     O_R   0.506170 0.421700 0.658830 -0.669011
O2    O     O_R   0.493830 0.578300 0.341170 -0.641544
O3    O     O_R   0.491330 0.609310 0.646410 -0.633149
O4    O     O_R   0.508670 0.390690 0.353590 -0.589975
O5    O     O_R   0.690650 0.406190 0.506220 -0.615503
O6    O     O_R   0.309350 0.593810 0.493780 -0.604480
O7    O     O_R   0.675800 0.593810 0.493800 -0.612382
O8    O     O_R   0.324200 0.406190 0.506200 -0.631676
Zn1   Zn    Zn3+2 0.509910 0.374730 0.508290 0.936382
Zn2   Zn    Zn3+2 0.490090 0.625270 0.491710 0.933200

loop_
_geom_bond_atom_site_label_1
_geom_bond_atom_site_label_2
_ccdc_geom_bond_type
C18   N6    S    
C35   N10   S    
C17   N5    S    
C1    O3    A    
C19   N7    S    
H19   N2    S    
O6    Zn2   S    
O2    Zn2   S    
C12   C23   S    
C5    H20   S    
C28   C29   A    
C19   C21   A    
C24   C26   A    
C2    H22   S    
C24   N9    S    
N1    Zn1   S    
C3    C33   A    
C1    C31   S    
C20   H12   S    
C33   C35   A    
H16   N10   S    
H17   N10   S    
O4    Zn1   S    
H11   N8    S    
C12   O4    A    
C7    H2    S    
C16   N4    S    
C15   O8    A    
C5    C13   A    
C16   C27   A    
C8    N1    A    
H5    N5    S    
C27   C30   A    
H4    N4    S    
C34   N2    S    
C10   H24   S    
C14   C30   S    
C22   N8    S    
C15   C29   S    
H3    N4    S    
C25   C29   A    
C1    O1    A    
H14   N9    S    
C6    C11   A    
C5    C7    A    
C6    C8    A    
O3    Zn2   S    
C14   O5    A    
C22   C25   A    
C32   C34   A    
C2    C4    A    
C9    N3    A    
C15   O6    A    
C21   H1    S    
C31   C34   A    
H6    N5    S    
C32   F1    S    
C9    C11   A    
H9    N7    S    
C4    C32   A    
C8    H26   S    
C20   C22   A    
C26   C30   A    
C23   C35   A    
C12   O2    A    
H13   N8    S    
H10   N7    S    
C36   H23   S    
O7    Zn2   S    
C10   N1    A    
H7    N6    S    
C9    H25   S    
C17   C28   A    
C6    H21   S    
H15   N9    S    
C10   C13   A    
C25   C27   A    
C26   C28   A    
C33   F2    S    
O5    Zn1   S    
C11   C13   A    
O1    Zn1   S    
C3    C36   A    
H18   N2    S    
C17   C19   A    
C18   C20   A    
H8    N6    S    
C7    N3    A    
N3    Zn2   S    
C16   C18   A    
O8    Zn1   S    
C21   C24   A    
C2    C23   A    
C31   C36   A    
C14   O7    A    
C3    C4    A    
