data_mof_unit_10899.cif
_audit_creation_date              2012-12-11T14:33:11-0500
_audit_creation_method            fapswitch 2.2
_symmetry_space_group_name_H-M    P1
_symmetry_Int_Tables_number       1
_space_group_crystal_system       triclinic
_cell_length_a                    6.972967
_cell_length_b                    14.076779
_cell_length_c                    18.247379
_cell_angle_alpha                 113.112063
_cell_angle_beta                  94.409163
_cell_angle_gamma                 90.532324
_cell_volume                      1640.95288111

loop_
_atom_site_label
_atom_site_type_symbol
_atom_type_description
_atom_site_fract_x
_atom_site_fract_y
_atom_site_fract_z
_atom_type_partial_charge
O1    O     O_R   0.484560 0.544530 0.414330 -0.545639
O2    O     O_R   0.197040 0.638810 0.585080 -0.521521
O3    O     O_R   0.026800 0.455470 0.585670 -0.503637
C1    C     C_R   0.373339 0.680801 0.607308 0.746121
O4    O     O_R   0.155000 0.556150 0.414940 -0.536647
O5    O     O_R   0.984450 0.372220 0.414320 -0.542597
C2    C     C_R   0.319346 0.565339 0.387278 0.721462
O6    O     O_R   0.526900 0.627780 0.585680 -0.501706
O7    O     O_3   0.339170 0.439750 0.499990 -0.332830
V1    V     V_3+5 0.064350 0.511180 0.500000 1.580613
O8    O     O_R   0.654880 0.361190 0.414920 -0.549304
C3    C     C_R   0.817901 0.324852 0.386709 0.731796
O9    O     O_R   0.696930 0.443850 0.585060 -0.526104
C4    C     C_R   0.871727 0.425314 0.606900 0.743069
V2    V     V_3+5 0.564340 0.488820 0.500000 1.564618
O10   O     O_3   0.839390 0.560250 0.500010 -0.328503
C5    C     C_R   0.045516 0.876052 0.831816 -0.067980
C6    C     C_R   0.903276 0.389036 0.673176 -0.049107
C7    C     C_R   0.944237 0.838747 0.693359 0.353339
C8    C     C_R   0.983302 0.805604 0.755207 -0.192319
C9    C     C_R   0.050794 0.983568 0.846215 -0.181915
C10   C     C_R   0.009332 0.018100 0.781855 0.030852
C11   C     C_R   0.967825 0.941655 0.704272 0.060099
C12   C     C_R   0.006397 0.124141 0.789935 0.087717
C13   C     C_R   0.972011 0.149014 0.720237 0.083596
C14   C     C_R   0.953235 0.068450 0.644974 -0.196221
C15   C     C_R   0.949499 0.967804 0.637287 -0.164840
C16   C     C_R   0.033082 0.205980 0.864884 -0.187067
C17   C     C_R   0.032216 0.307506 0.871714 -0.200817
C18   C     C_R   0.000573 0.332311 0.804202 0.108709
C19   C     C_R   0.961309 0.253721 0.727390 0.046810
C20   C     C_R   0.008422 0.435725 0.812981 0.179382
C21   C     C_R   0.957201 0.463181 0.748413 -0.169426
C22   C     C_R   0.911118 0.283837 0.661571 -0.179600
H1    H     H_    0.933822 0.910281 0.576640 0.179097
H2    H     H_    0.874213 0.228410 0.601442 0.110649
H3    H     H_    0.961112 0.543874 0.756796 0.082992
H4    H     H_    0.053423 0.367082 0.931544 0.158963
H5    H     H_    0.963283 0.724297 0.743433 0.120364
H6    H     H_    0.088651 0.037581 0.906846 0.117259
H7    H     H_    0.941630 0.080392 0.590054 0.130560
H8    H     H_    0.055288 0.193611 0.919552 0.133435
H9    H     H_    0.114539 0.222167 0.307648 0.154174
H10   H     H_    0.833889 0.036286 0.194793 0.154840
C23   C     C_2   0.133715 0.036442 0.183303 -0.331868
C24   C     C_2   0.972039 0.078078 0.217189 -0.118466
H11   H     H_    0.676940 0.179991 0.296209 0.125778
C25   C     C_2   0.814706 0.222024 0.319124 -0.324093
C26   C     C_2   0.976384 0.180384 0.285242 -0.115006
H12   H     H_    0.271471 0.078491 0.206200 0.127597
C27   C     C_R   0.406740 0.788863 0.672441 -0.082148
C28   C     C_R   0.542950 0.469880 0.828959 -0.119311
C29   C     C_R   0.506256 0.894563 0.811361 0.363164
C30   C     C_R   0.465823 0.797527 0.749595 -0.192606
C31   C     C_R   0.408191 0.882312 0.658475 -0.175774
C32   C     C_R   0.454062 0.982873 0.723213 0.028152
C33   C     C_R   0.488805 0.986339 0.800751 0.056389
C34   C     C_R   0.468394 0.080389 0.715457 0.094075
C35   C     C_R   0.502199 0.177706 0.785141 0.089399
C36   C     C_R   0.517331 0.174590 0.860305 -0.200579
C37   C     C_R   0.510533 0.081612 0.867906 -0.158500
C38   C     C_R   0.456384 0.083511 0.640267 -0.197305
C39   C     C_R   0.459455 0.176719 0.632785 -0.167862
C40   C     C_R   0.473677 0.271878 0.700107 0.063054
C41   C     C_R   0.511279 0.275396 0.777518 0.038434
C42   C     C_R   0.444595 0.363276 0.689905 0.363155
C43   C     C_R   0.478040 0.460745 0.752124 -0.198570
C44   C     C_R   0.552209 0.376250 0.842396 -0.222577
H13   H     H_    0.520745 0.086483 0.928701 0.178353
H14   H     H_    0.592121 0.384104 0.902833 0.122182
H15   H     H_    0.452332 0.529457 0.740353 0.122169
H16   H     H_    0.450104 0.172417 0.572132 0.175277
H17   H     H_    0.483088 0.728592 0.761852 0.121493
H18   H     H_    0.372179 0.874703 0.597832 0.117535
H19   H     H_    0.532676 0.243329 0.914778 0.131828
H20   H     H_    0.444402 0.014651 0.585834 0.129972
H21   H     H_    0.342722 0.679146 0.204394 0.151152
H22   H     H_    0.610010 0.579463 0.301320 0.202441
C45   C     C_2   0.318972 0.605082 0.322219 -0.322634
C46   C     C_2   0.477292 0.607960 0.284143 -0.068541
C47   C     C_2   0.632978 0.650758 0.179411 0.213854
C48   C     C_2   0.476165 0.648890 0.219304 -0.173291
H23   H     H_    0.185423 0.633085 0.305468 0.205834
O11   O     O_R   0.421600 0.630430 0.917010 -0.560159
O12   O     O_R   0.793840 0.702190 0.087630 -0.510504
O13   O     O_R   0.964010 0.886170 0.088190 -0.537334
C49   C     C_R   0.629774 0.692453 0.115200 0.672048
O14   O     O_R   0.751460 0.619510 0.917500 -0.519722
O15   O     O_R   0.921330 0.802900 0.916840 -0.504881
C50   C     C_R   0.575265 0.577855 0.894417 0.708183
O16   O     O_R   0.464290 0.713700 0.088350 -0.563959
O17   O     O_3   0.609200 0.818520 0.002630 -0.318476
V3    V     V_3+5 0.884140 0.747190 0.002530 1.533495
O18   O     O_R   0.251150 0.814630 0.917340 -0.526467
C51   C     C_R   0.076289 0.834654 0.896153 0.735271
O19   O     O_R   0.293530 0.897310 0.087470 -0.543443
C52   C     C_R   0.130531 0.933599 0.115736 0.748971
V4    V     V_3+5 0.384070 0.769710 0.002370 1.477939
O20   O     O_3   0.109180 0.698190 0.002460 -0.378051
N1    N     N_3   0.072001 0.514310 0.888110 -0.605698
H24   H     H_    0.099169 0.580201 0.877198 0.258809
H25   H     H_    0.204026 0.493933 0.907413 0.218030
Cl1   Cl    Cl    0.606531 0.904134 0.901839 -0.666959
Cl2   Cl    Cl    0.337249 0.351473 0.599653 -0.682508
Cl3   Cl    Cl    0.851534 0.600551 0.200674 -0.711803
Cl4   Cl    Cl    0.846375 0.752531 0.602154 -0.677672

loop_
_geom_bond_atom_site_label_1
_geom_bond_atom_site_label_2
_ccdc_geom_bond_type
C34   C38   A    
C18   C20   A    
C31   C32   A    
C13   C19   A    
C49   O16   A    
C4    C6    S    
C28   C50   S    
C7    C8    A    
C3    C25   S    
C47   C48   D    
O17   V4    S    
C23   C24   D    
C24   C26   S    
C14   C15   A    
C17   C18   A    
H21   C48   S    
C16   C17   A    
O5    C3    A    
C18   C19   A    
H22   C46   S    
O18   V4    S    
V2    O10   S    
C5    C8    A    
C32   C33   A    
O13   C52   A    
O17   V3    S    
C31   H18   S    
O8    V2    S    
O19   V4    S    
C17   H4    S    
O1    V2    S    
C11   C15   A    
O7    V1    S    
V3    O20   S    
C27   C31   A    
C28   C44   A    
C1    O6    A    
C42   C43   A    
C35   C36   A    
O9    C4    A    
O15   V3    S    
C38   H20   S    
O11   C50   A    
H10   C24   S    
O12   C49   A    
C47   Cl3   S    
C1    C27   S    
C42   Cl2   S    
C12   C13   A    
C46   C48   S    
O4    C2    A    
C8    H5    S    
C29   C33   A    
H9    C26   S    
C15   H1    S    
C34   C35   A    
C29   C30   A    
C21   H3    S    
C45   C46   D    
C36   C37   A    
C40   C42   A    
O15   C51   A    
C7    C11   A    
C38   C39   A    
O13   V3    S    
C30   H17   S    
H11   C25   S    
C41   C44   A    
O19   C52   A    
N1    H25   S    
C19   C22   A    
C6    C22   A    
C47   C49   S    
O3    C4    A    
C5    C51   S    
C25   C26   D    
O14   C50   A    
O6    V2    S    
O9    V2    S    
C10   C12   A    
O2    V1    S    
C2    C45   S    
C37   H13   S    
O14   V3    S    
O1    C2    A    
C12   C16   A    
C28   C43   A    
O5    V1    S    
O8    C3    A    
C33   C37   A    
C36   H19   S    
C27   C30   A    
O11   V4    S    
C20   C21   A    
C13   C14   A    
O4    V1    S    
O3    V1    S    
C23   C52   S    
C35   C41   A    
C45   H23   S    
C9    H6    S    
C23   H12   S    
C29   Cl1   S    
O2    C1    A    
C40   C41   A    
C16   H8    S    
N1    H24   S    
C22   H2    S    
C32   C34   A    
C43   H15   S    
O16   V4    S    
O7    V2    S    
O18   C51   A    
C6    C21   A    
C5    C9    A    
C39   C40   A    
C7    Cl4   S    
C20   N1    S    
O12   V3    S    
C39   H16   S    
C44   H14   S    
V4    O20   S    
C10   C11   A    
V1    O10   S    
C9    C10   A    
C14   H7    S    
