data_mof_unit_19216.cif
_audit_creation_date              2012-12-10T16:55:45-0500
_audit_creation_method            fapswitch 2.2
_symmetry_space_group_name_H-M    P1
_symmetry_Int_Tables_number       1
_space_group_crystal_system       triclinic
_cell_length_a                    7.788456
_cell_length_b                    8.567994
_cell_length_c                    10.500379
_cell_angle_alpha                 91.230952
_cell_angle_beta                  85.096301
_cell_angle_gamma                 93.813459
_cell_volume                      696.5069937

loop_
_atom_site_label
_atom_site_type_symbol
_atom_type_description
_atom_site_fract_x
_atom_site_fract_y
_atom_site_fract_z
_atom_type_partial_charge
C1    C     C_R   0.545841 0.794712 0.496683 0.992916
C2    C     C_R   0.454159 0.205288 0.503317 0.992928
C3    C     C_R   0.500887 0.501089 0.742341 0.925790
C4    C     C_R   0.499113 0.498910 0.257658 0.925808
C5    C     C_3   0.336431 0.506437 0.968301 -0.223904
C6    C     C_3   0.663569 0.493560 0.031699 -0.223892
C7    C     C_3   0.432446 0.631267 0.049956 -0.268826
C8    C     C_3   0.567553 0.368731 0.950043 -0.268811
C9    C     C_3   0.498820 0.497982 0.122950 0.012239
C10   C     C_3   0.501179 0.502015 0.877050 0.012238
C11   C     C_3   0.404480 0.374766 0.043244 0.051734
C12   C     C_3   0.595519 0.625231 0.956756 0.051719
C13   C     C_2   0.569885 0.958333 0.494930 -0.346468
C14   C     C_2   0.430115 0.041667 0.505071 -0.346460
H1    H     H_    0.378201 0.738076 0.094443 0.156473
H2    H     H_    0.621798 0.261922 0.905557 0.156470
H3    H     H_    0.202809 0.511000 0.939738 0.157028
H4    H     H_    0.797190 0.488997 0.060262 0.157026
H5    H     H_    0.013678 0.382031 0.403767 0.217213
H6    H     H_    0.986322 0.617969 0.596233 0.217219
H7    H     H_    0.701807 0.009654 0.485389 0.186237
H8    H     H_    0.298193 0.990346 0.514612 0.186237
N1    N     N_2   0.950320 0.457950 0.465730 -0.177444
N2    N     N_2   0.049680 0.542050 0.534270 -0.177443
O1    O     O_R   0.389250 0.738570 0.508410 -0.622792
O2    O     O_R   0.610750 0.261430 0.491590 -0.622793
O3    O     O_R   0.678390 0.711620 0.486450 -0.612484
O4    O     O_R   0.321610 0.288380 0.513550 -0.612483
O5    O     O_R   0.355460 0.513510 0.697030 -0.639299
O6    O     O_R   0.644540 0.486490 0.302970 -0.639300
O7    O     O_R   0.644600 0.486560 0.675070 -0.605717
O8    O     O_R   0.355400 0.513440 0.324930 -0.605719
Zn1   Zn    Zn3+2 0.306940 0.517990 0.514670 0.973481
Zn2   Zn    Zn3+2 0.693060 0.482010 0.485330 0.973480
C15   C     C_2   0.296836 0.232256 0.089034 0.344161
H9    H     H_    0.234275 0.156348 0.020475 0.066199
O9    O     O_2   0.279254 0.200361 0.202267 -0.586573
C16   C     C_2   0.703161 0.767744 0.910965 0.344176
H10   H     H_    0.765682 0.843664 0.979516 0.066235
O10   O     O_2   0.720781 0.799636 0.797744 -0.586597

loop_
_geom_bond_atom_site_label_1
_geom_bond_atom_site_label_2
_ccdc_geom_bond_type
H5    N1    S    
N1    N2    D    
C5    C7    S    
N2    Zn1   S    
C3    O7    A    
N1    Zn2   S    
C1    O3    A    
O8    Zn1   S    
C14   H8    S    
C6    C9    S    
C11   C15   S    
O7    Zn2   S    
C13   H7    S    
C5    C10   S    
C2    O2    A    
C3    C10   S    
C13   C14   D    
C1    O1    A    
C9    C11   S    
C4    O8    A    
C10   C12   S    
C8    C11   S    
C6    H4    S    
C6    C12   S    
C7    H1    S    
C16   O10   D    
O4    Zn1   S    
C5    C11   S    
C7    C9    S    
O3    Zn2   S    
C12   C16   S    
C7    C12   S    
C2    C14   S    
C5    H3    S    
O6    Zn2   S    
O5    Zn1   S    
C1    C13   S    
C8    C10   S    
C8    H2    S    
C3    O5    A    
C2    O4    A    
C6    C8    S    
C15   O9    D    
C4    C9    S    
O2    Zn2   S    
C4    O6    A    
H6    N2    S    
O1    Zn1   S    
C15   H9    S    
C16   H10   S    
