data_mof_unit_34272.cif
_audit_creation_date              2012-12-11T15:29:14-0500
_audit_creation_method            fapswitch 2.2
_symmetry_space_group_name_H-M    P1
_symmetry_Int_Tables_number       1
_space_group_crystal_system       triclinic
_cell_length_a                    13.486786
_cell_length_b                    13.491635
_cell_length_c                    27.580542
_cell_angle_alpha                 90.608586
_cell_angle_beta                  90.022376
_cell_angle_gamma                 60.065391
_cell_volume                      4348.71350243

loop_
_atom_site_label
_atom_site_type_symbol
_atom_type_description
_atom_site_fract_x
_atom_site_fract_y
_atom_site_fract_z
_atom_type_partial_charge
C1    C     C_R   0.620304 0.101222 0.569895 0.545857
C2    C     C_1   0.649540 0.704598 0.657822 -0.058809
C3    C     C_3   0.090809 0.133002 0.737289 -0.102017
C4    C     C_R   0.599692 0.779331 0.568472 0.545726
C5    C     C_3   0.182758 0.059358 0.775163 -0.099893
C6    C     C_1   0.097683 0.199976 0.900246 -0.012179
C7    C     C_1   0.229656 0.137747 0.617101 -0.016292
C8    C     C_3   0.055582 0.241363 0.768853 -0.101942
C9    C     C_3   0.147961 0.167548 0.805875 0.052632
C10   C     C_3   0.144332 0.262221 0.742146 -0.099050
C11   C     C_3   0.179164 0.154148 0.711353 0.052413
C12   C     C_1   0.631138 0.731890 0.615937 -0.016112
C13   C     C_3   0.236241 0.188669 0.779868 -0.101381
C14   C     C_3   0.271573 0.080289 0.748350 -0.102948
C15   C     C_1   0.125458 0.180773 0.858171 -0.056819
C16   C     C_R   0.277752 0.121671 0.569391 0.545701
C17   C     C_1   0.201728 0.146577 0.659112 -0.058907
C18   C     C_3   0.629118 0.276666 0.739005 -0.101807
C19   C     C_3   0.555113 0.258085 0.776882 -0.099775
C20   C     C_1   0.691713 0.206551 0.901364 -0.013501
C21   C     C_1   0.635500 0.133365 0.617829 -0.016231
C22   C     C_3   0.737133 0.204037 0.769901 -0.101758
C23   C     C_3   0.699643 0.560669 0.766873 -0.101851
C24   C     C_3   0.662969 0.185187 0.806943 0.052783
C25   C     C_3   0.758659 0.094315 0.742450 -0.099163
C26   C     C_3   0.650894 0.167092 0.712324 0.052372
C27   C     C_3   0.684738 0.075682 0.780210 -0.101563
C28   C     C_R   0.621904 0.100159 0.431503 0.542289
C29   C     C_3   0.576695 0.148245 0.749341 -0.103098
C30   C     C_1   0.674708 0.195659 0.859275 -0.056912
C31   C     C_1   0.643849 0.152287 0.659978 -0.058947
C32   C     C_R   0.639173 0.723607 0.382680 0.022834
C33   C     C_R   0.722194 0.737414 0.357764 -0.126031
C34   C     C_3   0.679635 0.654255 0.804350 0.052734
C35   C     C_R   0.734256 0.720739 0.308107 -0.123727
C36   C     C_R   0.666331 0.686229 0.282857 0.036315
C37   C     C_R   0.591512 0.661272 0.308407 -0.122661
C38   C     C_R   0.577292 0.680752 0.358132 -0.132451
C39   C     C_R   0.574445 0.708209 0.202457 -0.119138
C40   C     C_R   0.601832 0.777014 0.430384 0.539948
C41   C     C_R   0.583914 0.684200 0.153039 -0.123807
C42   C     C_R   0.788569 0.611569 0.157359 -0.124143
C43   C     C_R   0.779517 0.632912 0.206753 -0.122426
C44   C     C_R   0.673165 0.677056 0.229948 0.033610
C45   C     C_3   0.590342 0.648042 0.739976 -0.099142
C46   C     C_R   0.691955 0.630648 0.130792 0.021694
C47   C     C_R   0.230882 0.134057 0.382672 0.025845
C48   C     C_R   0.269478 0.036763 0.352784 -0.124078
C49   C     C_R   0.248205 0.048426 0.303507 -0.121926
C50   C     C_R   0.184755 0.157507 0.283468 0.037622
C51   C     C_R   0.139667 0.254791 0.313927 -0.113956
C52   C     C_R   0.279496 0.119714 0.430943 0.540565
C53   C     C_R   0.164013 0.243155 0.363255 -0.128706
C54   C     C_R   0.165832 0.260416 0.206609 -0.137286
C55   C     C_R   0.136939 0.278001 0.157933 -0.166411
C56   C     C_3   0.663523 0.683094 0.709954 0.052510
C57   C     C_R   0.122832 0.105056 0.155700 0.228325
C58   C     C_R   0.148803 0.090114 0.204743 -0.083583
C59   C     C_R   0.166607 0.169406 0.230877 -0.005617
C60   C     C_R   0.109332 0.204247 0.132500 0.030972
C61   C     C_R   0.640865 0.139153 0.384905 0.022624
C62   C     C_R   0.548261 0.231124 0.361806 -0.124411
C63   C     C_R   0.555388 0.251065 0.313049 -0.120719
C64   C     C_3   0.772702 0.596118 0.736065 -0.101690
C65   C     C_R   0.655882 0.180739 0.286857 0.035470
C66   C     C_R   0.751853 0.095211 0.310952 -0.119614
C67   C     C_3   0.570550 0.741165 0.778179 -0.101389
C68   C     C_R   0.744251 0.074124 0.359669 -0.129228
C69   C     C_R   0.716309 0.096891 0.203990 -0.108441
C70   C     C_R   0.728507 0.109303 0.154765 -0.103849
C71   C     C_R   0.617414 0.315633 0.164608 -0.125487
C72   C     C_R   0.606903 0.303268 0.213934 -0.120665
C73   C     C_R   0.659258 0.193888 0.234219 0.033837
C74   C     C_R   0.682256 0.218827 0.135128 0.023917
C75   C     C_R   0.049913 0.234796 0.947963 0.545049
C76   C     C_3   0.752939 0.689284 0.774402 -0.100123
C77   C     C_R   0.712053 0.561749 0.946387 0.546695
C78   C     C_3   0.643531 0.776691 0.747423 -0.103070
C79   C     C_R   0.722647 0.224052 0.949094 0.540101
C80   C     C_R   0.049121 0.242815 0.086084 0.562452
C81   C     C_R   0.709146 0.572544 0.084179 0.541709
C82   C     C_R   0.719763 0.233387 0.087455 0.538921
C83   C     C_1   0.697507 0.607183 0.898581 -0.013542
C84   C     C_1   0.688503 0.633351 0.856546 -0.057372
Cl1   Cl    Cl    0.104892 0.997947 0.126535 -0.606207
Cr1   Cr    Cr6+3 0.417550 0.169090 0.500530 1.021521
Cr2   Cr    Cr6+3 0.669180 0.913420 0.499920 1.020179
Cr3   Cr    Cr6+3 0.413260 0.917540 0.499520 1.021812
Cr4   Cr    Cr6+3 0.909770 0.175810 0.018240 1.092625
Cr5   Cr    Cr6+3 0.913300 0.427650 0.016090 1.025284
Cr6   Cr    Cr6+3 0.657770 0.431010 0.016900 1.031550
H1    H     H_    0.819397 0.706676 0.789185 0.105156
H2    H     H_    0.771254 0.770513 0.375767 0.133710
H3    H     H_    0.855526 0.536280 0.718262 0.103359
H4    H     H_    0.490814 0.746521 0.219476 0.110291
H5    H     H_    0.792398 0.740812 0.289303 0.102023
H6    H     H_    0.857034 0.607888 0.227073 0.102139
H7    H     H_    0.873130 0.570268 0.141068 0.135721
H8    H     H_    0.513546 0.668587 0.376773 0.125187
H9    H     H_    0.323489 0.951535 0.366757 0.137988
H10   H     H_    0.184171 0.320102 0.225566 0.114573
H11   H     H_    0.130200 0.353212 0.141027 0.138926
H12   H     H_    0.296260 0.211121 0.797800 0.104207
H13   H     H_    0.620376 0.865898 0.738796 0.100738
H14   H     H_    0.285864 0.971989 0.280953 0.104596
H15   H     H_    0.150561 0.018309 0.222729 0.135895
H16   H     H_    0.087733 0.339823 0.299502 0.105672
H17   H     H_    0.134027 0.319025 0.385862 0.120637
H18   H     H_    0.467336 0.282928 0.380368 0.132947
H19   H     H_    0.754175 0.011522 0.218628 0.110330
H20   H     H_    0.778493 0.033611 0.132517 0.144047
H21   H     H_    0.562795 0.379413 0.236481 0.104324
H22   H     H_    0.487664 0.801001 0.795945 0.104656
H23   H     H_    0.128066 0.345768 0.728041 0.104535
H24   H     H_    0.582166 0.401182 0.150377 0.137896
H25   H     H_    0.831582 0.042273 0.291744 0.111887
H26   H     H_    0.523838 0.630623 0.725261 0.104615
H27   H     H_    0.722709 0.471486 0.775492 0.098646
H28   H     H_    0.030787 0.110624 0.719315 0.103267
H29   H     H_    0.360802 0.013767 0.739302 0.100699
H30   H     H_    0.803499 0.226967 0.778937 0.099241
H31   H     H_    0.508182 0.700853 0.132960 0.144398
H32   H     H_    0.541396 0.630304 0.289761 0.102417
H33   H     H_    0.480156 0.317492 0.295340 0.103294
H34   H     H_    0.966368 0.307976 0.777870 0.099146
H35   H     H_    0.817152 0.003375 0.376784 0.126313
H36   H     H_    0.198982 0.975897 0.789345 0.105747
H37   H     H_    0.471339 0.325052 0.791638 0.105426
H38   H     H_    0.606746 0.359023 0.721602 0.102828
H39   H     H_    0.510411 0.125220 0.740272 0.100618
H40   H     H_    0.707176 0.993264 0.797574 0.104229
H41   H     H_    0.842503 0.027318 0.727755 0.104566
O1    O     O_R   0.301780 0.195490 0.553940 -0.507570
O2    O     O_R   0.636050 0.541380 0.962520 -0.503253
O3    O     O_R   0.666480 0.323610 0.968170 -0.495850
O4    O     O_R   0.522450 0.158840 0.550250 -0.494385
O5    O     O_R   0.817280 0.156800 0.072180 -0.478684
O6    O     O_R   0.005110 0.187160 0.067410 -0.431145
O7    O     O_R   0.026450 0.340060 0.069950 -0.535872
O8    O     O_R   0.808300 0.527240 0.065170 -0.506216
O9    O     O_R   0.634070 0.548770 0.069460 -0.516415
O10   O     O_R   0.664650 0.330470 0.067300 -0.509025
O11   O     O_3   0.826940 0.344820 0.017080 -0.259386
O12   O     O_R   0.658840 0.818280 0.449970 -0.505860
O13   O     O_R   0.694460 0.003360 0.553820 -0.506694
O14   O     O_R   0.657750 0.819520 0.549120 -0.494188
O15   O     O_R   0.501990 0.803120 0.552700 -0.506806
O16   O     O_R   0.318230 0.023430 0.549370 -0.493492
O17   O     O_R   0.302950 0.194150 0.446980 -0.518024
O18   O     O_R   0.523540 0.157600 0.451100 -0.504589
O19   O     O_R   0.695630 0.002030 0.446860 -0.521865
O20   O     O_R   0.503160 0.801780 0.445740 -0.523159
O21   O     O_R   0.319320 0.022190 0.450230 -0.505411
O22   O     O_3   0.499990 0.000010 0.499990 -0.244929
O23   O     O_R   0.819250 0.149410 0.965240 -0.505727
O24   O     O_R   0.006940 0.180310 0.968270 -0.490404
O25   O     O_R   0.028420 0.332670 0.963010 -0.507714
O26   O     O_R   0.810130 0.520390 0.966030 -0.494868

loop_
_geom_bond_atom_site_label_1
_geom_bond_atom_site_label_2
_ccdc_geom_bond_type
C81   O8    A    
C66   C68   A    
C63   C65   A    
C28   O18   A    
C23   C45   S    
Cr2   O14   S    
C27   C29   S    
C27   H40   S    
C54   H10   S    
C1    O13   A    
C35   C36   A    
C18   C26   S    
C24   C27   S    
C82   O10   A    
C2    C12   T    
C23   H27   S    
C72   H21   S    
Cr5   O7    S    
C56   C78   S    
C6    C75   S    
C39   C41   A    
C20   C30   T    
C35   H5    S    
C1    C21   S    
C21   C31   T    
C55   H11   S    
C5    C9    S    
C62   C63   A    
C66   H25   S    
C50   C59   S    
C36   C37   A    
C76   C78   S    
C82   O5    A    
C42   H7    S    
C11   C14   S    
C80   O6    A    
Cr4   O23   S    
C77   C83   S    
C19   H37   S    
C65   C73   S    
C40   O20   A    
C18   C19   S    
C42   C46   A    
C9    C13   S    
C6    C15   T    
C37   H32   S    
C75   O24   A    
C60   C80   S    
C83   C84   T    
C45   C56   S    
C52   O17   A    
C7    C17   T    
C22   C25   S    
C70   C74   A    
C41   C46   A    
C56   C64   S    
C69   C73   A    
C32   C38   A    
Cr2   O12   S    
C4    C12   S    
C1    O4    A    
Cr5   O11   S    
C10   H23   S    
C62   H18   S    
C77   O26   A    
C47   C53   A    
Cr6   O10   S    
C28   C61   S    
C75   O25   A    
C81   O9    A    
C26   C31   S    
Cr2   O19   S    
C13   C14   S    
Cr3   O20   S    
C61   C62   A    
C67   C78   S    
C34   C84   S    
C74   C82   S    
C16   O1    A    
C63   H33   S    
Cr6   O11   S    
C54   C59   A    
Cr3   O16   S    
C48   H9    S    
C78   H13   S    
Cr4   O6    S    
C72   C73   A    
C3    C8    S    
C70   H20   S    
Cr1   O17   S    
C8    C9    S    
Cr4   O24   S    
C49   H14   S    
C25   C26   S    
Cr4   O11   S    
C4    O15   A    
C51   C53   A    
Cr3   O22   S    
C41   H31   S    
Cr5   O26   S    
C43   C44   A    
C45   C67   S    
C37   C38   A    
C46   C81   S    
C69   H19   S    
Cr1   O1    S    
C47   C48   A    
C23   C34   S    
C4    O14   A    
C5    H36   S    
C50   C51   A    
C64   C76   S    
Cr2   O22   S    
C71   H24   S    
C39   H4    S    
C5    C14   S    
C47   C52   S    
C3    H28   S    
C76   H1    S    
Cr1   O4    S    
C23   C64   S    
C65   C66   A    
C14   H29   S    
C40   O12   A    
C22   C24   S    
C36   C44   S    
C24   C30   S    
C13   H12   S    
C42   C43   A    
C19   C29   S    
C68   H35   S    
C22   H30   S    
C45   H26   S    
C61   C68   A    
C54   C55   A    
C11   C17   S    
Cr2   O13   S    
C20   C79   S    
C18   C22   S    
C8    C10   S    
C7    C16   S    
C43   H6    S    
C38   H8    S    
C3    C5    S    
C10   C13   S    
C33   H2    S    
C34   C67   S    
C71   C74   A    
Cr5   O8    S    
C39   C44   A    
C25   C27   S    
C80   O7    A    
C79   O3    A    
Cr4   O5    S    
C16   O16   A    
Cr3   O21   S    
Cr5   O25   S    
Cr1   O18   S    
C19   C24   S    
C52   O21   A    
C64   H3    S    
C71   C72   A    
C2    C56   S    
C32   C33   A    
C53   H17   S    
C57   C58   A    
Cr1   O22   S    
Cr6   O2    S    
C48   C49   A    
C33   C35   A    
Cr3   O15   S    
C57   Cl1   S    
C32   C40   S    
C67   H22   S    
C69   C70   A    
C58   C59   A    
C3    C11   S    
C10   C11   S    
C79   O23   A    
C29   H39   S    
C8    H34   S    
C57   C60   A    
Cr6   O3    S    
C26   C29   S    
C51   H16   S    
C49   C50   A    
C77   O2    A    
C28   O19   A    
C18   H38   S    
C58   H15   S    
C55   C60   A    
C25   H41   S    
C9    C15   S    
C34   C76   S    
Cr6   O9    S    
