data_mof_unit_58058.cif
_audit_creation_date              2013-03-05T15:50:02-0500
_audit_creation_method            fapswitch 2.2
_symmetry_space_group_name_H-M    P1
_symmetry_Int_Tables_number       1
_space_group_crystal_system       triclinic
_cell_length_a                    8.374871
_cell_length_b                    12.740449
_cell_length_c                    17.531485
_cell_angle_alpha                 95.468683
_cell_angle_beta                  96.310582
_cell_angle_gamma                 97.502675
_cell_volume                      1831.90265015

loop_
_atom_site_label
_atom_site_type_symbol
_atom_site_description
_atom_site_fract_x
_atom_site_fract_y
_atom_site_fract_z
_atom_type_partial_charge
P1    P     P_3+3 0.990420 0.746550 0.559720 0.447611
O1    O     O_2   0.163080 0.763400 0.536930 -0.342694
O2    O     O_3   0.893330 0.628980 0.538660 -0.450296
O3    O     O_3   0.379830 0.697590 0.399610 -0.415544
O4    O     O_2   0.301669 0.883953 0.450920 -0.371811
O5    O     O_3   0.031950 0.770698 0.660258 -0.591058
O6    O     O_3   0.370055 0.871089 0.309895 -0.527021
H1    H     H_    0.310731 0.714690 0.259309 0.156535
C1    C     C_3   0.360942 0.820744 0.174564 -0.968013
H2    H     H_    0.232161 0.832902 0.162726 0.291733
H3    H     H_    0.439125 0.896130 0.168721 0.258835
P2    P     P_3+3 0.330880 0.415450 0.326700 0.452029
P3    P     P_3+3 0.911900 0.635903 0.258896 0.448529
O7    O     O_2   0.161570 0.447940 0.314920 -0.382701
O8    O     O_3   0.953630 0.643360 0.361440 -0.383674
O9    O     O_2   0.023931 0.561150 0.224821 -0.386067
O10   O     O_3   0.291215 0.276523 0.304403 -0.565781
O11   O     O_3   0.985052 0.760370 0.232609 -0.504742
C2    C     C_3   0.901007 0.838482 0.265597 0.483293
H4    H     H_    0.991704 0.906132 0.293971 0.096593
H5    H     H_    0.826240 0.812455 0.310944 0.028399
C3    C     C_3   0.793882 0.877957 0.202016 -1.086959
H6    H     H_    0.717943 0.933206 0.228154 0.245405
H7    H     H_    0.870025 0.920182 0.163253 0.280116
C4    C     C_3   0.883104 0.252926 0.296639 0.368332
H8    H     H_    0.848593 0.305146 0.252191 0.086465
H9    H     H_    0.994064 0.294052 0.331047 0.141134
C5    C     C_3   0.912773 0.148252 0.255680 -1.024834
H10   H     H_    0.804249 0.114025 0.214437 0.266804
H11   H     H_    0.018448 0.161583 0.222984 0.261984
H12   H     H_    0.936498 0.091814 0.298621 0.244357
Ba1   Ba    Ba6+2 0.158660 0.552610 0.463110 1.508481
C6    C     C_3   0.057390 0.676372 0.691688 0.433142
H13   H     H_    0.157450 0.642019 0.666774 0.110225
H14   H     H_    0.945595 0.617300 0.680868 0.136259
C7    C     C_3   0.101422 0.702218 0.778584 -1.002773
H15   H     H_    0.215406 0.759431 0.791511 0.281728
H16   H     H_    0.118526 0.628839 0.805737 0.235056
H17   H     H_    0.002412 0.738120 0.803841 0.256496
C8    C     C_3   0.292290 0.224427 0.371454 0.390987
H18   H     H_    0.174063 0.221913 0.393111 0.016275
H19   H     H_    0.385373 0.262568 0.418544 0.166919
C9    C     C_3   0.322430 0.110816 0.351591 -0.849744
H20   H     H_    0.222645 0.066793 0.309059 0.246432
H21   H     H_    0.329064 0.070207 0.404702 0.245992
H22   H     H_    0.438259 0.110678 0.326354 0.271338
P4    P     P_3+3 0.819870 0.253440 0.440220 0.430862
O12   O     O_2   0.647210 0.236530 0.463040 -0.359187
O13   O     O_3   0.916960 0.371010 0.461280 -0.448746
O14   O     O_3   0.430470 0.302400 0.600330 -0.359223
O15   O     O_3   0.754348 0.234550 0.340368 -0.564901
P5    P     P_3+3 0.889680 0.362062 0.739750 0.467947
O16   O     O_3   0.388290 0.554800 0.590630 -0.384201
O17   O     O_3   0.856660 0.356630 0.638500 -0.332046
O18   O     O_2   0.790516 0.446213 0.772352 -0.401904
O19   O     O_3   0.794814 0.241726 0.765301 -0.477776
Ba2   Ba    Ba6+2 0.651510 0.447380 0.536830 1.536008
P6    P     P_3+3 0.423263 0.836142 0.402559 0.441392
C10   C     C_3   0.395075 0.788441 0.255452 0.482897
H23   H     H_    0.522407 0.771979 0.264398 0.013112
H24   H     H_    0.385595 0.757163 0.131358 0.224936
O20   O     O_3   0.422000 0.445190 0.409310 -0.436795
C11   C     C_3   0.582955 0.776411 0.677591 0.342096
H25   H     H_    0.710150 0.760208 0.687921 0.103780
H26   H     H_    0.537964 0.760028 0.614876 0.084154
C12   C     C_3   0.573666 0.893369 0.704586 -0.465290
H27   H     H_    0.590164 0.906479 0.768773 0.219550
H28   H     H_    0.449805 0.910242 0.684628 0.211316
P7    P     P_3+3 0.471242 0.578586 0.688190 0.447079
O21   O     O_2   0.648720 0.552000 0.685060 -0.363892
O22   O     O_3   0.485320 0.713944 0.720953 -0.596400
H29   H     H_    0.713550 0.809747 0.167494 0.270426
C13   C     C_3   0.820787 0.242843 0.846223 0.407576
H30   H     H_    0.937677 0.213535 0.862529 0.037424
H31   H     H_    0.820659 0.322966 0.877669 0.087863
C14   C     C_3   0.684861 0.170313 0.873307 -0.973602
H32   H     H_    0.659680 0.092498 0.837042 0.272533
H33   H     H_    0.719056 0.156756 0.934217 0.219217
H34   H     H_    0.573865 0.209362 0.870389 0.256191
P8    P     P_3+3 0.383085 0.164058 0.597019 0.463147
C15   C     C_3   0.304631 0.169602 0.736269 0.449447
H35   H     H_    0.191568 0.184826 0.702028 0.035388
O23   O     O_2   0.511259 0.113917 0.554086 -0.387140
O24   O     O_3   0.420521 0.132752 0.691726 -0.510112
H36   H     H_    0.360025 0.245226 0.771584 0.099456
H37   H     H_    0.163257 0.113607 0.824583 0.234947
C16   C     C_3   0.256065 0.086556 0.789600 -1.058120
H38   H     H_    0.362157 0.073142 0.829094 0.274647
H39   H     H_    0.206201 0.009352 0.754983 0.279325
C17   C     C_R   0.077956 0.181049 0.522770 -0.472435
C18   C     C_R   0.725959 0.819638 0.481038 -0.535945
C19   C     C_R   0.701214 0.994749 0.442148 -0.225462
C20   C     C_R   0.634178 0.888514 0.444752 0.236192
C21   C     C_R   0.886270 0.851965 0.513822 0.290886
C22   C     C_R   0.953761 0.962273 0.515106 -0.046895
C23   C     C_R   0.858510 0.035115 0.479275 -0.057131
C24   C     C_R   0.922968 0.146379 0.483989 0.285398
C25   C     C_R   0.174627 0.110456 0.552643 0.177156
C26   C     C_R   0.111501 0.002841 0.551830 -0.187054
H40   H     H_    0.628185 0.045468 0.412589 0.184390
H41   H     H_    0.186442 0.952594 0.581089 0.182207
H42   H     H_    0.127449 0.264573 0.527227 0.164051
H43   H     H_    0.669617 0.739870 0.486170 0.162761
H44   H     H_    0.541841 0.547499 0.852869 0.152995
H45   H     H_    0.717148 0.585772 0.101138 0.161560
C27   C     C_R   0.583978 0.554828 0.275057 -0.198892
C28   C     C_R   0.437873 0.486237 0.252342 0.318349
C29   C     C_R   0.384068 0.464392 0.172585 -0.293063
C30   C     C_R   0.480990 0.505174 0.117750 0.080265
C31   C     C_R   0.637392 0.561362 0.142829 -0.316160
C32   C     C_R   0.692281 0.583578 0.221841 0.203818
C33   C     C_R   0.422928 0.503775 0.831776 -0.253324
C34   C     C_R   0.364964 0.495975 0.752774 0.331377
C35   C     C_R   0.106401 0.403964 0.777258 0.194344
C36   C     C_R   0.163569 0.413749 0.856645 -0.309896
C37   C     C_R   0.323057 0.461232 0.884046 0.093852
C38   C     C_1   0.378400 0.474448 0.966528 -0.019405
C39   C     C_1   0.423959 0.486957 0.035471 -0.002092
C40   C     C_R   0.210198 0.441970 0.725676 -0.471732
H46   H     H_    0.084122 0.389043 0.897956 0.112411
H47   H     H_    0.269160 0.414430 0.153312 0.158527
H48   H     H_    0.164771 0.439140 0.665165 0.156294
C41   C     C_3   0.697944 0.971619 0.672980 -0.259927
C42   C     C_3   0.865843 0.984803 0.718733 -0.889285
H49   H     H_    0.864436 0.023422 0.777938 0.265407
H50   H     H_    0.908681 0.907311 0.723642 0.287853
H51   H     H_    0.951403 0.035997 0.689254 0.258640
H52   H     H_    0.703398 0.946622 0.611474 0.196322
H53   H     H_    0.659248 0.051214 0.676448 0.303547
C43   C     C_3   0.645895 0.577696 0.356924 -0.377875
C44   C     C_3   0.740311 0.487481 0.376164 -0.440905
H54   H     H_    0.663193 0.411890 0.378616 0.234763
H55   H     H_    0.821632 0.465819 0.333386 0.190931
H56   H     H_    0.813772 0.515464 0.430638 0.298397
H57   H     H_    0.704683 0.660668 0.367327 0.153885
H58   H     H_    0.562732 0.590593 0.397739 0.243744

loop_
_geom_bond_atom_site_label_1
_geom_bond_atom_site_label_2
_geom_bond_distance
_ccdc_geom_bond_type
C12   H28   1.112405 S    
C16   H38   1.106804 S    
C11   H26   1.113119 S    
C13   H30   1.110748 S    
C22   C23   1.444459 A    
C14   H34   1.108787 S    
C29   H47   1.083048 S    
H45   C31   1.083280 S    
C44   H56   1.079961 S    
O16   P7    1.756366 S    
C35   C36   1.409485 A    
C41   C42   1.521022 S    
P4    O13   1.597400 S    
C37   C38   1.456043 S    
C4    C5    1.516271 S    
P7    C34   1.840120 S    
O4    P6    1.542800 D    
C1    H24   1.110708 S    
C5    H10   1.109478 S    
C2    H5    1.113329 S    
P6    C20   1.850240 S    
C14   H33   1.110397 S    
O11   C2    1.408184 S    
P7    O21   1.572532 D    
H1    C10   1.111625 S    
C22   C26   1.413545 A    
P4    Ba2   3.405753 S    
C27   C28   1.402419 A    
C36   C37   1.404753 A    
C19   C23   1.412193 A    
C6    C7    1.521308 S    
O13   Ba2   2.934242 S    
C29   C30   1.417600 A    
O1    Ba1   2.861736 S    
P1    O1    1.535885 D    
C3    H29   1.109817 S    
P7    O22   1.749579 S    
C31   C32   1.400535 A    
C17   H42   1.082660 S    
C34   C40   1.395901 A    
C8    C9    1.516174 S    
C2    H4    1.109732 S    
P1    C21   1.889345 S    
P2    O10   1.755581 S    
C28   C29   1.410757 A    
Ba2   O21   2.809206 S    
C1    H2    1.109427 S    
O6    P6    1.751140 S    
C35   C40   1.397941 A    
P5    O18   1.544638 D    
P8    O24   1.748885 S    
C8    H19   1.099330 S    
C12   H27   1.112317 S    
C11   C12   1.534400 S    
C10   H23   1.110713 S    
C41   H53   1.102488 S    
C13   H31   1.113150 S    
O2    Ba1   2.933388 S    
Ba1   Ba2   4.594249 S    
P8    O23   1.546588 D    
O6    C10   1.404877 S    
C33   C34   1.406112 A    
P5    O17   1.759489 S    
C30   C39   1.455516 S    
C15   H35   1.113451 S    
C27   C32   1.411269 A    
C7    H17   1.110857 S    
P1    O5    1.748215 S    
O12   Ba2   2.862390 S    
C2    C3    1.518284 S    
C14   H32   1.107861 S    
O7    Ba1   2.809010 S    
H44   C33   1.083397 S    
O16   Ba2   2.936164 S    
H37   C16   1.110636 S    
P4    O15   1.759982 S    
Ba2   O20   2.778981 S    
C4    H8    1.110363 S    
P1    Ba1   3.405187 S    
O14   P8    1.749340 S    
P1    O2    1.597402 S    
O10   C8    1.403692 S    
C9    H20   1.108980 S    
C4    O15   1.398323 S    
C18   C20   1.393056 A    
P2    O20   1.549307 S    
P4    O12   1.536115 D    
C23   C24   1.440734 A    
C6    H13   1.106509 S    
O3    Ba1   2.834402 S    
C9    H21   1.107113 S    
C15   C16   1.522773 S    
C42   H51   1.108848 S    
P3    O11   1.746433 S    
C8    H18   1.096469 S    
C26   H41   1.078705 S    
C43   H57   1.095771 S    
C11   O22   1.400686 S    
C36   H46   1.077504 S    
C1    H3    1.109479 S    
C13   C14   1.517562 S    
C3    H7    1.110505 S    
C44   H54   1.094546 S    
O2    Ba2   2.864172 S    
Ba1   O16   2.779586 S    
C33   C37   1.406364 A    
C15   O24   1.409952 S    
C7    H16   1.107217 S    
C19   H40   1.075876 S    
C42   H50   1.101245 S    
C40   H48   1.082518 S    
C27   C43   1.459774 S    
C7    H15   1.110492 S    
O19   C13   1.409857 S    
C17   C24   1.393271 A    
P8    C25   1.846145 S    
C3    H6    1.108787 S    
O14   Ba2   2.833735 S    
C5    H12   1.109440 S    
C43   H58   1.068240 S    
C18   H43   1.079405 S    
C44   H55   1.106502 S    
O8    Ba1   2.775012 S    
P2    C28   1.893534 S    
P5    C35   1.851847 S    
C4    H9    1.091490 S    
P4    C24   1.885801 S    
O5    C6    1.400182 S    
P3    O8    1.784298 S    
C43   C44   1.520757 S    
P2    O7    1.526358 D    
Ba1   O20   2.937016 S    
P3    C32   1.893142 S    
C38   C39   1.215687 T    
C18   C21   1.394033 A    
C41   H52   1.102446 S    
C5    H11   1.109716 S    
C19   C20   1.402914 A    
C6    H14   1.108483 S    
C21   C22   1.441811 A    
C9    H22   1.109688 S    
C15   H36   1.110533 S    
Ba1   O13   2.863570 S    
C11   H25   1.110095 S    
C25   C26   1.401722 A    
P3    O9    1.546707 D    
O3    P6    1.749793 S    
C16   H39   1.110612 S    
C12   C41   1.531438 S    
C1    C10   1.521482 S    
C30   C31   1.410675 A    
C17   C25   1.387574 A    
P2    Ba1   3.387187 S    
P5    O19   1.753113 S    
C42   H49   1.107448 S    
O17   Ba2   2.775615 S    
