data_mof_unit_14986.cif
_audit_creation_date              2013-03-05T15:47:46-0500
_audit_creation_method            fapswitch 2.2
_symmetry_space_group_name_H-M    P1
_symmetry_Int_Tables_number       1
_space_group_crystal_system       triclinic
_cell_length_a                    10.825282
_cell_length_b                    12.950042
_cell_length_c                    11.805184
_cell_angle_alpha                 100.724933
_cell_angle_beta                  95.83474
_cell_angle_gamma                 91.482193
_cell_volume                      1615.91184782

loop_
_atom_site_label
_atom_site_type_symbol
_atom_site_description
_atom_site_fract_x
_atom_site_fract_y
_atom_site_fract_z
_atom_type_partial_charge
O1    O     O_R   0.506570 0.354460 0.582000 -0.565446
O2    O     O_R   0.493430 0.645540 0.418000 -0.565385
O3    O     O_R   0.490940 0.341410 0.386200 -0.528343
O4    O     O_R   0.509060 0.658590 0.613800 -0.528342
C1    C     C_R   0.494732 0.299115 0.478059 0.849124
C2    C     C_R   0.505267 0.700885 0.521941 0.849177
O5    O     O_R   0.327470 0.506520 0.597900 -0.533740
O6    O     O_R   0.672530 0.493480 0.402100 -0.533681
O7    O     O_R   0.311840 0.493460 0.402100 -0.580987
O8    O     O_R   0.688160 0.506540 0.597900 -0.580971
C3    C     C_R   0.262206 0.510771 0.498859 0.843373
C4    C     C_R   0.737793 0.489227 0.501141 0.843445
Cu1   Cu    Cu3+1 0.509250 0.507730 0.615930 1.077619
Cu2   Cu    Cu3+1 0.490750 0.492270 0.384070 1.077649
C5    C     C_R   0.134951 0.628729 0.695336 0.187213
C6    C     C_R   0.865048 0.371263 0.304664 0.187170
C7    C     C_R   0.092222 0.639471 0.805241 0.263483
C8    C     C_R   0.907779 0.360517 0.194760 0.263383
C9    C     C_R   0.984265 0.583192 0.818129 0.290779
C10   C     C_R   0.015737 0.416793 0.181870 0.290745
C11   C     C_R   0.916828 0.521221 0.721190 -0.150603
C12   C     C_R   0.083173 0.478767 0.278808 -0.150680
C13   C     C_R   0.953332 0.516357 0.608801 -0.007788
C14   C     C_R   0.046667 0.483634 0.391198 -0.007798
C15   C     C_R   0.073239 0.556475 0.599478 -0.016735
C16   C     C_R   0.926759 0.443519 0.400521 -0.016766
C17   C     C_R   0.874119 0.474039 0.505853 -0.095336
C18   C     C_R   0.125880 0.525956 0.494145 -0.095320
H1    H     H_    0.836714 0.476335 0.736158 0.202744
H2    H     H_    0.163287 0.523652 0.263838 0.202766
C19   C     C_R   0.513488 0.814677 0.534005 -0.032013
C20   C     C_R   0.486511 0.185323 0.465995 -0.031959
C21   C     C_R   0.386839 0.016454 0.376077 -0.126269
C22   C     C_R   0.613152 0.983548 0.623932 -0.126319
C23   C     C_R   0.401164 0.124287 0.381154 -0.092329
C24   C     C_R   0.598832 0.875714 0.618853 -0.092319
C25   C     C_R   0.557595 0.138413 0.546508 -0.134144
C26   C     C_R   0.442398 0.861588 0.453496 -0.134092
C27   C     C_R   0.543071 0.030748 0.542979 0.140705
C28   C     C_R   0.456921 0.969253 0.457027 0.140719
H3    H     H_    0.376784 0.813939 0.387505 0.167315
H4    H     H_    0.623208 0.186061 0.612500 0.167271
H5    H     H_    0.658148 0.839746 0.677922 0.227600
H6    H     H_    0.341850 0.160257 0.322089 0.227596
H7    H     H_    0.319763 0.970430 0.310358 0.182192
H8    H     H_    0.680226 0.029573 0.689655 0.182181
N1    N     N_R   0.523180 0.519350 0.790130 -0.300315
N2    N     N_R   0.476820 0.480650 0.209870 -0.300283
C29   C     C_R   0.410530 0.382877 0.015598 -0.181238
C30   C     C_R   0.589497 0.617113 0.984397 -0.181253
C31   C     C_R   0.416629 0.394153 0.136943 0.472863
C32   C     C_R   0.583399 0.605835 0.863054 0.472859
C33   C     C_R   0.536848 0.553795 0.160015 0.474501
C34   C     C_R   0.463119 0.446225 0.839982 0.474559
C35   C     C_R   0.532013 0.543095 0.036546 -0.128142
C36   C     C_R   0.467989 0.456907 0.963451 -0.128090
H9    H     H_    0.360593 0.314256 0.962820 0.247487
H10   H     H_    0.639474 0.685718 0.037166 0.247480
Br1   Br    Br    0.084785 0.398790 0.036358 -0.359460
Br2   Br    Br    0.915218 0.601191 0.963642 -0.359685
Br3   Br    Br    0.251580 0.734999 0.670891 -0.416299
Br4   Br    Br    0.748416 0.264996 0.329112 -0.416269
Br5   Br    Br    0.180872 0.730916 0.937647 -0.294783
Br6   Br    Br    0.819131 0.269067 0.062356 -0.294866
N3    N     N_R   0.389443 0.360941 0.768134 0.138088
O9    O     O_R   0.271760 0.372858 0.741717 -0.328868
O10   O     O_R   0.429342 0.266127 0.758852 -0.350795
N4    N     N_R   0.610336 0.639199 0.231867 0.138045
O11   O     O_R   0.727969 0.627379 0.258708 -0.328819
O12   O     O_R   0.570337 0.733975 0.240944 -0.350780
N5    N     N_R   0.634684 0.691434 0.819460 0.142486
O13   O     O_R   0.609715 0.787108 0.864854 -0.316154
O14   O     O_R   0.727560 0.677303 0.757768 -0.367748
N6    N     N_R   0.365355 0.308553 0.180538 0.142495
O15   O     O_R   0.390394 0.212886 0.135196 -0.316163
O16   O     O_R   0.272441 0.322664 0.242179 -0.367738

loop_
_geom_bond_atom_site_label_1
_geom_bond_atom_site_label_2
_geom_bond_distance
_ccdc_geom_bond_type
C35   C36   1.396661 A    
C21   H7    1.084129 S    
C31   N6    1.428408 S    
C34   N3    1.429526 S    
C15   C18   1.414203 A    
O5    C3    1.314239 A    
C16   C17   1.414203 A    
N6    O16   1.297476 A    
O1    C1    1.292938 A    
C9    C11   1.394497 A    
C14   C16   1.407957 A    
C5    C15   1.422051 A    
C25   H4    1.085391 S    
C29   H9    1.081990 S    
O4    Cu1   1.958528 S    
C33   N4    1.429575 S    
C21   C23   1.390492 A    
N2    C31   1.381929 A    
N4    O11   1.300572 A    
C29   C31   1.407175 A    
C30   C32   1.407152 A    
C22   H8    1.084151 S    
C13   C17   1.424273 A    
C22   C24   1.390490 A    
C1    C20   1.453369 S    
C2    C19   1.453367 S    
Cu1   Cu2   2.693453 S    
O2    C2    1.292940 A    
C6    Br4   1.924377 S    
C33   C35   1.433668 A    
C6    C16   1.422050 A    
N2    C33   1.385389 A    
C34   C36   1.433664 A    
C21   C28   1.398717 A    
N6    O15   1.301873 A    
C4    C17   1.490652 S    
C22   C27   1.398733 A    
C30   H10   1.081995 S    
C20   C23   1.400331 A    
C26   H3    1.085391 S    
O4    C2    1.300313 A    
C27   C28   1.414898 A    
N5    O14   1.297498 A    
Cu2   N2    2.023618 S    
N3    O10   1.301218 A    
C11   H1    1.079139 S    
O7    Cu2   1.969945 S    
O6    C4    1.314238 A    
C5    Br3   1.924380 S    
C20   C25   1.398199 A    
C10   Br1   1.919607 S    
C23   H6    1.077393 S    
O7    C3    1.295918 A    
O3    Cu2   1.958531 S    
O8    C4    1.295920 A    
N1    C34   1.385349 A    
N4    O12   1.301291 A    
C10   C12   1.394495 A    
C11   C13   1.413241 A    
C12   C14   1.413245 A    
O1    Cu1   1.949278 S    
Cu1   N1    2.023618 S    
C5    C7    1.405293 A    
O6    Cu2   1.957005 S    
C12   H2    1.079142 S    
C14   C18   1.424277 A    
O3    C1    1.300312 A    
O8    Cu1   1.969945 S    
N1    C32   1.381928 A    
C9    Br2   1.919602 S    
C29   C36   1.397008 A    
C30   C35   1.397029 A    
C19   C26   1.398200 A    
N5    O13   1.301913 A    
C25   C27   1.391449 A    
C32   N5    1.428432 S    
C7    Br5   1.927136 S    
C26   C28   1.391452 A    
C8    Br6   1.927134 S    
C3    C18   1.490649 S    
C7    C9    1.397666 A    
C8    C10   1.397668 A    
C13   C15   1.407954 A    
O2    Cu2   1.949275 S    
O5    Cu1   1.957004 S    
C6    C8    1.405292 A    
N3    O9    1.300506 A    
C19   C24   1.400358 A    
C24   H5    1.077427 S    
