data_mof_unit_52824.cif
_audit_creation_date              2013-03-05T16:42:22-0500
_audit_creation_method            fapswitch 2.2
_symmetry_space_group_name_H-M    P1
_symmetry_Int_Tables_number       1
_space_group_crystal_system       triclinic
_cell_length_a                    9.905685
_cell_length_b                    10.653654
_cell_length_c                    15.450503
_cell_angle_alpha                 90.431249
_cell_angle_beta                  67.266667
_cell_angle_gamma                 90.062198
_cell_volume                      1503.80354331

loop_
_atom_site_label
_atom_site_type_symbol
_atom_site_description
_atom_site_fract_x
_atom_site_fract_y
_atom_site_fract_z
_atom_type_partial_charge
O1    O     O_R   0.385310 0.683210 0.499990 -0.632480
O2    O     O_R   0.614650 0.683240 0.500000 -0.536407
C1    C     C_R   0.500332 0.739625 0.499470 0.967406
O3    O     O_R   0.319830 0.499970 0.632240 -0.565484
O4    O     O_R   0.549170 0.500000 0.632250 -0.580162
C2    C     C_R   0.407789 0.501540 0.676331 1.034346
Zn1   Zn    Zn3+2 0.346870 0.499980 0.499990 1.097893
Zn2   Zn    Zn3+2 0.653130 0.500020 0.500010 1.114615
O5    O     O_R   0.385350 0.316760 0.500000 -0.565167
O6    O     O_R   0.614690 0.316790 0.500010 -0.613022
O7    O     O_R   0.450830 0.500000 0.367750 -0.564192
O8    O     O_R   0.680170 0.500030 0.367760 -0.567176
C3    C     C_R   0.500307 0.260521 0.499185 0.931578
C4    C     C_R   0.592114 0.501806 0.323921 0.977388
C5    C     C_R   0.349790 0.522088 0.777805 -0.385527
C6    C     C_R   0.651036 0.509321 0.221951 -0.300277
C7    C     C_R   0.179202 0.622420 0.918471 0.586625
C8    C     C_R   0.217299 0.584978 0.825334 0.506232
C9    C     C_R   0.441196 0.495079 0.824435 0.631779
C10   C     C_R   0.419183 0.553226 0.910454 -0.137289
C11   C     C_R   0.280289 0.608385 0.962232 -0.264453
C12   C     C_R   0.529086 0.550762 0.947989 -0.011365
C13   C     C_R   0.489190 0.573864 0.045090 -0.011166
C14   C     C_R   0.344014 0.613427 0.098548 -0.097218
C15   C     C_R   0.244801 0.640371 0.057126 0.350388
C16   C     C_R   0.678296 0.527321 0.891175 0.718952
C17   C     C_R   0.776413 0.495461 0.931421 -0.107565
C18   C     C_R   0.733042 0.498667 0.028298 -0.118679
C19   C     C_R   0.594167 0.549515 0.085337 -0.018804
C20   C     C_R   0.828257 0.453723 0.068695 -0.125630
C21   C     C_R   0.784302 0.453303 0.165786 0.617270
C22   C     C_R   0.565478 0.568782 0.180830 0.585813
H1    H     H_    0.887053 0.468600 0.886454 0.219146
H2    H     H_    0.302177 0.625451 0.173239 0.255509
H3    H     H_    0.933500 0.413570 0.025354 0.189582
C23   C     C_R   0.372369 0.936340 0.542250 -0.172445
C24   C     C_R   0.501896 0.871533 0.494275 -0.147335
C25   C     C_R   0.628597 0.935064 0.436779 0.714051
C26   C     C_R   0.628199 0.064993 0.437015 -0.223215
H4    H     H_    0.726828 0.115332 0.395314 0.204881
C27   C     C_R   0.501146 0.128832 0.493837 -0.124162
C28   C     C_R   0.371680 0.064695 0.541690 -0.022952
C29   C     C_3   0.269664 0.072310 0.643468 0.364758
C30   C     C_3   0.271256 0.929104 0.643510 0.424570
H5    H     H_    0.164733 0.885297 0.653850 0.108225
C31   C     C_R   0.886783 0.558291 0.570364 0.198347
N1    N     N_R   0.856900 0.500860 0.500610 -0.123363
C32   C     C_R   0.966571 0.434665 0.434495 -0.082784
H6    H     H_    0.943650 0.383442 0.380963 0.207212
C33   C     C_R   0.110242 0.433811 0.434190 0.376036
N2    N     N_R   0.142540 0.500820 0.500610 -0.154253
C34   C     C_R   0.028622 0.557235 0.570959 0.150762
C35   C     C_3   0.019359 0.692485 0.597680 -0.516800
C36   C     C_3   0.867705 0.694448 0.595455 0.473313
H7    H     H_    0.017035 0.705897 0.669528 0.248621
H8    H     H_    0.100279 0.751080 0.542585 0.241199
H9    H     H_    0.777957 0.714096 0.664409 0.152651
N3    N     N_R   0.106933 0.696176 0.114183 0.253723
O9    O     O_R   0.028715 0.647555 0.195145 -0.300472
O10   O     O_R   0.077213 0.809504 0.096015 -0.228311
F1    F     F_    0.752146 0.872160 0.383013 -0.555995
N4    N     N_R   0.334734 0.131738 0.704570 0.232589
O11   O     O_R   0.465905 0.101453 0.697592 -0.272011
O12   O     O_R   0.263839 0.218880 0.764257 -0.327848
N5    N     N_R   0.124817 0.123508 0.658185 0.194378
O13   O     O_R   0.015315 0.105067 0.737523 -0.288801
O14   O     O_R   0.104258 0.188970 0.593503 -0.327035
F2    F     F_    0.338358 0.877199 0.698733 -0.598371
N6    N     N_R   0.220999 0.364354 0.362080 0.228538
O15   O     O_R   0.258350 0.254222 0.381018 -0.317010
O16   O     O_R   0.252499 0.393597 0.274851 -0.365885
F3    F     F_    0.462601 0.651705 0.234371 -0.640306
F4    F     F_    0.862863 0.767303 0.522906 -0.563717
F5    F     F_    0.870754 0.397718 0.204451 -0.611189
F6    F     F_    0.044727 0.673794 0.963761 -0.579386
F7    F     F_    0.124774 0.610654 0.782028 -0.614558
F8    F     F_    0.545033 0.404505 0.788052 -0.552462
F9    F     F_    0.732645 0.541310 0.796654 -0.645647

loop_
_geom_bond_atom_site_label_1
_geom_bond_atom_site_label_2
_geom_bond_distance
_ccdc_geom_bond_type
C5    C8    1.400078 A    
C27   C28   1.389634 A    
C23   C28   1.367581 A    
C9    C10   1.400554 A    
C3    C27   1.404617 S    
C26   C27   1.398628 A    
C35   C36   1.516021 S    
C17   H1    1.083931 S    
C6    C21   1.400143 A    
Zn1   O7    1.899699 S    
C16   C17   1.384733 A    
N4    O11   1.302358 A    
C20   H3    1.084127 S    
C13   C19   1.427607 A    
C23   C24   1.389796 A    
C33   N6    1.427288 S    
C19   C22   1.404018 A    
C25   C26   1.384202 A    
O7    C4    1.298168 A    
N3    O10   1.301122 A    
C31   C34   1.408657 A    
N6    O16   1.300726 A    
C9    F8    1.360952 S    
O5    C3    1.283016 A    
N4    O12   1.301343 A    
C2    C5    1.461164 S    
N5    O14   1.301805 A    
C13   C14   1.416317 A    
C29   N5    1.468185 S    
C25   F1    1.358167 S    
C32   C33   1.421383 A    
O3    Zn1   1.955490 S    
C33   N2    1.381079 A    
C35   H7    1.109555 S    
N2    C34   1.363705 A    
C14   C15   1.395474 A    
O3    C2    1.296940 A    
C26   H4    1.083884 S    
C21   F5    1.357479 S    
N3    O9    1.301233 A    
C14   H2    1.071519 S    
O1    C1    1.284907 A    
C5    C9    1.389076 A    
C29   C30   1.525772 S    
C24   C25   1.402837 A    
C36   F4    1.384179 S    
N1    C32   1.361669 A    
C20   C21   1.391119 A    
Zn2   O8    1.955487 S    
C31   C36   1.491861 S    
C7    C8    1.394359 A    
C16   F9    1.356561 S    
C34   C35   1.488997 S    
C32   H6    1.082363 S    
C10   C12   1.417910 A    
C4    C6    1.456134 S    
C30   F2    1.386287 S    
C28   C29   1.506868 S    
C30   H5    1.107480 S    
C15   N3    1.434942 S    
C35   H8    1.111918 S    
Zn1   O5    1.989250 S    
C11   C15   1.408437 A    
C31   N1    1.363724 A    
C18   C19   1.421248 A    
C8    F7    1.356406 S    
O1    Zn1   1.988454 S    
O2    Zn2   1.989250 S    
O8    C4    1.294925 A    
O6    C3    1.285644 A    
O4    Zn2   1.899699 S    
C6    C22   1.395199 A    
C18   C20   1.403163 A    
O2    C1    1.285284 A    
Zn2   N1    2.022092 S    
Zn1   N2    2.020375 S    
O4    C2    1.299287 A    
N6    O15   1.299588 A    
C7    C11   1.416796 A    
C23   C30   1.499133 S    
C10   C11   1.422060 A    
C1    C24   1.407921 S    
Zn2   O6    1.988454 S    
N5    O13   1.301257 A    
C12   C16   1.418524 A    
C17   C18   1.388675 A    
C7    F6    1.356104 S    
C12   C13   1.415618 A    
C29   N4    1.472406 S    
C22   F3    1.357450 S    
C36   H9    1.110951 S    
