data_mof_unit_57667.cif
_audit_creation_date              2012-12-10T17:09:56-0500
_audit_creation_method            fapswitch 2.2
_symmetry_space_group_name_H-M    P1
_symmetry_Int_Tables_number       1
_space_group_crystal_system       triclinic
_cell_length_a                    10.781931
_cell_length_b                    12.997457
_cell_length_c                    11.675723
_cell_angle_alpha                 99.762986
_cell_angle_beta                  93.481761
_cell_angle_gamma                 90.349053
_cell_volume                      1609.3127972

loop_
_atom_site_label
_atom_site_type_symbol
_atom_type_description
_atom_site_fract_x
_atom_site_fract_y
_atom_site_fract_z
_atom_type_partial_charge
C1    C     C_R   0.498275 0.299095 0.478720 0.855638
C2    C     C_R   0.491254 0.123372 0.355463 -0.136377
C3    C     C_R   0.503876 0.139231 0.566297 -0.239803
C4    C     C_R   0.262589 0.499930 0.500569 0.841809
C5    C     C_R   0.503866 0.031193 0.555916 0.170320
C6    C     C_R   0.497533 0.968738 0.444073 0.164624
C7    C     C_R   0.497334 0.860702 0.433697 -0.230220
C8    C     C_R   0.509707 0.876549 0.644541 -0.203071
C9    C     C_R   0.510069 0.984663 0.655633 -0.197823
C10   C     C_R   0.390698 0.397030 0.021767 -0.301213
C11   C     C_R   0.399912 0.407189 0.143753 0.109508
C12   C     C_R   0.069070 0.594685 0.547527 0.064442
C13   C     C_R   0.546511 0.545920 0.157798 0.067250
C14   C     C_R   0.540574 0.539006 0.034731 0.016107
C15   C     C_R   0.461222 0.462944 0.966194 0.032422
C16   C     C_R   0.501924 0.700891 0.521292 0.775488
C17   C     C_R   0.454115 0.454686 0.843409 0.026911
C18   C     C_R   0.600228 0.593299 0.855272 0.066374
C19   C     C_R   0.610775 0.605024 0.977651 0.021547
C20   C     C_R   0.737399 0.500074 0.499385 0.842955
C21   C     C_R   0.136555 0.687999 0.592893 -0.141196
C22   C     C_R   0.075211 0.779055 0.636458 -0.115521
C23   C     C_R   0.128905 0.501743 0.501639 -0.178584
C24   C     C_R   0.946156 0.779295 0.635141 -0.106606
C25   C     C_R   0.877860 0.688505 0.590167 -0.142392
C26   C     C_R   0.938279 0.594964 0.546045 0.063853
C27   C     C_R   0.061136 0.410166 0.453776 0.108295
C28   C     C_R   0.931484 0.410508 0.452086 0.123661
C29   C     C_R   0.871105 0.502345 0.498579 -0.179708
C30   C     C_R   0.503110 0.814252 0.533597 -0.059084
C31   C     C_R   0.497651 0.185686 0.466414 -0.034755
C32   C     C_R   0.491303 0.015262 0.344358 -0.173366
Cu1   Cu    Cu3+1 0.509250 0.507730 0.615930 0.954728
Cu2   Cu    Cu3+1 0.490750 0.492270 0.384070 0.978113
H1    H     H_    0.515035 0.031738 0.741851 0.145443
H2    H     H_    0.128050 0.849816 0.670819 0.145360
H3    H     H_    0.898669 0.850237 0.668470 0.148266
H4    H     H_    0.777690 0.692805 0.589504 0.125273
H5    H     H_    0.492525 0.813037 0.347723 0.165244
H6    H     H_    0.514373 0.841858 0.722716 0.168759
H7    H     H_    0.486453 0.968187 0.258138 0.153434
H8    H     H_    0.486410 0.158073 0.277300 0.168154
H9    H     H_    0.508711 0.186898 0.652261 0.153706
H10   H     H_    0.392943 0.396787 0.790264 0.133460
H11   H     H_    0.653917 0.644022 0.811896 0.147986
H12   H     H_    0.328932 0.337913 0.971312 0.147662
H13   H     H_    0.345426 0.355862 0.185629 0.148311
H14   H     H_    0.606874 0.602841 0.212851 0.156169
H15   H     H_    0.236869 0.691880 0.594505 0.132915
I1    I     I_    0.156439 0.270017 0.388079 -0.341494
I2    I     I_    0.733147 0.724240 0.068161 -0.403747
I3    I     I_    0.825530 0.271046 0.383341 -0.293721
N1    N     N_R   0.523180 0.519350 0.790130 -0.198888
N2    N     N_R   0.476820 0.480650 0.209890 -0.191579
O1    O     O_R   0.506570 0.354460 0.582000 -0.589262
O2    O     O_R   0.490940 0.341410 0.386200 -0.579850
O3    O     O_R   0.327470 0.506530 0.597920 -0.582442
O4    O     O_R   0.311840 0.493480 0.402120 -0.565234
O5    O     O_R   0.509060 0.658590 0.613800 -0.604744
O6    O     O_R   0.493430 0.645540 0.418000 -0.590407
O7    O     O_R   0.688160 0.506520 0.597880 -0.580194
O8    O     O_R   0.672530 0.493470 0.402080 -0.562906

loop_
_geom_bond_atom_site_label_1
_geom_bond_atom_site_label_2
_ccdc_geom_bond_type
C4    O3    A    
Cu1   O1    S    
C13   H14   S    
C6    C32   A    
C32   H7    S    
C5    C9    A    
C6    C7    A    
C23   C27   A    
C25   H4    S    
Cu1   N1    S    
C22   H2    S    
C13   N2    A    
C11   H13   S    
Cu2   O6    S    
C27   I1    S    
Cu2   O8    S    
Cu2   O2    S    
C10   C15   A    
C8    C30   A    
C17   N1    A    
C21   H15   S    
Cu1   Cu2   S    
C1    O1    A    
C17   H10   S    
Cu1   O5    S    
C7    C30   A    
C21   C22   A    
C3    C31   A    
C28   I3    S    
C12   C23   A    
C3    H9    S    
C11   N2    A    
C2    H8    S    
C12   C21   A    
C2    C32   A    
C28   C29   A    
C1    O2    A    
Cu1   O3    S    
C24   H3    S    
C20   C29   S    
C20   O8    A    
C5    C6    A    
Cu2   O4    S    
C22   C24   A    
C10   C11   A    
C16   C30   S    
C20   O7    A    
C18   H11   S    
C19   I2    S    
C10   H12   S    
C1    C31   S    
C24   C25   A    
C26   C29   A    
Cu1   O7    S    
C18   C19   A    
C16   O6    A    
C4    O4    A    
C27   C28   A    
C15   C17   A    
C4    C23   S    
Cu2   N2    S    
C14   C15   A    
C8    C9    A    
C9    H1    S    
C7    H5    S    
C8    H6    S    
C18   N1    A    
C25   C26   A    
C13   C14   A    
C14   C19   A    
C12   C26   A    
C2    C31   A    
C3    C5    A    
C16   O5    A    
