data_mof_unit_62931.cif
_audit_creation_date              2013-03-05T16:15:49-0500
_audit_creation_method            fapswitch 2.2
_symmetry_space_group_name_H-M    P1
_symmetry_Int_Tables_number       1
_space_group_crystal_system       triclinic
_cell_length_a                    34.483367
_cell_length_b                    24.387977
_cell_length_c                    24.315898
_cell_angle_alpha                 89.991174
_cell_angle_beta                  90.00533
_cell_angle_gamma                 90.066842
_cell_volume                      20449.1589859

loop_
_atom_site_label
_atom_site_type_symbol
_atom_site_description
_atom_site_fract_x
_atom_site_fract_y
_atom_site_fract_z
_atom_type_partial_charge
Zn1   Zn    Zn3+2 0.782760 0.500000 0.564970 1.142082
Zn2   Zn    Zn3+2 0.217240 0.500000 0.435030 1.149986
Zn3   Zn    Zn3+2 0.782760 0.500000 0.435030 1.127156
Zn4   Zn    Zn3+2 0.217240 0.500000 0.564970 1.150590
Zn5   Zn    Zn3+2 0.282760 0.000000 0.064970 1.150171
Zn6   Zn    Zn3+2 0.717240 0.000000 0.935030 1.129990
Zn7   Zn    Zn3+2 0.282760 0.000000 0.935030 1.149905
Zn8   Zn    Zn3+2 0.717240 0.000000 0.064970 1.141322
Zn9   Zn    Zn3+2 0.717260 0.564980 0.500000 1.146771
Zn10  Zn    Zn3+2 0.282740 0.435020 0.500000 1.151799
Zn11  Zn    Zn3+2 0.717260 0.435020 0.500000 1.162130
Zn12  Zn    Zn3+2 0.282740 0.564980 0.500000 1.165391
Zn13  Zn    Zn3+2 0.217260 0.064980 0.000000 1.151696
Zn14  Zn    Zn3+2 0.782740 0.935020 0.000000 1.145676
Zn15  Zn    Zn3+2 0.217260 0.935020 0.000000 1.164869
Zn16  Zn    Zn3+2 0.782740 0.064980 0.000000 1.164150
O1    O     O_3   0.750010 0.500000 0.500000 -0.599978
O2    O     O_3   0.249990 0.500000 0.500000 -0.610091
O3    O     O_3   0.250010 0.000000 0.000000 -0.610117
O4    O     O_3   0.749990 0.000000 0.000000 -0.601619
O5    O     O_R   0.772930 0.563990 0.390540 -0.596390
O6    O     O_R   0.227070 0.436010 0.609460 -0.600729
O7    O     O_R   0.772930 0.436010 0.609460 -0.611564
O8    O     O_R   0.227070 0.563990 0.390540 -0.600894
O9    O     O_R   0.227070 0.436010 0.390540 -0.582816
O10   O     O_R   0.772930 0.563990 0.609460 -0.597406
O11   O     O_R   0.227070 0.563990 0.609460 -0.589835
O12   O     O_R   0.772930 0.436010 0.390540 -0.610129
O13   O     O_R   0.272930 0.063990 0.890540 -0.583135
O14   O     O_R   0.727070 0.936010 0.109460 -0.596477
O15   O     O_R   0.272930 0.936010 0.109460 -0.590059
O16   O     O_R   0.727070 0.063990 0.890540 -0.600703
O17   O     O_R   0.727070 0.936010 0.890540 -0.591192
O18   O     O_R   0.272930 0.063990 0.109460 -0.599936
O19   O     O_R   0.727070 0.063990 0.109460 -0.609347
O20   O     O_R   0.272930 0.936010 0.890540 -0.600360
O21   O     O_R   0.727090 0.609470 0.563990 -0.576264
O22   O     O_R   0.272910 0.390530 0.436010 -0.598933
O23   O     O_R   0.727090 0.390530 0.436010 -0.599583
O24   O     O_R   0.272910 0.609470 0.563990 -0.580832
O25   O     O_R   0.272910 0.390530 0.563990 -0.575345
O26   O     O_R   0.727090 0.609470 0.436010 -0.596142
O27   O     O_R   0.272910 0.609470 0.436010 -0.577744
O28   O     O_R   0.727090 0.390530 0.563990 -0.567248
O29   O     O_R   0.227090 0.109470 0.063990 -0.575120
O30   O     O_R   0.772910 0.890530 0.936010 -0.595259
O31   O     O_R   0.227090 0.890530 0.936010 -0.577629
O32   O     O_R   0.772910 0.109470 0.063990 -0.560544
O33   O     O_R   0.772910 0.890530 0.063990 -0.576238
O34   O     O_R   0.227090 0.109470 0.936010 -0.598985
O35   O     O_R   0.772910 0.109470 0.936010 -0.594553
O36   O     O_R   0.227090 0.890530 0.063990 -0.581115
O37   O     O_R   0.662570 0.545500 0.500000 -0.586742
O38   O     O_R   0.337430 0.454500 0.500000 -0.588576
O39   O     O_R   0.662570 0.454500 0.500000 -0.600181
O40   O     O_R   0.337430 0.545500 0.500000 -0.591753
O41   O     O_R   0.162570 0.045500 0.000000 -0.588340
O42   O     O_R   0.837430 0.954500 0.000000 -0.586449
O43   O     O_R   0.162570 0.954500 0.000000 -0.591980
O44   O     O_R   0.837430 0.045500 0.000000 -0.599862
O45   O     O_R   0.837440 0.500000 0.454520 -0.587654
O46   O     O_R   0.162560 0.500000 0.545480 -0.559904
O47   O     O_R   0.837440 0.500000 0.545480 -0.564242
O48   O     O_R   0.162560 0.500000 0.454520 -0.559705
O49   O     O_R   0.337440 0.000000 0.954520 -0.558546
O50   O     O_R   0.662560 0.000000 0.045480 -0.563244
O51   O     O_R   0.337440 0.000000 0.045480 -0.559095
O52   O     O_R   0.662560 0.000000 0.954520 -0.587163
C1    C     C_R   0.749678 0.604668 0.394456 1.019070
C2    C     C_R   0.249509 0.394531 0.604789 1.031985
C3    C     C_R   0.750451 0.394525 0.604781 1.057351
C4    C     C_R   0.249520 0.605491 0.395215 1.030802
C5    C     C_R   0.250363 0.395381 0.394394 1.021017
C6    C     C_R   0.750507 0.605494 0.604780 1.011566
C7    C     C_R   0.250371 0.604643 0.605603 1.031720
C8    C     C_R   0.750128 0.394931 0.395061 1.059490
C9    C     C_R   0.249639 0.104622 0.894402 1.020305
C10   C     C_R   0.749472 0.894474 0.104762 1.010365
C11   C     C_R   0.249634 0.895354 0.105597 1.031565
C12   C     C_R   0.749800 0.105226 0.895104 1.045293
C13   C     C_R   0.750321 0.895309 0.894432 1.016241
C14   C     C_R   0.250499 0.105477 0.104790 1.031670
C15   C     C_R   0.749444 0.105592 0.104719 1.057339
C16   C     C_R   0.250485 0.894501 0.895218 1.030095
C17   C     C_R   0.644297 0.499977 0.499912 1.042909
C18   C     C_R   0.355646 0.500037 0.499930 1.051546
C19   C     C_R   0.144356 0.999961 0.999920 1.051678
C20   C     C_R   0.855705 0.000022 0.999904 1.042138
C21   C     C_R   0.855854 0.499864 0.500014 0.948763
C22   C     C_R   0.144037 0.499960 0.500006 0.959402
C23   C     C_R   0.355973 0.000030 0.000010 0.956680
C24   C     C_R   0.644143 0.000112 0.000007 0.941404
C25   C     C_R   0.081268 0.522559 0.544300 0.636332
C26   C     C_R   0.918215 0.472999 0.457963 0.616495
C27   C     C_R   0.081256 0.476497 0.456018 0.637148
C28   C     C_R   0.918331 0.525483 0.542441 0.640683
C29   C     C_R   0.581747 0.025258 0.956915 0.615255
C30   C     C_R   0.418785 0.979404 0.045300 0.629453
C31   C     C_R   0.581658 0.976033 0.043362 0.638464
C32   C     C_R   0.418783 0.021424 0.954983 0.638552
C33   C     C_R   0.101469 0.499726 0.500068 -0.330301
C34   C     C_R   0.898229 0.499475 0.500101 -0.353838
C35   C     C_R   0.601766 0.000451 0.000066 -0.359243
C36   C     C_R   0.398557 0.000242 0.000071 -0.331840
C37   C     C_R   0.040580 0.472333 0.457303 -0.173991
C38   C     C_R   0.958975 0.522670 0.545199 -0.179412
C39   C     C_R   0.040574 0.526177 0.543270 -0.172426
C40   C     C_R   0.958931 0.475366 0.455399 -0.166215
C41   C     C_R   0.541037 0.979088 0.046062 -0.158367
C42   C     C_R   0.459443 0.025651 0.956093 -0.178372
C43   C     C_R   0.541059 0.022606 0.954380 -0.170785
C44   C     C_R   0.459462 0.975657 0.044381 -0.160289
C45   C     C_R   0.020165 0.499171 0.500299 -0.091242
C46   C     C_R   0.979377 0.499045 0.500305 -0.092934
C47   C     C_R   0.520628 0.000834 0.000235 -0.091956
C48   C     C_R   0.479854 0.000730 0.000244 -0.089584
C49   C     C_R   0.019815 0.443877 0.415748 0.349616
C50   C     C_R   0.979681 0.544915 0.590380 0.350268
C51   C     C_R   0.019789 0.554202 0.585066 0.351183
C52   C     C_R   0.979672 0.452848 0.410387 0.353802
C53   C     C_R   0.520369 0.958852 0.092192 0.283133
C54   C     C_R   0.480195 0.052204 0.913274 0.349767
C55   C     C_R   0.520336 0.043055 0.908376 0.354277
C56   C     C_R   0.480249 0.949452 0.087363 0.314805
C57   C     C_R   0.785822 0.288500 0.706861 0.615760
C58   C     C_R   0.213790 0.708815 0.290624 0.597775
C59   C     C_R   0.748974 0.672908 0.254704 0.612928
C60   C     C_R   0.213695 0.290948 0.709192 0.597680
C61   C     C_R   0.250230 0.672746 0.745475 0.611673
C62   C     C_R   0.765536 0.259357 0.323822 0.632229
C63   C     C_R   0.250485 0.327332 0.254488 0.615094
C64   C     C_R   0.785812 0.707763 0.710823 0.591872
C65   C     C_R   0.249541 0.827278 0.245482 0.612225
C66   C     C_R   0.740122 0.243348 0.826138 0.630615
C67   C     C_R   0.249258 0.172645 0.754485 0.615323
C68   C     C_R   0.713938 0.791729 0.210287 0.594418
C69   C     C_R   0.713916 0.209120 0.209439 0.615529
C70   C     C_R   0.286186 0.791461 0.790331 0.597752
C71   C     C_R   0.749294 0.826321 0.754963 0.610610
C72   C     C_R   0.286283 0.208744 0.209543 0.597089
C73   C     C_R   0.786800 0.328248 0.665095 0.228111
C74   C     C_R   0.212834 0.669091 0.332358 0.147265
C75   C     C_R   0.747769 0.631324 0.294548 0.214239
C76   C     C_R   0.212773 0.330728 0.667505 0.147004
C77   C     C_R   0.251389 0.631135 0.705643 0.237974
C78   C     C_R   0.766377 0.299707 0.364981 0.137907
C79   C     C_R   0.251579 0.368931 0.294346 0.233875
C80   C     C_R   0.786954 0.668510 0.668693 0.141618
C81   C     C_R   0.248410 0.868877 0.205625 0.237934
C82   C     C_R   0.739347 0.203112 0.867433 0.142556
C83   C     C_R   0.248191 0.131059 0.794369 0.233472
C84   C     C_R   0.712871 0.831343 0.168467 0.139932
C85   C     C_R   0.712861 0.169454 0.167609 0.230776
C86   C     C_R   0.287163 0.831149 0.832090 0.146470
C87   C     C_R   0.750645 0.868144 0.794515 0.214708
C88   C     C_R   0.287228 0.168999 0.167834 0.149420
C89   C     C_R   0.751382 0.351322 0.646588 -0.470183
C90   C     C_R   0.248430 0.648796 0.353479 -0.464732
C91   C     C_R   0.748881 0.646133 0.350947 -0.486731
C92   C     C_R   0.248384 0.351230 0.646537 -0.464444
C93   C     C_R   0.251232 0.646029 0.649208 -0.469127
C94   C     C_R   0.750916 0.352066 0.353361 -0.467591
C95   C     C_R   0.251232 0.354019 0.350769 -0.485973
C96   C     C_R   0.751458 0.648624 0.646731 -0.454270
C97   C     C_R   0.248770 0.853974 0.149204 -0.468862
C98   C     C_R   0.748888 0.148423 0.853549 -0.468054
C99   C     C_R   0.248762 0.145980 0.850777 -0.485833
C100  C     C_R   0.748413 0.851177 0.146575 -0.454129
C101  C     C_R   0.748380 0.148943 0.146481 -0.472627
C102  C     C_R   0.251575 0.851198 0.853473 -0.464590
C103  C     C_R   0.750979 0.853641 0.851041 -0.486746
C104  C     C_R   0.251624 0.148770 0.146553 -0.465000
C105  C     C_R   0.716035 0.333312 0.668947 0.526501
C106  C     C_R   0.283800 0.670032 0.334082 0.547621
C107  C     C_R   0.749457 0.701705 0.366210 0.525292
C108  C     C_R   0.283741 0.330169 0.666055 0.545807
C109  C     C_R   0.251617 0.701637 0.634004 0.536727
C110  C     C_R   0.735905 0.363878 0.301151 0.505175
C111  C     C_R   0.251506 0.298407 0.365955 0.531130
C112  C     C_R   0.716018 0.669990 0.665632 0.538659
C113  C     C_R   0.248581 0.798368 0.134014 0.536283
C114  C     C_R   0.758028 0.134651 0.799084 0.517190
C115  C     C_R   0.248710 0.201590 0.865946 0.531113
C116  C     C_R   0.783803 0.829478 0.165305 0.539118
C117  C     C_R   0.783772 0.169770 0.166156 0.527763
C118  C     C_R   0.216207 0.829718 0.834321 0.547520
C119  C     C_R   0.751728 0.798112 0.866560 0.523794
C120  C     C_R   0.216270 0.170105 0.165777 0.545704
C121  C     C_R   0.715537 0.293590 0.709944 0.613545
C122  C     C_R   0.284164 0.710205 0.293519 0.619384
C123  C     C_R   0.749835 0.742421 0.326197 0.614344
C124  C     C_R   0.284075 0.289962 0.706586 0.618293
C125  C     C_R   0.251297 0.742318 0.674033 0.615958
C126  C     C_R   0.735504 0.323771 0.260546 0.633436
C127  C     C_R   0.251237 0.257737 0.325913 0.613879
C128  C     C_R   0.715492 0.709823 0.706507 0.618848
C129  C     C_R   0.248901 0.757693 0.174059 0.615870
C130  C     C_R   0.758481 0.174800 0.758512 0.626058
C131  C     C_R   0.248983 0.242254 0.825887 0.613860
C132  C     C_R   0.784250 0.789398 0.205955 0.617737
C133  C     C_R   0.784290 0.209663 0.206959 0.616736
C134  C     C_R   0.215834 0.789551 0.793762 0.618756
C135  C     C_R   0.751301 0.757190 0.826767 0.614344
C136  C     C_R   0.215924 0.210310 0.206297 0.618452
C137  C     C_R   0.750339 0.271236 0.729001 -0.201347
C138  C     C_R   0.249265 0.729315 0.271646 -0.176805
C139  C     C_R   0.749864 0.728044 0.270607 -0.192997
C140  C     C_R   0.249158 0.270620 0.728292 -0.176056
C141  C     C_R   0.250332 0.727916 0.729597 -0.196007
C142  C     C_R   0.750155 0.271435 0.271781 -0.199511
C143  C     C_R   0.250455 0.272153 0.270347 -0.195642
C144  C     C_R   0.750280 0.728376 0.729281 -0.173544
C145  C     C_R   0.249643 0.772108 0.229623 -0.195937
C146  C     C_R   0.749642 0.229128 0.771937 -0.193986
C147  C     C_R   0.249519 0.227825 0.770322 -0.195802
C148  C     C_R   0.749429 0.770833 0.228602 -0.173789
C149  C     C_R   0.749464 0.229247 0.228821 -0.207612
C150  C     C_R   0.250715 0.770712 0.771613 -0.176330
C151  C     C_R   0.749797 0.771273 0.771148 -0.192293
C152  C     C_R   0.250823 0.229353 0.228328 -0.176234
C153  C     C_R   0.541398 0.528318 0.457663 0.629718
C154  C     C_R   0.458505 0.476574 0.455342 0.627341
C155  C     C_R   0.540907 0.472420 0.540389 0.636358
C156  C     C_R   0.458713 0.524970 0.542758 0.642383
C157  C     C_R   0.041515 0.023086 0.955042 0.627266
C158  C     C_R   0.958572 0.971356 0.957697 0.628789
C159  C     C_R   0.041281 0.975155 0.042732 0.641848
C160  C     C_R   0.959146 0.027820 0.040012 0.636201
C161  C     C_R   0.581939 0.527202 0.456597 0.242857
C162  C     C_R   0.417961 0.477003 0.454571 0.244268
C163  C     C_R   0.581396 0.472824 0.541932 0.229400
C164  C     C_R   0.418224 0.523811 0.544281 0.243858
C165  C     C_R   0.082061 0.022716 0.954348 0.243795
C166  C     C_R   0.918028 0.972491 0.956673 0.244819
C167  C     C_R   0.081768 0.976359 0.044306 0.243903
C168  C     C_R   0.918660 0.027455 0.041618 0.229766
C169  C     C_R   0.602028 0.499986 0.499500 -0.445700
C170  C     C_R   0.397822 0.500178 0.499652 -0.441220
C171  C     C_R   0.102181 0.999803 0.999590 -0.441094
C172  C     C_R   0.897978 0.000008 0.999418 -0.445981
C173  C     C_R   0.521100 0.500624 0.498991 -0.183210
C174  C     C_R   0.478668 0.500890 0.498912 -0.185259
C175  C     C_R   0.021340 0.998987 0.998724 -0.184901
C176  C     C_R   0.978909 0.999309 0.998805 -0.183207
F1    F     F_    0.101638 0.539137 0.589078 -0.543547
F2    F     F_    0.897573 0.441376 0.422505 -0.578125
F3    F     F_    0.101579 0.459997 0.411196 -0.543647
F4    F     F_    0.897939 0.557296 0.577890 -0.526262
F5    F     F_    0.602286 0.055625 0.920247 -0.574659
F6    F     F_    0.398501 0.964997 0.090899 -0.544639
F7    F     F_    0.601977 0.945434 0.079973 -0.525381
F8    F     F_    0.398527 0.035741 0.909345 -0.541291
S1    S     S_3+6 0.041794 0.388940 0.378368 0.183975
O53   O     O_2   0.062467 0.411231 0.328716 -0.126286
O54   O     O_2   0.070518 0.359816 0.414570 -0.201789
O55   O     O_3   0.008379 0.342990 0.357997 -0.460320
H1    H     H_    0.022870 0.316007 0.335564 0.413809
S2    S     S_3+6 0.957561 0.550785 0.656642 0.182965
O56   O     O_2   0.937086 0.604975 0.661227 -0.121822
O57   O     O_2   0.928637 0.505247 0.664469 -0.191539
O58   O     O_3   0.990890 0.546003 0.706866 -0.463041
H2    H     H_    0.976553 0.553776 0.741287 0.409075
S3    S     S_3+6 0.041657 0.608955 0.622971 0.184529
O59   O     O_2   0.062402 0.586321 0.672381 -0.127126
O60   O     O_2   0.070289 0.638681 0.587047 -0.201713
O61   O     O_3   0.008171 0.654459 0.643837 -0.456375
H3    H     H_    0.022618 0.681294 0.666564 0.414877
S4    S     S_3+6 0.957566 0.446155 0.344187 0.176842
O62   O     O_2   0.936768 0.392066 0.340427 -0.148077
O63   O     O_2   0.928918 0.491820 0.335660 -0.201021
O64   O     O_3   0.990889 0.449924 0.293868 -0.458759
H4    H     H_    0.976481 0.441823 0.259568 0.411078
S5    S     S_3+6 0.542561 0.956010 0.158638 0.197342
O65   O     O_2   0.562843 0.901982 0.165871 -0.071924
O66   O     O_2   0.571838 0.001408 0.164428 -0.197611
O67   O     O_3   0.509530 0.963150 0.208946 -0.428047
H5    H     H_    0.498747 0.000424 0.203734 0.373198
S6    S     S_3+6 0.458198 0.105301 0.873306 0.182844
O68   O     O_2   0.437589 0.080673 0.824722 -0.125833
O69   O     O_2   0.429418 0.136033 0.908030 -0.203757
O70   O     O_3   0.491591 0.150308 0.850853 -0.461686
H6    H     H_    0.477176 0.175829 0.826660 0.413791
S7    S     S_3+6 0.542458 0.046610 0.841954 0.178327
O71   O     O_2   0.563125 0.100547 0.835521 -0.144830
O72   O     O_2   0.571223 0.000725 0.835737 -0.200112
O73   O     O_3   0.509153 0.040215 0.791872 -0.459243
H7    H     H_    0.523628 0.046115 0.757186 0.411009
S8    S     S_3+6 0.458360 0.896488 0.127721 0.180370
O74   O     O_2   0.437697 0.921318 0.176113 -0.148567
O75   O     O_2   0.429650 0.865280 0.093215 -0.194657
O76   O     O_3   0.491819 0.851869 0.150524 -0.440057
H8    H     H_    0.477421 0.826331 0.174763 0.418464
F9    F     F_    0.819253 0.266804 0.726819 -0.529732
F10   F     F_    0.180378 0.728161 0.268309 -0.549752
F11   F     F_    0.748987 0.660325 0.200279 -0.533360
F12   F     F_    0.180264 0.271401 0.731361 -0.549991
F13   F     F_    0.249285 0.660148 0.799883 -0.531087
F14   F     F_    0.779057 0.208083 0.334105 -0.533728
F15   F     F_    0.249711 0.339949 0.200081 -0.530305
F16   F     F_    0.819122 0.726685 0.733900 -0.554241
F17   F     F_    0.250289 0.839885 0.299890 -0.530795
F18   F     F_    0.732211 0.296531 0.838311 -0.536043
F19   F     F_    0.249812 0.160017 0.700079 -0.530235
F20   F     F_    0.680603 0.772882 0.233345 -0.551364
F21   F     F_    0.680497 0.227903 0.232212 -0.527432
F22   F     F_    0.319582 0.772360 0.767767 -0.549530
F23   F     F_    0.747869 0.838595 0.700499 -0.533907
F24   F     F_    0.319695 0.228019 0.232009 -0.550566
S9    S     S_3+6 0.832202 0.347441 0.636126 0.171197
O77   O     O_2   0.845335 0.400081 0.662385 -0.211685
O78   O     O_2   0.862261 0.303968 0.646067 -0.114603
O79   O     O_3   0.827662 0.356935 0.567918 -0.515519
H9    H     H_    0.852165 0.374796 0.556389 0.383181
S10   S     S_3+6 0.167164 0.647273 0.358732 0.167937
O80   O     O_2   0.169165 0.642976 0.420337 -0.257188
O81   O     O_2   0.135432 0.686810 0.343892 -0.117215
O82   O     O_3   0.156226 0.585273 0.332730 -0.450827
H10   H     H_    0.157413 0.590076 0.292315 0.375297
S11   S     S_3+6 0.743093 0.561852 0.273250 0.196617
O83   O     O_2   0.714616 0.532727 0.309872 -0.234733
O84   O     O_2   0.729174 0.558084 0.214789 -0.093947
O85   O     O_3   0.786627 0.531238 0.278209 -0.461846
H11   H     H_    0.781453 0.491811 0.271692 0.411014
S12   S     S_3+6 0.167132 0.352370 0.641001 0.169109
O86   O     O_2   0.169222 0.356717 0.579405 -0.256111
O87   O     O_2   0.135396 0.312694 0.655715 -0.113698
O88   O     O_3   0.156131 0.414310 0.667005 -0.451243
H12   H     H_    0.157251 0.409484 0.707421 0.375076
S13   S     S_3+6 0.254703 0.561507 0.727132 0.164389
O89   O     O_2   0.283225 0.531437 0.691416 -0.289548
O90   O     O_2   0.267723 0.557436 0.785984 -0.115695
O91   O     O_3   0.210785 0.532061 0.721027 -0.452005
H13   H     H_    0.215511 0.492252 0.725535 0.385910
S14   S     S_3+6 0.787598 0.285246 0.429967 0.172978
O92   O     O_2   0.755959 0.280302 0.472164 -0.185232
O93   O     O_2   0.810416 0.232782 0.428926 -0.104024
O94   O     O_3   0.817241 0.336931 0.448228 -0.529994
H14   H     H_    0.836350 0.339709 0.417938 0.387123
S15   S     S_3+6 0.255047 0.438572 0.272929 0.165052
O95   O     O_2   0.283534 0.468613 0.308811 -0.292533
O96   O     O_2   0.268208 0.442693 0.214144 -0.109643
O97   O     O_3   0.211162 0.468004 0.278850 -0.451280
H15   H     H_    0.215962 0.507820 0.274423 0.385953
S16   S     S_3+6 0.832769 0.646812 0.642981 0.207695
O98   O     O_2   0.831197 0.642117 0.581382 -0.229016
O99   O     O_2   0.864357 0.686639 0.657941 -0.105751
O100  O     O_3   0.843508 0.585062 0.669665 -0.402311
H16   H     H_    0.845423 0.591290 0.709824 0.378934
S17   S     S_3+6 0.244905 0.938498 0.227047 0.164317
O101  O     O_2   0.216432 0.968450 0.191137 -0.289805
O102  O     O_2   0.231708 0.942540 0.285816 -0.115562
O103  O     O_3   0.288786 0.968102 0.221184 -0.452121
H17   H     H_    0.283969 0.007898 0.225595 0.385786
S18   S     S_3+6 0.725658 0.221284 0.935492 0.173873
O104  O     O_2   0.761594 0.226241 0.970088 -0.171811
O105  O     O_2   0.704359 0.275013 0.936635 -0.110805
O106  O     O_3   0.697005 0.172454 0.962650 -0.533380
H18   H     H_    0.674536 0.169986 0.937383 0.373047
S19   S     S_3+6 0.244510 0.061426 0.773021 0.164828
O107  O     O_2   0.216082 0.031512 0.809103 -0.292962
O108  O     O_2   0.231150 0.057340 0.714322 -0.109409
O109  O     O_3   0.288354 0.031821 0.778691 -0.451158
H19   H     H_    0.283461 0.992025 0.774293 0.385935
S20   S     S_3+6 0.667088 0.853706 0.143173 0.208200
O110  O     O_2   0.668449 0.858547 0.081574 -0.232420
O111  O     O_2   0.635277 0.814293 0.158287 -0.103999
O112  O     O_3   0.656877 0.915531 0.170081 -0.397763
H20   H     H_    0.655364 0.909303 0.210276 0.382679
S21   S     S_3+6 0.667114 0.147446 0.141798 0.172152
O113  O     O_2   0.656692 0.093788 0.168430 -0.203732
O114  O     O_2   0.636052 0.188779 0.154370 -0.119923
O115  O     O_3   0.669400 0.138850 0.073246 -0.524071
H21   H     H_    0.644612 0.120914 0.063148 0.376524
S22   S     S_3+6 0.332865 0.853186 0.858182 0.168965
O116  O     O_2   0.331062 0.857399 0.919804 -0.257317
O117  O     O_2   0.364653 0.813838 0.843103 -0.117147
O118  O     O_3   0.343553 0.915273 0.832163 -0.447450
H22   H     H_    0.342293 0.910492 0.791751 0.375514
S23   S     S_3+6 0.753652 0.937570 0.772532 0.201080
O119  O     O_2   0.782264 0.968054 0.807802 -0.227980
O120  O     O_2   0.766383 0.941333 0.713526 -0.099307
O121  O     O_3   0.709633 0.966490 0.778934 -0.458252
H23   H     H_    0.713007 0.004711 0.766021 0.420265
S24   S     S_3+6 0.332905 0.147107 0.141672 0.165968
O122  O     O_2   0.331038 0.142856 0.080055 -0.257023
O123  O     O_2   0.364705 0.186572 0.156673 -0.118592
O124  O     O_3   0.343623 0.085069 0.167701 -0.452986
H24   H     H_    0.342447 0.089881 0.208114 0.374192
F25   F     F_    0.681935 0.355350 0.651996 -0.534937
F26   F     F_    0.318120 0.650944 0.353687 -0.526923
F27   F     F_    0.750446 0.716507 0.420051 -0.539898
F28   F     F_    0.318074 0.349457 0.646593 -0.528955
F29   F     F_    0.251474 0.716550 0.580171 -0.535526
F30   F     F_    0.721106 0.414190 0.289841 -0.543697
F31   F     F_    0.251206 0.283477 0.419782 -0.535667
F32   F     F_    0.681771 0.651379 0.645223 -0.534783
F33   F     F_    0.248917 0.783462 0.080186 -0.536097
F34   F     F_    0.767461 0.082381 0.785500 -0.548619
F35   F     F_    0.249224 0.216512 0.919767 -0.536086
F36   F     F_    0.818091 0.848033 0.144986 -0.535010
F37   F     F_    0.818024 0.150395 0.146746 -0.530654
F38   F     F_    0.181889 0.848559 0.854159 -0.527415
F39   F     F_    0.752086 0.783491 0.920470 -0.539680
F40   F     F_    0.181938 0.151091 0.146036 -0.528605
F41   F     F_    0.681079 0.276757 0.731124 -0.534295
F42   F     F_    0.318555 0.730290 0.275163 -0.523953
F43   F     F_    0.750412 0.795956 0.341532 -0.533034
F44   F     F_    0.318456 0.270059 0.725066 -0.526211
F45   F     F_    0.251634 0.795870 0.658722 -0.530283
F46   F     F_    0.721015 0.335962 0.210070 -0.514943
F47   F     F_    0.251446 0.204181 0.341211 -0.531681
F48   F     F_    0.681048 0.730138 0.724267 -0.527684
F49   F     F_    0.248761 0.704139 0.158769 -0.530431
F50   F     F_    0.767524 0.160800 0.706003 -0.520144
F51   F     F_    0.248996 0.295812 0.841162 -0.531643
F52   F     F_    0.818655 0.768868 0.223632 -0.528302
F53   F     F_    0.818829 0.229393 0.225169 -0.530538
F54   F     F_    0.181445 0.769229 0.775659 -0.525036
F55   F     F_    0.752066 0.703732 0.842361 -0.533731
F56   F     F_    0.181546 0.230481 0.224473 -0.525857
F57   F     F_    0.521306 0.556577 0.418859 -0.525055
F58   F     F_    0.478727 0.452077 0.414188 -0.528507
F59   F     F_    0.520368 0.444074 0.578694 -0.522912
F60   F     F_    0.479093 0.549857 0.583555 -0.519662
F61   F     F_    0.021302 0.047332 0.913717 -0.528683
F62   F     F_    0.978626 0.942816 0.919078 -0.525897
F63   F     F_    0.020889 0.950481 0.083648 -0.520097
F64   F     F_    0.979728 0.056426 0.078075 -0.522902
S25   S     S_3+6 0.606948 0.558638 0.400736 0.166895
O125  O     O_2   0.639448 0.522104 0.381950 -0.285947
O126  O     O_2   0.580198 0.568915 0.353035 -0.098772
O127  O     O_3   0.625443 0.618807 0.422107 -0.464336
H25   H     H_    0.643546 0.630223 0.392600 0.391623
S26   S     S_3+6 0.392852 0.449487 0.396778 0.167155
O128  O     O_2   0.360696 0.487689 0.380252 -0.280021
O129  O     O_2   0.419585 0.441695 0.348597 -0.097944
O130  O     O_3   0.373769 0.388463 0.414354 -0.473039
H26   H     H_    0.355382 0.379419 0.384376 0.389601
S27   S     S_3+6 0.605439 0.439097 0.597141 0.186713
O131  O     O_2   0.618758 0.383851 0.577398 -0.166996
O132  O     O_2   0.640005 0.471969 0.615518 -0.283710
O133  O     O_3   0.575571 0.430528 0.651162 -0.377555
H27   H     H_    0.590845 0.409232 0.678246 0.419266
S28   S     S_3+6 0.393691 0.551387 0.602442 0.160660
O134  O     O_2   0.378166 0.607045 0.587710 -0.219506
O135  O     O_2   0.360501 0.514646 0.618388 -0.276719
O136  O     O_3   0.423757 0.557527 0.656574 -0.375673
H28   H     H_    0.407801 0.574325 0.685946 0.408649
S29   S     S_3+6 0.107205 0.049968 0.896461 0.167129
O137  O     O_2   0.139313 0.011618 0.880112 -0.279777
O138  O     O_2   0.080492 0.057655 0.848233 -0.097874
O139  O     O_3   0.126369 0.111003 0.913806 -0.473165
H29   H     H_    0.144786 0.119877 0.883815 0.389616
S30   S     S_3+6 0.892984 0.940607 0.901091 0.163664
O140  O     O_2   0.860303 0.976783 0.882204 -0.294098
O141  O     O_2   0.919671 0.930257 0.853344 -0.101524
O142  O     O_3   0.874761 0.880422 0.922895 -0.463814
H30   H     H_    0.856694 0.868652 0.893483 0.391704
S31   S     S_3+6 0.106293 0.949080 0.102628 0.160449
O143  O     O_2   0.121916 0.893415 0.088160 -0.220594
O144  O     O_2   0.139414 0.985987 0.118472 -0.276044
O145  O     O_3   0.076198 0.943058 0.156735 -0.375741
H31   H     H_    0.092161 0.926436 0.186208 0.408683
S32   S     S_3+6 0.894713 0.061658 0.096598 0.185658
O146  O     O_2   0.881624 0.116885 0.076482 -0.162107
O147  O     O_2   0.860014 0.029172 0.115164 -0.287991
O148  O     O_3   0.924601 0.070320 0.150587 -0.378175
H32   H     H_    0.909429 0.091986 0.177481 0.418116

loop_
_geom_bond_atom_site_label_1
_geom_bond_atom_site_label_2
_geom_bond_distance
_ccdc_geom_bond_type
C31   C35   1.393823 A    
S31   O143  1.502959 D    
O106  H18   0.990575 S    
Zn7   O13   1.929067 S    
C28   C34   1.393499 A    
C62   C78   1.403952 A    
C92   C108  1.406008 A    
O142  H30   0.990757 S    
C40   C52   1.418575 A    
Zn6   O16   1.928463 S    
O76   H8    0.990496 S    
Zn5   O51   1.944243 S    
C10   C100  1.466167 S    
O94   H14   0.990578 S    
C154  C174  1.398809 A    
Zn11  O39   1.945354 S    
C111  C127  1.390014 A    
O130  H26   0.990781 S    
C143  C152  1.460815 S    
C109  C125  1.390013 A    
Zn3   O12   1.928699 S    
C44   C56   1.419606 A    
O64   H4    0.990565 S    
C32   C36   1.398011 A    
S5    O67   1.680746 S    
O33   C10   1.282862 A    
C118  C134  1.390208 A    
O49   C23   1.277427 A    
C134  F54   1.358017 S    
C75   S11   1.778893 S    
O35   C12   1.278607 A    
C39   C45   1.421216 A    
C72   C152  1.399307 A    
Zn2   O48   1.944243 S    
S12   O86   1.503224 D    
S29   O138  1.503039 D    
C27   C33   1.397559 A    
C167  S31   1.780395 S    
C76   C92   1.420053 A    
C61   C77   1.403548 A    
C112  C128  1.390068 A    
S21   O115  1.681941 S    
Zn4   O2    1.942033 S    
C70   C86   1.403297 A    
Zn3   O45   1.944157 S    
C38   C50   1.417829 A    
Zn10  O25   1.926641 S    
C121  F41   1.358131 S    
C135  C151  1.396284 A    
C74   C90   1.420076 A    
O11   C7    1.278874 A    
C12   C98   1.459984 S    
C68   C84   1.403046 A    
C3    C89   1.464355 S    
S8    O76   1.680895 S    
S3    O59   1.503468 D    
C30   C44   1.405946 A    
C31   F7    1.356943 S    
C25   C33   1.397609 A    
O97   H15   0.990714 S    
C29   F5    1.357848 S    
C107  F27   1.358514 S    
S10   O80   1.503224 D    
C108  F28   1.358553 S    
C83   S19   1.780225 S    
O42   C20   1.275946 A    
Zn8   O19   1.928697 S    
Zn12  O24   1.927356 S    
C57   F9    1.358567 S    
O16   C12   1.279142 A    
C131  F51   1.358028 S    
C158  C176  1.398098 A    
C160  C176  1.397610 A    
Zn16  O4    1.944884 S    
O103  H17   0.990698 S    
C69   C85   1.404246 A    
C59   C75   1.403017 A    
C60   C76   1.403372 A    
C29   C35   1.394321 A    
C81   S17   1.780351 S    
C72   C88   1.403420 A    
C78   C94   1.412810 A    
C79   S15   1.780275 S    
C73   C89   1.418543 A    
O127  H25   0.990765 S    
C112  F32   1.358543 S    
S4    O63   1.503860 D    
C137  C146  1.464486 S    
Zn7   O3    1.942035 S    
C160  F64   1.358660 S    
C61   C141  1.399725 A    
O124  H24   0.990518 S    
C158  F62   1.358685 S    
O34   C9    1.281639 A    
C42   C48   1.420562 A    
C59   F11   1.358529 S    
C60   F12   1.358530 S    
S24   O123  1.503151 D    
O50   C24   1.275080 A    
C50   S2    1.788529 S    
Zn6   O17   1.929374 S    
Zn10  O22   1.926862 S    
C78   S14   1.776827 S    
C165  C171  1.415778 A    
Zn8   O14   1.929069 S    
C5    C95   1.464265 S    
C6    C96   1.465691 S    
S14   O94   1.681651 S    
C41   C53   1.417346 A    
C77   C93   1.419481 A    
C155  C173  1.397731 A    
S12   O88   1.681454 S    
C29   C43   1.405832 A    
C15   C101  1.466524 S    
C57   C137  1.401107 A    
C139  C148  1.460163 S    
O52   C24   1.275463 A    
C88   C104  1.420226 A    
Zn3   O1    1.942035 S    
C13   C103  1.465182 S    
O43   C19   1.274888 A    
C128  C144  1.396106 A    
S17   O103  1.681872 S    
C26   C34   1.393959 A    
C69   C149  1.401512 A    
S19   O107  1.503759 D    
O37   C17   1.275911 A    
C60   C140  1.399326 A    
C58   F10   1.358542 S    
C20   C172  1.457765 S    
Zn13  O29   1.926862 S    
C156  F60   1.358458 S    
Zn3   O5    1.929067 S    
S17   O101  1.503781 D    
Zn4   O46   1.944157 S    
C98   C114  1.402344 A    
Zn16  O35   1.927039 S    
C113  C129  1.389974 A    
O44   C20   1.276286 A    
C153  F57   1.358685 S    
C153  C173  1.398148 A    
S25   O125  1.503689 D    
O115  H21   0.990655 S    
S31   O144  1.503540 D    
C86   C102  1.420239 A    
C62   F14   1.358236 S    
C131  C147  1.396355 A    
C37   C45   1.420734 A    
C122  C138  1.396239 A    
C16   C102  1.465420 S    
S27   O132  1.503644 D    
O58   H2    0.990573 S    
C83   C99   1.419242 A    
Zn13  O41   1.944279 S    
O109  H19   0.990712 S    
C117  C133  1.389783 A    
C47   C48   1.406003 A    
C82   C98   1.415032 A    
O79   H9    0.990688 S    
C173  C174  1.463225 S    
Zn16  O44   1.945354 S    
C61   F13   1.358500 S    
C126  F46   1.358150 S    
S22   O116  1.503224 D    
C124  F44   1.358013 S    
C59   C139  1.399523 A    
C18   C170  1.454408 S    
C49   S1    1.788458 S    
C57   C73   1.404205 A    
C116  C132  1.390116 A    
C63   C79   1.403653 A    
S30   O140  1.503806 D    
C82   S18   1.777326 S    
C106  F26   1.358551 S    
O36   C11   1.281177 A    
C55   S7    1.788312 S    
Zn5   O18   1.929372 S    
S7    O73   1.681005 S    
S13   O90   1.503070 D    
C54   S6    1.788438 S    
C90   C106  1.406026 A    
S22   O117  1.503149 D    
S9    O78   1.503123 D    
C136  F56   1.358015 S    
C19   C171  1.454334 S    
C80   C96   1.420282 A    
C81   C97   1.419371 A    
O91   H13   0.990712 S    
O38   C18   1.275253 A    
S14   O92   1.502502 D    
S32   O146  1.502751 D    
S23   O121  1.681759 S    
C123  C139  1.396515 A    
C122  F42   1.358013 S    
C130  F50   1.358127 S    
C120  C136  1.390227 A    
O41   C19   1.275267 A    
O5    C1    1.279873 A    
S28   O134  1.502961 D    
C128  F48   1.358016 S    
S22   O118  1.681463 S    
S8    O75   1.503894 D    
C118  F38   1.358549 S    
C126  C142  1.400144 A    
Zn4   O6    1.929069 S    
C71   C87   1.402743 A    
O47   C21   1.274974 A    
S30   O142  1.681688 S    
Zn11  O28   1.927036 S    
C166  C172  1.417769 A    
C11   C97   1.463991 S    
C77   S13   1.780399 S    
C72   F24   1.358532 S    
C140  C147  1.460700 S    
C73   S9    1.779004 S    
C95   C111  1.405634 A    
Zn1   O10   1.929372 S    
C85   C101  1.419854 A    
C116  F36   1.358549 S    
C44   C48   1.420964 A    
Zn4   O11   1.928697 S    
C69   F21   1.358641 S    
O8    C4    1.278608 A    
S25   O127  1.681683 S    
Zn9   O1    1.947032 S    
C167  C171  1.415509 A    
C64   F16   1.358641 S    
C65   F17   1.358498 S    
O139  H29   0.990782 S    
S1    O55   1.681056 S    
C133  F53   1.358208 S    
Zn1   O7    1.928465 S    
C9    C99   1.464001 S    
Zn1   O1    1.941862 S    
C158  C166  1.398616 A    
S20   O112  1.681386 S    
C7    C93   1.464272 S    
C134  C150  1.396231 A    
S2    O56   1.503266 D    
C79   C95   1.419348 A    
C63   C143  1.399805 A    
C163  S27   1.779659 S    
C1    C91   1.463698 S    
S19   O109  1.681864 S    
O9    C5    1.279675 A    
C93   C109  1.405649 A    
C94   C110  1.400993 A    
C162  C170  1.415819 A    
C67   F19   1.358482 S    
Zn13  O34   1.926644 S    
C70   F22   1.358542 S    
C71   C151  1.399071 A    
S15   O97   1.681876 S    
O13   C9    1.279722 A    
S16   O98   1.503185 D    
C154  C162  1.398276 A    
S32   O147  1.503642 D    
S18   O104  1.502458 D    
S7    O71   1.503472 D    
S6    O68   1.503494 D    
O18   C14   1.279317 A    
O133  H27   0.990635 S    
O6    C2    1.279376 A    
C86   S22   1.781281 S    
S21   O114  1.503174 D    
O21   C6    1.282657 A    
C32   C42   1.406008 A    
O121  H23   0.990287 S    
C52   S4    1.788430 S    
Zn7   O20   1.928699 S    
O48   C22   1.277263 A    
C37   C49   1.419241 A    
S11   O84   1.503105 D    
S26   O128  1.503758 D    
S23   O119  1.503342 D    
Zn14  O30   1.926862 S    
Zn15  O3    1.944888 S    
C110  C126  1.389966 A    
C142  C149  1.466497 S    
C136  C152  1.396243 A    
S28   O136  1.682081 S    
C80   S16   1.780187 S    
Zn10  O2    1.947034 S    
C117  F37   1.357404 S    
C164  S28   1.780424 S    
O29   C14   1.282708 A    
C115  F35   1.358526 S    
S10   O81   1.503147 D    
C175  C176  1.463185 S    
C31   C41   1.404331 A    
C119  C135  1.390210 A    
C40   C46   1.421970 A    
C88   S24   1.781258 S    
C121  C137  1.397656 A    
S6    O70   1.681008 S    
C64   C144  1.398950 A    
C96   C112  1.406364 A    
S10   O82   1.681456 S    
O85   H11   0.990542 S    
C63   F15   1.358485 S    
C39   C51   1.419569 A    
C84   C100  1.420580 A    
C155  C163  1.396741 A    
Zn14  O42   1.944280 S    
C14   C104  1.465522 S    
Zn13  O3    1.947030 S    
C43   C55   1.418150 A    
O136  H28   0.990617 S    
Zn14  O4    1.947034 S    
C49   C52   1.407727 A    
O100  H16   0.990467 S    
C30   F6    1.357033 S    
C65   C81   1.403501 A    
O19   C15   1.279105 A    
O145  H31   0.990618 S    
C58   C74   1.403244 A    
O39   C17   1.276226 A    
S27   O131  1.502810 D    
C110  F30   1.357559 S    
C84   S20   1.780443 S    
O7    C3    1.278895 A    
Zn7   O49   1.944157 S    
C43   C47   1.421495 A    
C105  F25   1.357476 S    
S15   O95   1.503781 D    
S16   O100  1.681361 S    
S29   O139  1.681712 S    
C102  C118  1.406133 A    
O51   C23   1.277094 A    
O31   C16   1.282185 A    
C26   F2    1.357818 S    
C106  C122  1.390174 A    
C56   S8    1.788475 S    
C138  C145  1.460521 S    
C74   S10   1.781205 S    
Zn9   O37   1.944280 S    
O12   C8    1.277548 A    
C129  C145  1.396341 A    
C45   C46   1.406490 A    
C87   S23   1.778363 S    
Zn11  O1    1.944888 S    
C120  F40   1.358553 S    
Zn15  O43   1.945355 S    
C119  F39   1.358512 S    
C68   F20   1.358614 S    
C75   C91   1.418714 A    
Zn5   O3    1.941862 S    
C144  C151  1.459973 S    
C85   S21   1.779999 S    
C157  C175  1.398796 A    
Zn6   O4    1.941864 S    
C161  S25   1.781799 S    
C66   C146  1.401974 A    
O24   C7    1.281272 A    
C168  S32   1.779635 S    
C157  C165  1.398319 A    
C65   C145  1.399730 A    
O88   H12   0.990517 S    
C42   C54   1.419285 A    
C107  C123  1.390127 A    
C156  C174  1.398675 A    
S1    O53   1.503473 D    
C58   C138  1.399268 A    
C67   C83   1.403613 A    
S20   O111  1.503258 D    
Zn2   O9    1.929374 S    
C17   C169  1.457646 S    
C53   S5    1.789044 S    
S23   O120  1.503258 D    
C101  C117  1.405312 A    
S11   O83   1.503370 D    
S4    O62   1.503522 D    
C135  F55   1.357992 S    
C153  C161  1.398516 A    
S30   O141  1.503096 D    
C28   F4    1.356849 S    
C89   C105  1.404638 A    
O25   C2    1.282673 A    
S3    O61   1.680963 S    
C129  F49   1.358029 S    
Zn8   O50   1.944157 S    
O27   C4    1.282046 A    
C21   C34   1.461276 S    
Zn2   O2    1.941864 S    
S13   O89   1.503795 D    
C8    C94   1.456745 S    
O112  H20   0.990462 S    
C114  C130  1.389938 A    
Zn15  O31   1.927358 S    
C23   C36   1.468450 S    
C166  S30   1.782024 S    
S24   O122  1.503221 D    
Zn16  O32   1.927358 S    
S9    O77   1.503227 D    
S20   O110  1.503190 D    
C26   C40   1.406521 A    
Zn9   O26   1.926643 S    
Zn8   O4    1.942033 S    
C38   C46   1.421235 A    
C141  C150  1.460667 S    
C104  C120  1.406130 A    
Zn12  O27   1.927038 S    
C156  C164  1.396930 A    
C159  C175  1.398701 A    
O73   H7    0.990493 S    
S14   O93   1.503061 D    
C108  C124  1.390209 A    
Zn14  O33   1.926641 S    
C71   F23   1.358595 S    
C66   C82   1.404105 A    
C4    C90   1.465081 S    
O28   C3    1.281384 A    
S28   O135  1.503549 D    
C50   C51   1.407190 A    
C53   C56   1.407005 A    
C27   C37   1.406556 A    
C24   C35   1.461349 S    
C132  C148  1.396019 A    
O40   C18   1.274958 A    
C51   S3    1.788622 S    
C100  C116  1.406456 A    
C132  F52   1.358015 S    
S5    O66   1.504090 D    
C2    C92   1.465182 S    
C27   F3    1.357137 S    
Zn6   O52   1.944243 S    
S11   O85   1.681684 S    
S17   O102  1.503066 D    
C91   C107  1.405348 A    
C164  C170  1.415600 A    
C124  C140  1.396269 A    
C123  F43   1.357994 S    
O32   C15   1.282371 A    
Zn1   O47   1.944243 S    
C114  F34   1.356857 S    
O45   C21   1.275459 A    
S25   O126  1.503092 D    
C162  S26   1.781452 S    
S31   O145  1.682084 S    
C67   C147  1.399808 A    
C64   C80   1.402801 A    
C159  F63   1.358454 S    
S27   O133  1.682126 S    
S1    O54   1.503902 D    
S32   O148  1.682134 S    
O70   H6    0.990496 S    
Zn15  O36   1.927036 S    
O26   C1    1.281297 A    
C115  C131  1.389994 A    
C168  C172  1.417270 A    
C155  F59   1.358634 S    
S2    O57   1.503931 D    
C22   C33   1.467911 S    
C127  C143  1.396350 A    
C76   S12   1.781174 S    
O30   C13   1.281609 A    
C125  C141  1.396349 A    
O148  H32   0.990634 S    
S4    O64   1.681041 S    
O55   H1    0.990553 S    
Zn9   O21   1.926860 S    
S5    O65   1.502774 D    
S19   O108  1.503064 D    
O23   C8    1.278286 A    
O67   H5    0.990674 S    
Zn11  O23   1.927358 S    
O118  H22   0.990519 S    
Zn12  O40   1.945355 S    
C25   F1    1.357100 S    
S12   O87   1.503147 D    
S15   O96   1.503066 D    
S16   O99   1.503257 D    
S29   O137  1.503741 D    
S18   O105  1.503155 D    
Zn2   O8    1.928463 S    
S13   O91   1.681881 S    
S6    O69   1.503887 D    
C62   C142  1.403390 A    
S2    O58   1.681029 S    
S24   O124  1.681461 S    
S21   O113  1.503223 D    
S9    O79   1.681898 S    
C28   C38   1.404884 A    
C99   C115  1.405545 A    
C32   F8    1.357060 S    
C111  F31   1.358526 S    
S26   O129  1.503042 D    
O15   C11   1.278833 A    
C109  F29   1.358528 S    
S18   O106  1.681558 S    
C159  C167  1.396910 A    
C113  F33   1.358529 S    
C103  C119  1.406040 A    
C163  C169  1.417142 A    
C97   C113  1.405566 A    
S8    O74   1.503451 D    
C154  F58   1.358617 S    
C133  C149  1.398027 A    
S3    O60   1.503910 D    
C25   C39   1.406363 A    
C165  S29   1.781400 S    
O17   C13   1.280194 A    
O20   C16   1.278639 A    
C30   C36   1.398147 A    
O46   C22   1.276919 A    
C105  C121  1.390042 A    
O10   C6    1.279516 A    
O82   H10   0.990518 S    
Zn10  O38   1.944279 S    
C160  C168  1.396655 A    
S26   O130  1.681711 S    
O61   H3    0.990555 S    
C41   C47   1.420854 A    
O14   C10   1.279761 A    
C87   C103  1.419263 A    
C157  F61   1.358605 S    
C70   C150  1.399257 A    
C127  F47   1.358030 S    
Zn12  O2    1.944886 S    
C125  F45   1.358031 S    
C66   F18   1.358384 S    
C68   C148  1.398968 A    
C54   C55   1.407381 A    
C161  C169  1.417576 A    
S7    O72   1.503875 D    
Zn5   O15   1.928465 S    
O22   C5    1.281615 A    
C130  C146  1.398586 A    
