data_mof_unit_41187.cif
_audit_creation_date              2012-12-10T17:43:57-0500
_audit_creation_method            fapswitch 2.2
_symmetry_space_group_name_H-M    P1
_symmetry_Int_Tables_number       1
_space_group_crystal_system       triclinic
_cell_length_a                    15.883385
_cell_length_b                    15.087738
_cell_length_c                    13.811318
_cell_angle_alpha                 89.64941
_cell_angle_beta                  90.141833
_cell_angle_gamma                 86.104085
_cell_volume                      3302.08011792

loop_
_atom_site_label
_atom_site_type_symbol
_atom_type_description
_atom_site_fract_x
_atom_site_fract_y
_atom_site_fract_z
_atom_type_partial_charge
C1    C     C_R   0.504067 0.328852 0.500792 0.863554
C2    C     C_R   0.496833 0.671076 0.499422 0.875333
C3    C     C_R   0.496327 0.767641 0.496645 -0.203915
C4    C     C_R   0.505329 0.232022 0.503321 -0.233667
C5    C     C_R   0.573770 0.805898 0.486962 0.370857
C6    C     C_R   0.428811 0.193070 0.490750 0.356539
C7    C     C_R   0.575746 0.898428 0.496575 -0.002323
C8    C     C_R   0.427812 0.100640 0.485107 0.016021
C9    C     C_R   0.500178 0.953021 0.491390 -0.004925
C10   C     C_R   0.503383 0.046418 0.494473 -0.003630
C11   C     C_R   0.421426 0.914258 0.484346 0.023792
C12   C     C_R   0.581734 0.085259 0.507337 0.032955
C13   C     C_R   0.652341 0.936765 0.508871 -0.256020
C14   C     C_R   0.351889 0.062270 0.467061 -0.234375
C15   C     C_R   0.657308 0.028308 0.508644 -0.009328
C16   C     C_R   0.347528 0.970605 0.464970 -0.021491
C17   C     C_R   0.549546 0.438066 0.796293 0.504283
C18   C     C_R   0.447223 0.560590 0.205894 0.528109
C19   C     C_R   0.450073 0.562799 0.794438 0.497566
C20   C     C_R   0.552106 0.439518 0.205657 0.510852
C21   C     C_R   0.441146 0.555395 0.896589 -0.087907
C22   C     C_R   0.562542 0.450361 0.103339 -0.115733
C23   C     C_R   0.340075 0.498885 0.500012 0.840847
C24   C     C_R   0.659933 0.501770 0.500170 0.848779
C25   C     C_R   0.501615 0.502977 0.948689 0.013514
C26   C     C_R   0.501720 0.503289 0.051756 0.020821
C27   C     C_R   0.560656 0.448429 0.897602 -0.085156
C28   C     C_R   0.439727 0.554554 0.102859 -0.103444
C29   C     C_R   0.374600 0.599788 0.947781 -0.186436
C30   C     C_R   0.628571 0.405601 0.050784 -0.203449
C31   C     C_R   0.373198 0.598208 0.049440 -0.190212
C32   C     C_R   0.626276 0.402415 0.949370 -0.179763
C33   C     C_3   0.974715 0.423183 0.527596 -0.370275
C34   C     C_3   0.025210 0.583692 0.470647 -0.363578
C35   C     C_3   0.028809 0.440144 0.437025 -0.077334
C36   C     C_3   0.971087 0.566861 0.561186 -0.072478
C37   C     C_1   0.250689 0.497709 0.500317 -0.163020
C38   C     C_1   0.749236 0.505574 0.500679 -0.161575
C39   C     C_3   0.029617 0.484295 0.586951 0.505148
C40   C     C_3   0.970232 0.522626 0.411682 0.498675
C41   C     C_3   0.083640 0.500274 0.497344 0.031300
C42   C     C_3   0.916293 0.506554 0.501025 0.022669
C43   C     C_1   0.175209 0.498289 0.499837 -0.036903
C44   C     C_1   0.824616 0.507311 0.500972 -0.041947
C45   C     C_R   0.419794 0.821273 0.499763 -0.165420
C46   C     C_R   0.580950 0.178869 0.519514 -0.172294
Cu1   Cu    Cu3+1 0.500010 0.499990 0.597420 1.008411
Cu2   Cu    Cu3+1 0.499990 0.500010 0.402580 1.012603
H1    H     H_    0.323524 0.635899 0.909233 0.166020
H2    H     H_    0.681399 0.371384 0.087808 0.151538
H3    H     H_    0.319122 0.630163 0.085573 0.150714
H4    H     H_    0.675426 0.363344 0.911520 0.162872
H5    H     H_    0.957094 0.356629 0.550684 0.140723
H6    H     H_    0.042979 0.649843 0.446103 0.146809
H7    H     H_    0.710188 0.895346 0.516279 0.160122
H8    H     H_    0.295266 0.103931 0.451036 0.184498
N1    N     N_R   0.499960 0.499930 0.743810 -0.272934
N2    N     N_R   0.500040 0.500070 0.256190 -0.253671
O1    O     O_R   0.500020 0.370250 0.582280 -0.583968
O2    O     O_R   0.499980 0.629750 0.417720 -0.565213
O3    O     O_R   0.500010 0.370270 0.417740 -0.539834
O4    O     O_R   0.499990 0.629730 0.582260 -0.571049
O5    O     O_R   0.379080 0.499980 0.582260 -0.562967
O6    O     O_R   0.620920 0.500020 0.417740 -0.578282
O7    O     O_R   0.379070 0.500000 0.417710 -0.554250
O8    O     O_R   0.620930 0.500000 0.582290 -0.553454
C47   C     C_R   0.051890 0.368451 0.364044 0.111260
C48   C     C_R   0.987199 0.323011 0.321101 -0.119768
C49   C     C_R   0.006173 0.257696 0.251641 -0.163868
C50   C     C_R   0.089857 0.236310 0.225290 -0.116701
C51   C     C_R   0.154620 0.281044 0.267432 -0.120814
C52   C     C_R   0.135841 0.347294 0.335872 -0.175417
H9    H     H_    0.921951 0.338775 0.340777 0.138357
H10   H     H_    0.956020 0.223910 0.217781 0.119700
H11   H     H_    0.104464 0.185503 0.171772 0.124289
H12   H     H_    0.219463 0.264874 0.246513 0.141495
H13   H     H_    0.187234 0.381602 0.365316 0.146833
C53   C     C_R   0.939527 0.641913 0.626263 0.108105
C54   C     C_R   0.982464 0.660259 0.712211 -0.173663
C55   C     C_R   0.953681 0.731128 0.770841 -0.153260
C56   C     C_R   0.882362 0.784895 0.743813 -0.118692
C57   C     C_R   0.840298 0.768409 0.657576 -0.129788
C58   C     C_R   0.869193 0.697909 0.598475 -0.119692
H14   H     H_    0.039162 0.621340 0.733360 0.169126
H15   H     H_    0.987051 0.744694 0.836970 0.126764
H16   H     H_    0.860117 0.839761 0.789242 0.117497
H17   H     H_    0.785439 0.810456 0.636484 0.135425
H18   H     H_    0.836767 0.687415 0.531068 0.143852
O9    O     O_3   0.935485 0.542875 0.319248 -0.617756
C59   C     C_3   0.000016 0.560598 0.252550 0.074578
H19   H     H_    0.990897 0.520450 0.186643 0.161529
H20   H     H_    0.065315 0.541624 0.278952 0.137696
C60   C     C_3   0.993043 0.659010 0.224148 -0.346645
H21   H     H_    0.934357 0.673657 0.181540 0.222109
H22   H     H_    0.989725 0.700733 0.290180 0.214527
C61   C     C_3   0.068348 0.683391 0.163459 -0.957488
H23   H     H_    0.127723 0.672452 0.205888 0.258509
H24   H     H_    0.060366 0.754604 0.142358 0.250105
H25   H     H_    0.072950 0.642625 0.096727 0.259280
O10   O     O_3   0.066098 0.464462 0.678525 -0.621239
C62   C     C_3   0.004646 0.433465 0.741695 0.029378
H26   H     H_    0.991147 0.364531 0.722080 0.136590
H27   H     H_    0.944783 0.476521 0.739002 0.154512
C63   C     C_3   0.038785 0.432871 0.845247 -0.317970
H28   H     H_    0.097746 0.388909 0.849622 0.224230
H29   H     H_    0.053884 0.501200 0.865510 0.214884
C64   C     C_3   0.974769 0.399929 0.916971 -0.934993
H30   H     H_    0.915879 0.444084 0.915310 0.260409
H31   H     H_    0.001536 0.400081 0.991334 0.257369
H32   H     H_    0.959629 0.331112 0.899006 0.250460
C65   C     C_R   0.340760 0.783044 0.532103 0.131911
C66   C     C_R   0.298056 0.726954 0.471659 -0.144794
C67   C     C_R   0.216523 0.705561 0.494176 -0.115747
C68   C     C_R   0.179405 0.733088 0.581411 -0.084660
C69   C     C_R   0.223186 0.785067 0.644951 -0.125545
C70   C     C_R   0.302841 0.811608 0.619495 -0.108708
H33   H     H_    0.325243 0.703593 0.404663 0.158178
H34   H     H_    0.182396 0.668331 0.442620 0.132040
H35   H     H_    0.116410 0.715485 0.598853 0.135865
H36   H     H_    0.194185 0.807528 0.712072 0.114710
H37   H     H_    0.333794 0.856648 0.666244 0.118904
C71   C     C_R   0.655230 0.219720 0.560461 0.146644
C72   C     C_R   0.704825 0.272079 0.502698 -0.146280
C73   C     C_R   0.781617 0.298095 0.538109 -0.118747
C74   C     C_R   0.805949 0.278871 0.633713 -0.088199
C75   C     C_R   0.755429 0.229327 0.692688 -0.105542
C76   C     C_R   0.681485 0.197809 0.655407 -0.084490
H38   H     H_    0.687030 0.287790 0.428583 0.142103
H39   H     H_    0.822685 0.331624 0.490275 0.132347
H40   H     H_    0.864613 0.300454 0.661760 0.096447
H41   H     H_    0.775015 0.212687 0.766052 0.104568
H42   H     H_    0.645784 0.154294 0.699474 0.112815
O11   O     O_3   0.647077 0.751149 0.473530 -0.629811
C77   C     C_3   0.683906 0.768854 0.382179 0.004321
H43   H     H_    0.738470 0.810019 0.392401 0.150471
H44   H     H_    0.639454 0.804903 0.330673 0.158549
C78   C     C_3   0.717815 0.682106 0.335644 -0.310646
H45   H     H_    0.769831 0.651398 0.380743 0.235757
H46   H     H_    0.667043 0.635537 0.331009 0.241360
C79   C     C_3   0.751584 0.697780 0.234126 -0.922538
H47   H     H_    0.699890 0.723678 0.185316 0.252122
H48   H     H_    0.779199 0.634071 0.204420 0.277759
H49   H     H_    0.801167 0.746190 0.236439 0.248045
O12   O     O_3   0.353854 0.245796 0.486779 -0.626810
C80   C     C_3   0.321078 0.256222 0.581786 0.019477
H50   H     H_    0.340915 0.319669 0.611915 0.167689
H51   H     H_    0.342925 0.201423 0.632757 0.128959
C81   C     C_3   0.224754 0.259449 0.577794 -0.320981
H52   H     H_    0.200736 0.313967 0.528955 0.237291
H53   H     H_    0.204145 0.195982 0.548616 0.206101
C82   C     C_3   0.186407 0.274257 0.677931 -0.893209
H54   H     H_    0.209342 0.220193 0.728319 0.236733
H55   H     H_    0.116716 0.274240 0.672558 0.259530
H56   H     H_    0.203364 0.339122 0.707193 0.282094
C83   C     C_R   0.743212 0.058403 0.493663 0.136229
C84   C     C_R   0.806122 0.042370 0.564615 -0.146122
C85   C     C_R   0.888419 0.066050 0.547395 -0.138534
C86   C     C_R   0.908843 0.104055 0.458680 -0.113393
C87   C     C_R   0.847179 0.117511 0.386741 -0.140315
C88   C     C_R   0.764869 0.094046 0.403689 -0.153722
H57   H     H_    0.791149 0.012202 0.633264 0.112720
H58   H     H_    0.936408 0.054661 0.602681 0.117950
H59   H     H_    0.972545 0.122356 0.445375 0.133615
H60   H     H_    0.863059 0.145657 0.317588 0.118995
H61   H     H_    0.718161 0.103285 0.346717 0.125869
C89   C     C_R   0.267057 0.938591 0.429173 0.146230
C90   C     C_R   0.192303 0.954062 0.482511 -0.146532
C91   C     C_R   0.116064 0.926084 0.446804 -0.128424
C92   C     C_R   0.113704 0.884029 0.357013 -0.106350
C93   C     C_R   0.187320 0.871173 0.302141 -0.148625
C94   C     C_R   0.263570 0.899306 0.337539 -0.152735
H62   H     H_    0.193428 0.986705 0.552088 0.115479
H63   H     H_    0.058875 0.936879 0.488792 0.127068
H64   H     H_    0.054742 0.862133 0.329587 0.122271
H65   H     H_    0.185252 0.839952 0.231926 0.125341
H66   H     H_    0.319640 0.891589 0.293323 0.113159
O13   O     O_3   0.578921 0.359271 0.753988 -0.584003
C95   C     C_3   0.518254 0.294994 0.769445 0.102119
H67   H     H_    0.518816 0.251371 0.705375 0.176690
H68   H     H_    0.451844 0.324312 0.774496 0.104938
C96   C     C_3   0.539491 0.236038 0.858388 -0.413077
H69   H     H_    0.608391 0.217703 0.861110 0.224733
H70   H     H_    0.520973 0.272595 0.925330 0.223271
C97   C     C_3   0.492074 0.151312 0.856100 -0.938941
H71   H     H_    0.422908 0.168076 0.853272 0.254647
H72   H     H_    0.507018 0.111323 0.922468 0.261358
H73   H     H_    0.511144 0.110668 0.791984 0.255622
O14   O     O_3   0.401350 0.625669 0.257924 -0.599074
C98   C     C_3   0.414757 0.714061 0.226360 0.035994
H74   H     H_    0.397544 0.758377 0.287520 0.166189
H75   H     H_    0.370750 0.736103 0.167425 0.128670
C99   C     C_3   0.505990 0.732597 0.199178 -0.389884
H76   H     H_    0.549021 0.706990 0.257344 0.240137
H77   H     H_    0.524884 0.699082 0.130527 0.211033
C100  C     C_3   0.514674 0.832159 0.185572 -0.934587
H78   H     H_    0.471008 0.859008 0.127922 0.261440
H79   H     H_    0.580223 0.843991 0.163847 0.253480
H80   H     H_    0.500188 0.868082 0.254204 0.254920
O15   O     O_3   0.412388 0.636668 0.747598 -0.582603
C101  C     C_3   0.463513 0.710094 0.760491 0.116249
H81   H     H_    0.460453 0.749427 0.692700 0.183629
H82   H     H_    0.531905 0.690221 0.772112 0.118706
C102  C     C_3   0.431225 0.772848 0.841361 -0.427391
H83   H     H_    0.361450 0.783914 0.836630 0.226745
H84   H     H_    0.448756 0.743537 0.912975 0.230341
C103  C     C_3   0.470568 0.862364 0.834627 -0.922625
H85   H     H_    0.540368 0.852810 0.840499 0.260183
H86   H     H_    0.446865 0.905695 0.894743 0.258776
H87   H     H_    0.453738 0.896194 0.764903 0.253248
O16   O     O_3   0.589756 0.366007 0.254753 -0.582321
C104  C     C_3   0.576413 0.285102 0.205139 0.017840
H88   H     H_    0.637061 0.259098 0.172945 0.146708
H89   H     H_    0.527490 0.292020 0.146843 0.137261
C105  C     C_3   0.548357 0.214497 0.274665 -0.318268
H90   H     H_    0.595334 0.205919 0.333517 0.222104
H91   H     H_    0.485486 0.236259 0.304103 0.244418
C106  C     C_3   0.541890 0.125142 0.224772 -0.946792
H92   H     H_    0.495096 0.131441 0.164796 0.259371
H93   H     H_    0.521161 0.075625 0.277922 0.267314
H94   H     H_    0.604236 0.100723 0.195514 0.250357

loop_
_geom_bond_atom_site_label_1
_geom_bond_atom_site_label_2
_ccdc_geom_bond_type
C7    C13   A    
C14   H8    S    
C102  H83   S    
C62   H26   S    
C64   H31   S    
C92   C93   A    
C36   C42   S    
C65   C66   A    
C79   H49   S    
C77   C78   S    
C63   H29   S    
C56   C57   A    
Cu2   O3    S    
C72   C73   A    
C39   C41   S    
C29   H1    S    
C96   H69   S    
C19   N1    A    
C106  H94   S    
C5    O11   S    
C78   H46   S    
C33   C39   S    
C34   C40   S    
C33   C42   S    
C84   C85   A    
C19   C21   A    
C81   H53   S    
C1    O1    A    
O16   C104  S    
Cu1   O5    S    
C54   H14   S    
C8    C10   A    
C105  H91   S    
C23   O5    A    
Cu2   O6    S    
C93   C94   A    
C57   H17   S    
C61   H25   S    
C97   H71   S    
C47   C52   A    
C82   H56   S    
C39   O10   S    
C71   C76   A    
C98   H75   S    
C76   H42   S    
C32   H4    S    
C52   H13   S    
C53   C58   A    
C18   N2    A    
C85   C86   A    
C87   C88   A    
C16   C89   S    
C101  H81   S    
C61   H24   S    
C24   C38   S    
C64   H30   S    
C81   C82   S    
Cu2   O2    S    
C50   C51   A    
C20   O16   S    
C40   O9    S    
C9    C10   A    
Cu1   O8    S    
C15   C83   S    
C56   H16   S    
C24   O8    A    
C100  H80   S    
C40   C42   S    
C58   H18   S    
C27   C32   A    
C82   H54   S    
O15   C101  S    
C62   H27   S    
C41   C43   S    
C89   C90   A    
C49   C50   A    
C34   C41   S    
C42   C44   S    
Cu1   O4    S    
C74   H40   S    
C66   C67   A    
C80   H51   S    
C80   H50   S    
C93   H65   S    
C96   H70   S    
C33   H5    S    
C91   H63   S    
C78   C79   S    
C70   H37   S    
C35   C40   S    
C47   C48   A    
C17   C27   A    
C99   C100  S    
C95   H67   S    
C102  C103  S    
C2    O2    A    
C18   C28   A    
C79   H47   S    
C4    C6    A    
C68   C69   A    
C90   C91   A    
C5    C7    A    
C53   C54   A    
C48   C49   A    
C4    C46   A    
C100  H78   S    
C25   C26   A    
C23   C37   S    
C21   C29   A    
C3    C45   A    
C54   C55   A    
O14   C98   S    
C99   H77   S    
C86   C87   A    
C37   C43   T    
C98   C99   S    
C100  H79   S    
C28   C31   A    
C104  H88   S    
C38   C44   T    
C55   H15   S    
Cu1   N1    S    
O11   C77   S    
C102  H84   S    
C11   C16   A    
C59   H20   S    
Cu1   Cu2   S    
C12   C15   A    
C35   C47   S    
C92   H64   S    
C61   H23   S    
C60   C61   S    
C49   H10   S    
C60   H21   S    
C88   H61   S    
C81   H52   S    
C9    C11   A    
C63   C64   S    
C90   H62   S    
C10   C12   A    
C86   H59   S    
O13   C95   S    
C6    C8    A    
C12   C46   A    
C91   C92   A    
C104  H89   S    
C20   C22   A    
C84   H57   S    
C34   H6    S    
C62   C63   S    
C13   C15   A    
C74   C75   A    
Cu2   O7    S    
C64   H32   S    
C14   C16   A    
C11   C45   A    
C106  H93   S    
C20   N2    A    
O9    C59   S    
C51   H12   S    
C50   H11   S    
C80   C81   S    
C59   C60   S    
C69   C70   A    
C67   C68   A    
C78   H45   S    
C96   C97   S    
C17   O13   S    
C7    C9    A    
C21   C25   A    
C8    C14   A    
C22   C30   A    
C83   C88   A    
C103  H85   S    
C26   C28   A    
C36   C39   S    
C68   H35   S    
C31   H3    S    
C55   C56   A    
C3    C5    A    
C105  C106  S    
C1    O3    A    
C63   H28   S    
C95   H68   S    
C45   C65   S    
Cu2   N2    S    
C77   H43   S    
C79   H48   S    
C25   C27   A    
C94   H66   S    
C19   O15   S    
C97   H72   S    
C97   H73   S    
C101  C102  S    
C66   H33   S    
O12   C80   S    
C1    C4    S    
C99   H76   S    
C23   O7    A    
C65   C70   A    
C48   H9    S    
C51   C52   A    
C29   C31   A    
C36   C53   S    
C30   C32   A    
C103  H87   S    
C59   H19   S    
C60   H22   S    
C75   H41   S    
C75   C76   A    
C105  H90   S    
C106  H92   S    
C18   O14   S    
O10   C62   S    
C33   C35   S    
C77   H44   S    
C73   H39   S    
C2    C3    S    
C34   C36   S    
C82   H55   S    
C30   H2    S    
C98   H74   S    
C35   C41   S    
C95   C96   S    
Cu1   O1    S    
C67   H34   S    
C89   C94   A    
C104  C105  S    
C24   O6    A    
C69   H36   S    
C22   C26   A    
C72   H38   S    
C83   C84   A    
C87   H60   S    
C46   C71   S    
C57   C58   A    
C71   C72   A    
C103  H86   S    
C6    O12   S    
C85   H58   S    
C101  H82   S    
C2    O4    A    
C17   N1    A    
C73   C74   A    
C13   H7    S    
