data_mof_unit_19990.cif
_audit_creation_date              2012-12-10T18:19:53-0500
_audit_creation_method            fapswitch 2.2
_symmetry_space_group_name_H-M    P1
_symmetry_Int_Tables_number       1
_space_group_crystal_system       triclinic
_cell_length_a                    14.827967
_cell_length_b                    14.372192
_cell_length_c                    14.080321
_cell_angle_alpha                 89.96755
_cell_angle_beta                  87.378607
_cell_angle_gamma                 90.308077
_cell_volume                      2997.47835303

loop_
_atom_site_label
_atom_site_type_symbol
_atom_type_description
_atom_site_fract_x
_atom_site_fract_y
_atom_site_fract_z
_atom_type_partial_charge
C1    C     C_R   0.327567 0.499848 0.500420 0.849597
C2    C     C_R   0.672538 0.500307 0.499530 0.847859
C3    C     C_R   0.953286 0.525711 0.502592 -0.060798
C4    C     C_R   0.047329 0.525295 0.501791 -0.062932
C5    C     C_R   0.909719 0.528987 0.414833 0.086164
C6    C     C_R   0.090848 0.513906 0.588900 0.089044
C7    C     C_R   0.946642 0.529341 0.677887 0.122383
C8    C     C_R   0.054255 0.556653 0.329331 0.125800
C9    C     C_R   0.040989 0.515771 0.677476 0.111783
C10   C     C_R   0.959798 0.544067 0.327634 0.110130
C11   C     C_R   0.541654 0.800983 0.425633 0.195687
C12   C     C_R   0.434762 0.199094 0.552636 0.193756
C13   C     C_R   0.457562 0.800395 0.573964 0.192686
C14   C     C_R   0.565048 0.199756 0.447217 0.194308
C15   C     C_R   0.445927 0.899713 0.566947 -0.031266
C16   C     C_R   0.556132 0.100696 0.435351 -0.031997
C17   C     C_R   0.553404 0.900414 0.432561 -0.032081
C18   C     C_R   0.443327 0.100017 0.564375 -0.031421
C19   C     C_R   0.499833 0.950100 0.499916 -0.040083
C20   C     C_R   0.499813 0.050207 0.499933 -0.040627
C21   C     C_R   0.386118 0.950871 0.628917 0.060544
C22   C     C_R   0.606441 0.050170 0.364731 0.060292
C23   C     C_R   0.612345 0.952372 0.369666 0.060731
C24   C     C_R   0.392213 0.048704 0.634319 0.060114
C25   C     C_R   0.499979 0.500001 0.329726 0.854479
C26   C     C_R   0.499973 0.499959 0.670276 0.854445
C27   C     C_1   0.500018 0.500089 0.228166 -0.231211
C28   C     C_1   0.499874 0.499959 0.771840 -0.232388
C29   C     C_1   0.500018 0.500211 0.142734 -0.016621
C30   C     C_1   0.499839 0.500088 0.857273 -0.015581
C31   C     C_1   0.499954 0.500274 0.042727 -0.004711
C32   C     C_1   0.499884 0.500230 0.957280 -0.004128
C33   C     C_R   0.816180 0.519618 0.416980 -0.288101
C34   C     C_R   0.184175 0.503721 0.585149 -0.286111
C35   C     C_R   0.768328 0.502566 0.501539 -0.095798
C36   C     C_R   0.231929 0.501091 0.498924 -0.096926
C37   C     C_R   0.809612 0.498920 0.588328 0.045183
C38   C     C_R   0.190838 0.511894 0.412748 0.048009
C39   C     C_R   0.902567 0.518314 0.590813 0.087790
C40   C     C_R   0.098064 0.531728 0.413474 0.086015
H1    H     H_    0.778156 0.525078 0.353591 0.144886
H2    H     H_    0.222229 0.498228 0.648461 0.141506
N1    N     N_R   0.500000 0.750030 0.500000 -0.124238
N2    N     N_R   0.500000 0.249970 0.500000 -0.125253
O1    O     O_R   0.367850 0.580280 0.500020 -0.598990
O2    O     O_R   0.632150 0.419720 0.499980 -0.623593
O3    O     O_R   0.632150 0.580280 0.499980 -0.596082
O4    O     O_R   0.367850 0.419720 0.500020 -0.622845
O5    O     O_R   0.500000 0.580290 0.373720 -0.604525
O6    O     O_R   0.500000 0.419710 0.626280 -0.583489
O7    O     O_R   0.500000 0.580290 0.626280 -0.602600
O8    O     O_R   0.500000 0.419710 0.373720 -0.583098
Zn1   Zn    Zn3+2 0.500000 0.607200 0.500000 0.926114
Zn2   Zn    Zn3+2 0.500000 0.392800 0.500000 0.922857
N3    N     N_3   0.758116 0.469315 0.671913 -0.476407
H3    H     H_    0.704273 0.514992 0.684591 0.183279
H4    H     H_    0.731937 0.402887 0.659833 0.190181
N4    N     N_3   0.242275 0.495503 0.325476 -0.477936
H5    H     H_    0.296099 0.542775 0.319985 0.187503
H6    H     H_    0.268580 0.428183 0.327073 0.185173
C41   C     C_3   0.896187 0.566335 0.767652 -0.377437
C42   C     C_3   0.851277 0.660013 0.749762 -0.858333
H7    H     H_    0.902902 0.711710 0.724371 0.256394
H8    H     H_    0.798911 0.654400 0.696382 0.267884
H9    H     H_    0.818509 0.685928 0.817078 0.240134
H10   H     H_    0.847161 0.515050 0.798263 0.219175
H11   H     H_    0.941378 0.580118 0.826173 0.208355
C43   C     C_3   0.105250 0.606762 0.246649 -0.375319
C44   C     C_3   0.150783 0.696328 0.279338 -0.859379
H12   H     H_    0.099421 0.743802 0.312283 0.257230
H13   H     H_    0.202754 0.682367 0.331516 0.268196
H14   H     H_    0.184150 0.732030 0.217090 0.239263
H15   H     H_    0.153911 0.560620 0.208263 0.218312
H16   H     H_    0.060437 0.629522 0.190897 0.207400
C45   C     C_3   0.086677 0.496673 0.770630 -0.415309
C46   C     C_3   0.132801 0.583636 0.808734 -0.880667
H17   H     H_    0.184238 0.611091 0.756455 0.259915
H18   H     H_    0.083137 0.639541 0.824615 0.258869
H19   H     H_    0.166555 0.566038 0.875138 0.247734
H20   H     H_    0.038019 0.468600 0.825769 0.191100
H21   H     H_    0.136122 0.439295 0.761603 0.196496
C47   C     C_3   0.913910 0.540378 0.232698 -0.413220
C48   C     C_3   0.869159 0.632845 0.209595 -0.885073
H22   H     H_    0.828446 0.658856 0.271732 0.266402
H23   H     H_    0.920273 0.686798 0.189703 0.256326
H24   H     H_    0.824529 0.623205 0.149130 0.247717
H25   H     H_    0.961869 0.520513 0.173440 0.191855
H26   H     H_    0.863493 0.483020 0.232811 0.195677
C49   C     C_3   0.558882 0.757868 0.327900 -0.273679
C50   C     C_3   0.650073 0.707846 0.316069 -0.755770
H27   H     H_    0.698395 0.733270 0.368324 0.257067
H28   H     H_    0.644248 0.631738 0.323786 0.251167
H29   H     H_    0.679579 0.720993 0.243352 0.216962
H30   H     H_    0.500285 0.717532 0.305644 0.198061
H31   H     H_    0.556829 0.812234 0.272159 0.160832
C51   C     C_3   0.343638 0.241380 0.581441 -0.284381
C52   C     C_3   0.342586 0.296326 0.675065 -0.733676
H32   H     H_    0.403033 0.281140 0.716106 0.258606
H33   H     H_    0.338571 0.372048 0.662925 0.242603
H34   H     H_    0.281727 0.277132 0.719906 0.208461
H35   H     H_    0.315095 0.278235 0.521613 0.202664
H36   H     H_    0.291140 0.186301 0.588667 0.160693
C53   C     C_3   0.437452 0.756417 0.671036 -0.275581
C54   C     C_3   0.346205 0.704904 0.679509 -0.741357
H37   H     H_    0.301473 0.725526 0.621994 0.259870
H38   H     H_    0.353668 0.628565 0.678088 0.244524
H39   H     H_    0.311439 0.722054 0.748778 0.213385
H40   H     H_    0.495386 0.716855 0.695107 0.197932
H41   H     H_    0.437830 0.810286 0.727319 0.160427
C55   C     C_3   0.656316 0.242728 0.418131 -0.283709
C56   C     C_3   0.657242 0.298431 0.324871 -0.729693
H42   H     H_    0.595669 0.284633 0.284937 0.258459
H43   H     H_    0.663706 0.374019 0.337294 0.241413
H44   H     H_    0.716755 0.278425 0.278729 0.209070
H45   H     H_    0.685509 0.279158 0.478047 0.200550
H46   H     H_    0.708472 0.187951 0.410153 0.160345
N5    N     N_3   0.313049 0.904797 0.680597 -0.468193
H47   H     H_    0.317197 0.918142 0.753239 0.173049
H48   H     H_    0.252068 0.931177 0.657942 0.182748
N6    N     N_3   0.645751 0.097247 0.282758 -0.467468
H49   H     H_    0.715093 0.084319 0.277287 0.172268
H50   H     H_    0.616282 0.071201 0.222113 0.181846
N7    N     N_3   0.684098 0.907132 0.315966 -0.469215
H51   H     H_    0.678296 0.920774 0.243583 0.174534
H52   H     H_    0.745775 0.933754 0.337147 0.182354
N8    N     N_3   0.352036 0.094982 0.716012 -0.467385
H53   H     H_    0.282635 0.081480 0.720443 0.172245
H54   H     H_    0.380620 0.068745 0.776963 0.181819

loop_
_geom_bond_atom_site_label_1
_geom_bond_atom_site_label_2
_ccdc_geom_bond_type
C2    C35   S    
C38   C40   A    
N3    H3    S    
N8    H53   S    
C51   H36   S    
C27   C29   T    
C19   C20   A    
C34   H2    S    
C46   H19   S    
C6    C9    A    
C54   H38   S    
C52   H32   S    
N7    H51   S    
C2    O2    A    
C15   C19   A    
C17   C23   A    
C48   H22   S    
C18   C24   A    
C35   C37   A    
C46   H18   S    
C26   O6    A    
C47   H26   S    
N7    H52   S    
C43   H16   S    
C47   H25   S    
C14   C55   S    
C12   N2    A    
C49   H30   S    
C44   H13   S    
C41   H11   S    
C55   C56   S    
C7    C41   S    
C42   H8    S    
C33   C35   A    
C38   N4    S    
C41   H10   S    
N1    Zn1   S    
C4    C40   A    
O8    Zn2   S    
C43   C44   S    
C5    C33   A    
C16   C22   A    
C11   N1    A    
C53   H40   S    
C13   C53   S    
C45   H20   S    
C34   C36   A    
O3    Zn1   S    
O1    Zn1   S    
C51   H35   S    
C24   N8    S    
C41   C42   S    
C54   H37   S    
C52   H33   S    
N6    H50   S    
C37   C39   A    
C56   H42   S    
C46   H17   S    
C4    C6    A    
O4    Zn2   S    
N5    H48   S    
C45   H21   S    
C23   N7    S    
N4    H5    S    
C10   C47   S    
C6    C34   A    
O7    Zn1   S    
C49   H31   S    
C44   H14   S    
C22   N6    S    
C45   C46   S    
C42   H7    S    
C11   C49   S    
C50   H28   S    
C31   C32   T    
C16   C20   A    
C51   C52   S    
O2    Zn2   S    
C56   H43   S    
O6    Zn2   S    
C48   H23   S    
C8    C43   S    
N3    H4    S    
C14   C16   A    
C3    C4    A    
C55   H46   S    
C13   N1    A    
C52   H34   S    
N6    H49   S    
C50   H29   S    
C14   N2    A    
C7    C9    A    
C11   C17   A    
N8    H54   S    
C42   H9    S    
C3    C5    A    
C1    O4    A    
C2    O3    A    
C25   C27   S    
C9    C45   S    
C26   C28   S    
C53   H41   S    
C33   H1    S    
C13   C15   A    
C43   H15   S    
C25   O8    A    
C5    C10   A    
C29   C31   S    
N5    H47   S    
C36   C38   A    
C30   C32   S    
C1    O1    A    
C50   H27   S    
O5    Zn1   S    
C28   C30   T    
C17   C19   A    
C56   H44   S    
C18   C20   A    
C44   H12   S    
C25   O5    A    
C21   N5    S    
C3    C39   A    
C37   N3    S    
N2    Zn2   S    
C15   C21   A    
C48   H24   S    
C8    C10   A    
C47   C48   S    
C21   C24   A    
C12   C18   A    
C53   C54   S    
C7    C39   A    
C22   C23   A    
C12   C51   S    
C8    C40   A    
C49   C50   S    
C26   O7    A    
N4    H6    S    
C55   H45   S    
C54   H39   S    
C1    C36   S    
