data_mof_unit_39566.cif
_audit_creation_date              2012-12-10T19:00:14-0500
_audit_creation_method            fapswitch 2.2
_symmetry_space_group_name_H-M    P1
_symmetry_Int_Tables_number       1
_space_group_crystal_system       triclinic
_cell_length_a                    9.558371
_cell_length_b                    10.895724
_cell_length_c                    13.429658
_cell_angle_alpha                 90.490505
_cell_angle_beta                  72.462946
_cell_angle_gamma                 89.255531
_cell_volume                      1333.4045421

loop_
_atom_site_label
_atom_site_type_symbol
_atom_type_description
_atom_site_fract_x
_atom_site_fract_y
_atom_site_fract_z
_atom_type_partial_charge
C1    C     C_R   0.499086 0.737085 0.500642 0.872274
C2    C     C_R   0.436942 0.488412 0.978613 0.099647
C3    C     C_R   0.470566 0.455666 0.871541 0.068600
C4    C     C_R   0.545119 0.468179 0.030361 0.056233
C5    C     C_R   0.678547 0.404486 0.977990 0.091529
C6    C     C_R   0.700945 0.361143 0.875967 -0.228408
C7    C     C_R   0.598250 0.384855 0.824341 -0.164077
C8    C     C_R   0.524461 0.510004 0.132894 -0.239559
C9    C     C_R   0.756022 0.420089 0.134151 -0.169520
C10   C     C_R   0.373968 0.492935 0.814910 -0.093931
C11   C     C_R   0.374418 0.940727 0.516961 0.075928
C12   C     C_R   0.421487 0.494692 0.700029 0.810620
C13   C     C_R   0.500520 0.869346 0.500498 -0.074711
C14   C     C_R   0.633833 0.930663 0.484512 -0.227206
C15   C     C_R   0.638577 0.059271 0.486541 -0.019159
C16   C     C_R   0.506339 0.129572 0.500990 -0.150368
C17   C     C_R   0.377835 0.064596 0.515277 0.014116
C18   C     C_3   0.215659 0.079456 0.536686 -0.294181
C19   C     C_3   0.210893 0.936248 0.539971 -0.149200
C20   C     C_R   0.953190 0.418213 0.439032 0.292267
C21   C     C_R   0.896152 0.572817 0.567628 0.244715
C22   C     C_R   0.045296 0.572127 0.567521 -0.091849
C23   C     C_R   0.501490 0.262607 0.500356 0.791163
C24   C     C_R   0.100375 0.417824 0.439312 0.292353
C25   C     C_3   0.154992 0.406869 0.323303 -0.509448
C26   C     C_3   0.996766 0.408175 0.323047 -0.542022
C27   C     C_R   0.578757 0.497948 0.299931 0.811146
C28   C     C_R   0.785233 0.383173 0.030164 0.153791
C29   C     C_R   0.624165 0.480361 0.186407 -0.103806
C30   C     C_R   0.234859 0.541505 0.868612 -0.178393
C31   C     C_R   0.194994 0.561070 0.975693 -0.120203
C32   C     C_R   0.295318 0.538056 0.030015 -0.153433
Cu1   Cu    Cu3+1 0.359330 0.500020 0.500010 0.990495
Cu2   Cu    Cu3+1 0.640670 0.499980 0.499990 0.992198
H1    H     H_    0.834056 0.396791 0.175077 0.165277
H2    H     H_    0.188344 0.119712 0.468814 0.137448
H3    H     H_    0.078404 0.631404 0.620953 0.150365
H4    H     H_    0.214030 0.489634 0.286813 0.219324
H5    H     H_    0.213065 0.317961 0.296528 0.206175
H6    H     H_    0.967297 0.491761 0.286366 0.214144
H7    H     H_    0.797941 0.308150 0.834748 0.188128
H8    H     H_    0.962948 0.320212 0.295694 0.223249
H9    H     H_    0.430638 0.565546 0.173958 0.156576
H10   H     H_    0.157721 0.567449 0.827396 0.149726
H11   H     H_    0.256813 0.557384 0.112535 0.127036
H12   H     H_    0.086997 0.598060 0.016507 0.150228
H13   H     H_    0.618981 0.343462 0.747755 0.199338
H14   H     H_    0.734865 0.878584 0.472235 0.198504
N1    N     N_R   0.852320 0.499070 0.499340 -0.188591
N2    N     N_R   0.148230 0.499110 0.499340 -0.196702
O1    O     O_R   0.381190 0.680360 0.500000 -0.559471
O2    O     O_R   0.618780 0.680320 0.499990 -0.575310
O3    O     O_R   0.323230 0.500000 0.650990 -0.576607
O4    O     O_R   0.560820 0.499960 0.650980 -0.558835
O5    O     O_R   0.381220 0.319680 0.500010 -0.580426
O6    O     O_R   0.618810 0.319640 0.500000 -0.571962
O7    O     O_R   0.439180 0.500040 0.349020 -0.579405
O8    O     O_R   0.676770 0.500000 0.349010 -0.597627
C33   C     C_2   0.783803 0.112618 0.474538 0.910547
O9    O     O_2   0.806966 0.167070 0.547829 -0.548826
O10   O     O_R   0.896832 0.093194 0.381422 -0.765042
H15   H     H_    0.993006 0.129164 0.383823 0.323304
C34   C     C_2   0.145007 0.148390 0.637969 0.954962
O11   O     O_2   0.047349 0.223720 0.642560 -0.584397
O12   O     O_R   0.192805 0.128219 0.725321 -0.746211
H16   H     H_    0.137848 0.181295 0.787522 0.323541
C35   C     C_2   0.134296 0.881731 0.645452 0.855266
O13   O     O_2   0.001363 0.894333 0.682823 -0.582205
O14   O     O_R   0.214851 0.818734 0.700822 -0.756744
H17   H     H_    0.150758 0.788284 0.770550 0.325946
C36   C     C_2   0.163680 0.879352 0.452145 0.822740
O15   O     O_2   0.254640 0.838378 0.373548 -0.589753
O16   O     O_R   0.014596 0.873649 0.461271 -0.756264
H18   H     H_    0.996304 0.832042 0.398625 0.333805
N3    N     N_3   0.791952 0.652738 0.638038 -0.504132
H19   H     H_    0.792434 0.632962 0.713997 0.210555
H20   H     H_    0.826726 0.742890 0.622000 0.261656
N4    N     N_3   0.921974 0.320842 0.980854 -0.589520
H21   H     H_    0.900270 0.232449 0.959120 0.233483
H22   H     H_    0.977756 0.368793 0.913868 0.219102

loop_
_geom_bond_atom_site_label_1
_geom_bond_atom_site_label_2
_ccdc_geom_bond_type
Cu1   O5    S    
C34   O12   S    
Cu2   O6    S    
C27   C29   S    
C32   H11   S    
C19   C36   S    
C8    H9    S    
C4    C8    A    
C21   N1    A    
C23   O6    A    
C11   C19   S    
C8    C29   A    
C3    C7    A    
C5    C6    A    
N4    H22   S    
C18   C34   S    
C15   C16   A    
C2    C32   A    
C18   C19   S    
O16   H18   S    
C20   C24   A    
C16   C17   A    
C31   H12   S    
C19   C35   S    
C28   N4    S    
C12   O3    A    
C9    C29   A    
C22   N2    A    
C33   O9    D    
C13   C14   A    
C24   N2    A    
C30   H10   S    
O14   H17   S    
Cu1   Cu2   S    
Cu1   O3    S    
C33   O10   S    
C35   O13   D    
C24   C25   S    
C27   O7    A    
C36   O16   S    
N4    H21   S    
C14   H14   S    
C25   C26   S    
C22   H3    S    
C6    H7    S    
C35   O14   S    
C7    H13   S    
C2    C4    A    
N3    H19   S    
C20   N1    A    
C25   H4    S    
C5    C28   A    
N3    H20   S    
C10   C30   A    
C31   C32   A    
C17   C18   S    
C1    O1    A    
C10   C12   S    
Cu2   O4    S    
C16   C23   S    
C1    C13   S    
C26   H8    S    
Cu2   O8    S    
C11   C17   A    
Cu2   N1    S    
Cu1   O7    S    
C15   C33   S    
C4    C5    A    
C27   O8    A    
C23   O5    A    
C6    C7    A    
Cu1   O1    S    
C21   N3    S    
Cu2   O2    S    
C2    C3    A    
Cu1   N2    S    
C36   O15   D    
C3    C10   A    
C25   H5    S    
C11   C13   A    
C26   H6    S    
C30   C31   A    
C20   C26   S    
O10   H15   S    
C1    O2    A    
C34   O11   D    
O12   H16   S    
C9    H1    S    
C14   C15   A    
C21   C22   A    
C18   H2    S    
C12   O4    A    
C9    C28   A    
