data_mof_unit_28663.cif
_audit_creation_date              2012-12-10T20:34:48-0500
_audit_creation_method            fapswitch 2.2
_symmetry_space_group_name_H-M    P1
_symmetry_Int_Tables_number       1
_space_group_crystal_system       triclinic
_cell_length_a                    10.625878
_cell_length_b                    10.663017
_cell_length_c                    9.875577
_cell_angle_alpha                 89.262991
_cell_angle_beta                  89.301591
_cell_angle_gamma                 90.339777
_cell_volume                      1118.74514033

loop_
_atom_site_label
_atom_site_type_symbol
_atom_type_description
_atom_site_fract_x
_atom_site_fract_y
_atom_site_fract_z
_atom_type_partial_charge
C1    C     C_R   0.506074 0.259805 0.500334 0.867267
C2    C     C_3   0.878477 0.505018 0.498210 0.048213
C3    C     C_3   0.927340 0.607216 0.596365 0.409518
C4    C     C_3   0.930185 0.532062 0.352801 -0.331153
C5    C     C_R   0.560758 0.061983 0.615583 0.126389
C6    C     C_R   0.531222 0.128571 0.497848 -0.134681
C7    C     C_R   0.531631 0.066299 0.373185 -0.224047
C8    C     C_R   0.531878 0.936843 0.372138 -0.222840
C9    C     C_R   0.531738 0.870871 0.495705 -0.075604
C10   C     C_R   0.559943 0.933644 0.614331 0.074889
C11   C     C_3   0.504697 0.921752 0.753633 -0.482977
C12   C     C_R   0.257784 0.502933 0.500004 0.870781
C13   C     C_3   0.504970 0.064311 0.755430 -0.021673
C14   C     C_R   0.396578 0.461289 0.073656 0.027432
C15   C     C_R   0.595777 0.555313 0.070355 0.574645
C16   C     C_R   0.597462 0.550376 0.925430 -0.274814
C17   C     C_R   0.393802 0.466350 0.931123 0.100761
C18   C     C_3   0.326014 0.342313 0.931078 0.382334
C19   C     C_3   0.335301 0.336050 0.085174 -0.543145
C20   C     C_R   0.506038 0.739966 0.498997 0.893417
C21   C     C_R   0.742137 0.503219 0.499189 0.897795
C22   C     C_3   0.069239 0.371948 0.546472 0.021812
C23   C     C_3   0.924273 0.374325 0.545817 -0.533532
C24   C     C_3   0.072356 0.606412 0.594220 -0.529370
C25   C     C_3   0.073125 0.535072 0.353593 -0.414193
C26   C     C_3   0.121182 0.502781 0.498280 0.110414
H1    H     H_    0.099159 0.355562 0.652236 0.223052
H2    H     H_    0.894863 0.623581 0.314133 0.232679
H3    H     H_    0.109892 0.699500 0.560118 0.197544
H4    H     H_    0.520601 0.115922 0.277744 0.167167
H5    H     H_    0.520497 0.889896 0.276424 0.168245
H6    H     H_    0.408224 0.880673 0.754481 0.185947
H7    H     H_    0.570839 0.876437 0.825420 0.200188
H8    H     H_    0.408482 0.103555 0.757256 0.168931
H9    H     H_    0.677584 0.586052 0.868260 0.160192
H10   H     H_    0.383602 0.270272 0.881711 0.105987
H11   H     H_    0.246267 0.337740 0.144147 0.202519
H12   H     H_    0.401856 0.262979 0.120619 0.171419
H13   H     H_    0.885352 0.300981 0.478379 0.201818
H14   H     H_    0.887818 0.352584 0.649792 0.165353
H15   H     H_    0.106663 0.590785 0.698874 0.154959
H16   H     H_    0.894458 0.580791 0.701110 0.062759
H17   H     H_    0.106974 0.630101 0.321512 0.178812
H18   H     H_    0.109255 0.468331 0.277238 0.182023
H19   H     H_    0.898477 0.458018 0.282071 0.189388
N1    N     N_R   0.499150 0.499140 0.142800 -0.136013
N2    N     N_R   0.499150 0.499180 0.857150 -0.148399
O1    O     O_R   0.500020 0.316790 0.614690 -0.620163
O2    O     O_R   0.500000 0.316760 0.385350 -0.623360
O3    O     O_R   0.314800 0.500000 0.614670 -0.601923
O4    O     O_R   0.314790 0.499960 0.385330 -0.624147
O5    O     O_R   0.500000 0.683240 0.614650 -0.619662
O6    O     O_R   0.499980 0.683210 0.385310 -0.606353
O7    O     O_R   0.685210 0.500040 0.614670 -0.646623
O8    O     O_R   0.685200 0.500000 0.385330 -0.570569
Zn1   Zn    Zn3+2 0.500010 0.500020 0.653130 0.942660
Zn2   Zn    Zn3+2 0.499990 0.499980 0.346870 0.979059
O9    O     O_3   0.882475 0.726788 0.554810 -0.603763
C27   C     C_3   0.863742 0.804387 0.667839 -0.346972
H20   H     H_    0.949990 0.811094 0.730216 0.155009
H21   H     H_    0.782823 0.769883 0.730581 0.161269
H22   H     H_    0.840969 0.900256 0.631153 0.203404
C28   C     C_3   0.595272 0.119739 0.859012 -0.903150
H23   H     H_    0.689681 0.075695 0.851989 0.245689
H24   H     H_    0.606436 0.222175 0.840976 0.257036
H25   H     H_    0.556480 0.103996 0.962790 0.230781
O10   O     O_3   0.694381 0.608280 0.140368 -0.589204
C29   C     C_3   0.718518 0.731874 0.093449 -0.377141
H26   H     H_    0.770050 0.782777 0.173057 0.206576
H27   H     H_    0.630589 0.785207 0.073498 0.150923
H28   H     H_    0.779908 0.731226 0.001646 0.147576
C30   C     C_3   0.119832 0.260464 0.464302 -0.896902
H29   H     H_    0.224072 0.256669 0.467557 0.237533
H30   H     H_    0.083070 0.171151 0.508922 0.246337
H31   H     H_    0.089876 0.265976 0.357176 0.245339
O11   O     O_3   0.202585 0.344833 0.875766 -0.602317
C31   C     C_3   0.117957 0.428709 0.939079 -0.311638
H32   H     H_    0.160310 0.521922 0.959423 0.157075
H33   H     H_    0.076662 0.386112 0.032629 0.164682
H34   H     H_    0.037723 0.444762 0.870470 0.160731

loop_
_geom_bond_atom_site_label_1
_geom_bond_atom_site_label_2
_ccdc_geom_bond_type
C28   H24   S    
C3    H16   S    
C25   H17   S    
C4    C25   S    
C7    C8    A    
C14   N1    A    
C31   H32   S    
C24   C26   S    
C16   H9    S    
C21   O7    A    
C23   H14   S    
O2    Zn2   S    
C25   H18   S    
C18   C19   S    
C24   H3    S    
C19   H11   S    
C29   H26   S    
C8    C9    A    
O4    Zn2   S    
C9    C10   A    
C5    C13   S    
C28   H25   S    
C27   H20   S    
C7    H4    S    
C24   H15   S    
C14   C17   A    
C3    C24   S    
C30   H31   S    
C16   N2    A    
C22   C30   S    
C4    H2    S    
C4    H19   S    
C31   H33   S    
O7    Zn1   S    
C27   H21   S    
O10   C29   S    
C11   H7    S    
O11   C31   S    
C30   H30   S    
C21   O8    A    
O6    Zn2   S    
C30   H29   S    
O9    C27   S    
O3    Zn1   S    
C1    C6    S    
C12   C26   S    
C2    C4    S    
C19   H12   S    
C9    C20   S    
C13   C28   S    
C15   O10   S    
C2    C21   S    
C17   C18   S    
C11   H6    S    
C22   H1    S    
O8    Zn2   S    
N1    Zn2   S    
C12   O4    A    
C31   H34   S    
O1    Zn1   S    
C27   H22   S    
C18   O11   S    
C8    H5    S    
C14   C19   S    
C17   N2    A    
C20   O6    A    
C12   O3    A    
C1    O1    A    
C6    C7    A    
C2    C3    S    
C25   C26   S    
C5    C10   A    
C20   O5    A    
C11   C13   S    
C5    C6    A    
C18   H10   S    
C29   H28   S    
C23   H13   S    
C10   C11   S    
C28   H23   S    
C3    O9    S    
O5    Zn1   S    
C13   H8    S    
C29   H27   S    
C22   C26   S    
C2    C23   S    
C22   C23   S    
C15   N1    A    
C1    O2    A    
C15   C16   A    
N2    Zn1   S    
