data_mof_unit_12513.cif
_audit_creation_date              2012-12-11T17:07:55-0500
_audit_creation_method            fapswitch 2.2
_symmetry_space_group_name_H-M    P1
_symmetry_Int_Tables_number       1
_space_group_crystal_system       triclinic
_cell_length_a                    17.327057
_cell_length_b                    17.289579
_cell_length_c                    17.48398
_cell_angle_alpha                 89.019293
_cell_angle_beta                  89.842677
_cell_angle_gamma                 90.075701
_cell_volume                      5237.0154778

loop_
_atom_site_label
_atom_site_type_symbol
_atom_type_description
_atom_site_fract_x
_atom_site_fract_y
_atom_site_fract_z
_atom_type_partial_charge
C1    C     C_R   0.395999 0.303000 0.899287 -0.139952
C2    C     C_R   0.178143 0.912566 0.363768 -0.121473
C3    C     C_R   0.698484 0.749535 0.355359 -0.025129
C4    C     C_R   0.148288 0.228359 0.793411 -0.013800
C5    C     C_R   0.209359 0.857874 0.809110 -0.034202
C6    C     C_R   0.759158 0.683038 0.637791 -0.028407
C7    C     C_R   0.741394 0.240600 0.673317 -0.037282
C8    C     C_R   0.694140 0.289546 0.715327 -0.035617
C9    C     C_R   0.715427 0.637779 0.690619 -0.030850
C10   C     C_R   0.256910 0.812908 0.858190 -0.022422
C11   C     C_R   0.189964 0.262990 0.852904 -0.026594
C12   C     C_R   0.655465 0.704859 0.304089 -0.030158
C13   C     C_R   0.077427 0.171557 0.357421 -0.140074
C14   C     C_R   0.712217 0.359527 0.307133 -0.036278
C15   C     C_R   0.257283 0.184460 0.138210 -0.026782
C16   C     C_R   0.203278 0.755480 0.143982 -0.031061
C17   C     C_1   0.091904 0.842852 0.166162 0.086675
C18   C     C_1   0.219230 0.056048 0.191804 0.070846
C19   C     C_1   0.812789 0.352571 0.407285 0.068817
C20   C     C_1   0.663566 0.779828 0.423979 0.063969
C21   C     C_1   0.066795 0.244522 0.786606 0.052798
C22   C     C_1   0.209136 0.941301 0.813498 0.070785
C23   C     C_1   0.810446 0.646196 0.584001 0.064070
C24   C     C_R   0.803858 0.103877 0.395074 -0.132594
C25   C     C_1   0.736492 0.240558 0.590788 0.084229
C26   C     C_1   0.640009 0.341447 0.677549 0.097468
C27   C     C_1   0.727393 0.555066 0.695105 0.072283
C28   C     C_1   0.305626 0.849994 0.913876 0.064584
C29   C     C_1   0.150662 0.306399 0.911567 0.059046
C30   C     C_1   0.577858 0.680668 0.322602 0.082282
C31   C     C_1   0.715398 0.443174 0.308731 0.071265
C32   C     C_1   0.307510 0.147277 0.083723 0.060470
C33   C     C_1   0.180352 0.745851 0.065223 0.075142
C34   C     C_R   0.909525 0.178796 0.634540 -0.112922
C35   C     C_R   0.182297 0.091296 0.631034 -0.129286
C36   C     C_R   0.076175 0.828522 0.642467 -0.139829
C37   C     C_R   0.802417 0.894580 0.600478 -0.142882
C38   C     C_3   0.836501 0.163623 0.855530 -0.465967
C39   C     C_3   0.679005 0.867232 0.721730 -0.503401
C40   C     C_3   0.143037 0.677591 0.707785 -0.497115
C41   C     C_R   0.686146 0.403643 0.873908 -0.133860
C42   C     C_3   0.333441 0.161924 0.700063 -0.506528
C43   C     C_3   0.868124 0.753710 0.219040 -0.462793
C44   C     C_3   0.687897 0.130341 0.265486 -0.492004
C45   C     C_3   0.134024 0.321424 0.280584 -0.499300
C46   C     C_3   0.308290 0.774584 0.350140 -0.485501
C47   C     C_3   0.354614 0.723523 0.297318 -0.450308
C48   C     C_3   0.182260 0.369236 0.225728 -0.494976
C49   C     C_3   0.637082 0.178243 0.213414 -0.499251
C50   C     C_3   0.820861 0.708094 0.162643 -0.493287
C51   C     C_3   0.378363 0.201871 0.761608 -0.491656
C52   C     C_R   0.577369 0.670556 0.856691 -0.141707
C53   C     C_3   0.193571 0.629669 0.760230 -0.489228
C54   C     C_3   0.630874 0.819171 0.776446 -0.501119
C55   C     C_3   0.787187 0.219744 0.900535 -0.474516
C56   C     C_R   0.393014 0.696414 0.894570 -0.144032
C57   C     C_R   0.304204 0.393545 0.895219 -0.129716
C58   C     C_R   0.590132 0.315386 0.872065 -0.141372
C59   C     C_R   0.673249 0.583887 0.858429 -0.123180
C60   C     C_R   0.391804 0.302982 0.103182 -0.143275
C61   C     C_R   0.304894 0.601140 0.109288 -0.136808
C62   C     C_R   0.585609 0.676383 0.137787 -0.137147
C63   C     C_R   0.303605 0.603572 0.895605 -0.131450
C64   C     C_R   0.673846 0.413429 0.140631 -0.125394
C65   C     C_R   0.893718 0.196260 0.393721 -0.143480
C66   C     C_R   0.804804 0.895225 0.392445 -0.134539
C67   C     C_R   0.081989 0.825401 0.361289 -0.142222
C68   C     C_R   0.174540 0.086642 0.359457 -0.124404
C69   C     C_R   0.892014 0.802798 0.602891 -0.141405
C70   C     C_R   0.822434 0.082027 0.636883 -0.133744
C71   C     C_R   0.090990 0.182853 0.630751 -0.130988
C72   C     C_R   0.173172 0.913964 0.641314 -0.126048
C73   C     C_R   0.320457 0.316425 0.881589 0.097642
C74   C     C_R   0.395312 0.694185 0.108917 -0.133809
C75   C     C_R   0.658768 0.337427 0.840432 0.106450
C76   C     C_R   0.638584 0.642155 0.814711 0.092857
C77   C     C_R   0.316607 0.680065 0.877764 0.094273
C78   C     C_R   0.320476 0.675556 0.128341 0.102487
C79   C     C_R   0.650960 0.648104 0.173797 0.097537
C80   C     C_R   0.637487 0.355969 0.184018 0.095259
C81   C     C_R   0.314541 0.318470 0.117676 0.097170
C82   C     C_R   0.822446 0.819816 0.375209 0.096273
C83   C     C_R   0.145271 0.853663 0.322957 0.106365
C84   C     C_R   0.138944 0.144248 0.315826 0.092752
C85   C     C_R   0.680596 0.587997 0.132916 -0.124986
C86   C     C_R   0.817360 0.180349 0.376511 0.099351
C87   C     C_R   0.846882 0.146964 0.673301 0.090430
C88   C     C_R   0.155470 0.155724 0.668727 0.093040
C89   C     C_R   0.136985 0.855985 0.684271 0.093792
C90   C     C_R   0.814550 0.817677 0.616733 0.098786
C91   C     C_R   0.736972 0.224967 0.831519 0.133384
C92   C     C_R   0.644195 0.752075 0.724748 0.146889
C93   C     C_R   0.194771 0.697610 0.812220 0.146986
C94   C     C_R   0.305821 0.199990 0.808857 0.151638
C95   C     C_R   0.771068 0.684478 0.229100 0.141181
C96   C     C_R   0.576271 0.328670 0.142577 -0.143052
C97   C     C_R   0.646933 0.243137 0.268463 0.145116
C98   C     C_R   0.188870 0.298413 0.177832 0.152056
C99   C     C_R   0.283033 0.715962 0.251160 0.129669
C100  C     C_R   0.241293 0.760423 0.298601 0.137387
C101  C     C_R   0.145130 0.255026 0.227620 0.145516
C102  C     C_R   0.693152 0.199750 0.315357 0.141250
C103  C     C_R   0.813004 0.725203 0.279383 0.132930
C104  C     C_R   0.265403 0.164411 0.752915 0.161725
C105  C     C_R   0.148928 0.740946 0.765055 0.143728
C106  C     C_R   0.687920 0.795867 0.675099 0.160694
C107  C     C_R   0.302610 0.395398 0.101511 -0.136059
C108  C     C_R   0.781627 0.176046 0.790770 0.130111
C109  C     C_R   0.701373 0.287261 0.795143 -0.053052
C110  C     C_R   0.664440 0.675489 0.741596 -0.049701
C111  C     C_R   0.256010 0.731453 0.850973 -0.041173
C112  C     C_R   0.270933 0.257189 0.852210 -0.051485
C113  C     C_R   0.691409 0.680982 0.235990 -0.042701
C114  C     C_R   0.663176 0.321237 0.255473 -0.047661
C115  C     C_R   0.252678 0.266083 0.141429 -0.048227
C116  C     C_R   0.270471 0.719943 0.173242 -0.053433
C117  C     C_R   0.185024 0.809084 0.269311 -0.050272
C118  C     C_R   0.897043 0.804457 0.394701 -0.133436
C119  C     C_R   0.164069 0.177934 0.243000 -0.048553
C120  C     C_R   0.756907 0.232820 0.350790 -0.039828
C121  C     C_R   0.776308 0.764954 0.337290 -0.048734
C122  C     C_R   0.189152 0.184759 0.738175 -0.047983
C123  C     C_R   0.163085 0.819794 0.754885 -0.048757
C124  C     C_R   0.752873 0.764542 0.639854 -0.046314
C125  C     C_R   0.792713 0.191093 0.713481 -0.047172
C126  C     C_R   0.159478 0.801545 0.193350 -0.032794
C127  C     C_R   0.212659 0.139512 0.190531 -0.032629
C128  C     C_R   0.760368 0.314607 0.355543 -0.024586
H1    H     H_    0.424244 0.247495 0.905442 0.104540
H2    H     H_    0.234462 0.937619 0.354870 0.091986
H3    H     H_    0.037338 0.216220 0.340701 0.109532
H4    H     H_    0.748475 0.075366 0.400318 0.099951
H5    H     H_    0.933607 0.235814 0.641486 0.107282
H6    H     H_    0.235420 0.061012 0.640864 0.098364
H7    H     H_    0.036293 0.783102 0.658492 0.109412
H8    H     H_    0.747211 0.922642 0.592715 0.102702
H9    H     H_    0.833908 0.103385 0.878672 0.190304
H10   H     H_    0.734067 0.887175 0.747410 0.201878
H11   H     H_    0.083391 0.654341 0.703346 0.190107
H12   H     H_    0.743358 0.428124 0.868762 0.098439
H13   H     H_    0.354092 0.102028 0.690372 0.189070
H14   H     H_    0.864986 0.817385 0.209247 0.202666
H15   H     H_    0.743997 0.114826 0.238772 0.202403
H16   H     H_    0.072943 0.340885 0.282998 0.189442
H17   H     H_    0.328244 0.835699 0.348911 0.190411
H18   H     H_    0.370401 0.667201 0.324342 0.202286
H19   H     H_    0.238184 0.387607 0.250750 0.203014
H20   H     H_    0.576629 0.156716 0.211668 0.188778
H21   H     H_    0.852799 0.658372 0.138477 0.189111
H22   H     H_    0.396697 0.261369 0.744400 0.205533
H23   H     H_    0.537157 0.715014 0.839650 0.110429
H24   H     H_    0.251082 0.616771 0.735093 0.202628
H25   H     H_    0.569387 0.837452 0.777594 0.189116
H26   H     H_    0.816929 0.275226 0.912670 0.196613
H27   H     H_    0.895331 0.185263 0.843293 0.210816
H28   H     H_    0.645074 0.912863 0.691499 0.188150
H29   H     H_    0.171376 0.692346 0.652250 0.201171
H30   H     H_    0.325557 0.198137 0.647473 0.200769
H31   H     H_    0.927298 0.730323 0.227593 0.187655
H32   H     H_    0.656483 0.081514 0.293737 0.186882
H33   H     H_    0.162225 0.312317 0.337102 0.201727
H34   H     H_    0.248389 0.574609 0.900386 0.100470
H35   H     H_    0.299546 0.748618 0.408119 0.194886
H36   H     H_    0.401663 0.754759 0.266307 0.192277
H37   H     H_    0.148814 0.416040 0.196748 0.187849
H38   H     H_    0.663947 0.190299 0.156580 0.199892
H39   H     H_    0.789901 0.745100 0.120076 0.199796
H40   H     H_    0.424627 0.165008 0.786789 0.188079
H41   H     H_    0.162853 0.579081 0.786048 0.189241
H42   H     H_    0.658320 0.811613 0.833528 0.201246
H43   H     H_    0.757077 0.192057 0.950118 0.189959
H44   H     H_    0.420250 0.752587 0.895151 0.102362
H45   H     H_    0.422565 0.750394 0.111216 0.098237
H46   H     H_    0.248831 0.422113 0.893259 0.101976
H47   H     H_    0.558493 0.262118 0.864356 0.097012
H48   H     H_    0.725350 0.552956 0.845429 0.103022
H49   H     H_    0.419071 0.246941 0.101913 0.102192
H50   H     H_    0.250108 0.571128 0.112359 0.095374
H51   H     H_    0.551654 0.726329 0.152622 0.100248
H52   H     H_    0.728414 0.439955 0.153067 0.097063
H53   H     H_    0.921504 0.252083 0.394189 0.103128
H54   H     H_    0.749006 0.923118 0.390025 0.098805
H55   H     H_    0.048357 0.774628 0.348408 0.098442
H56   H     H_    0.735883 0.560608 0.140587 0.096255
H57   H     H_    0.228861 0.059528 0.347134 0.097659
H58   H     H_    0.919717 0.746993 0.601732 0.102427
H59   H     H_    0.769930 0.049452 0.646934 0.098035
H60   H     H_    0.061134 0.236701 0.638660 0.105209
H61   H     H_    0.227338 0.940899 0.654521 0.095549
H62   H     H_    0.535892 0.283871 0.159038 0.110300
H63   H     H_    0.247608 0.424126 0.094737 0.102591
H64   H     H_    0.925191 0.748634 0.396557 0.100066
N1    N     N_R   0.425360 0.368540 0.922560 -0.039977
N2    N     N_R   0.131460 0.925360 0.422560 -0.044751
N3    N     N_R   0.074640 0.131460 0.422560 -0.044214
N4    N     N_R   0.868540 0.074640 0.422560 -0.041948
N5    N     N_R   0.925360 0.131460 0.577440 -0.043525
N6    N     N_R   0.131460 0.074640 0.577440 -0.042918
N7    N     N_R   0.074640 0.868540 0.577440 -0.044504
N8    N     N_R   0.868540 0.925360 0.577440 -0.039754
N9    N     N_R   0.425340 0.631500 0.922560 -0.041117
N10   N     N_R   0.368500 0.425340 0.922560 -0.042207
N11   N     N_R   0.574660 0.368500 0.922560 -0.041588
N12   N     N_R   0.631460 0.425360 0.922560 -0.042805
N13   N     N_R   0.631500 0.574660 0.922560 -0.045035
N14   N     N_R   0.425340 0.368500 0.077440 -0.041021
N15   N     N_R   0.368500 0.574660 0.077440 -0.040350
N16   N     N_R   0.574660 0.631500 0.077440 -0.043213
N17   N     N_R   0.631500 0.425340 0.077440 -0.043913
N18   N     N_R   0.925340 0.131500 0.422560 -0.042357
N19   N     N_R   0.868500 0.925340 0.422560 -0.041036
N20   N     N_R   0.074660 0.868500 0.422560 -0.043220
N21   N     N_R   0.131500 0.074660 0.422560 -0.044067
N22   N     N_R   0.925340 0.868500 0.577440 -0.040796
N23   N     N_R   0.574640 0.631460 0.922560 -0.044429
N24   N     N_R   0.868500 0.074660 0.577440 -0.041943
N25   N     N_R   0.074660 0.131500 0.577440 -0.043339
N26   N     N_R   0.131500 0.925340 0.577440 -0.044497
N27   N     N_1   0.037902 0.875834 0.144563 -0.087025
N28   N     N_1   0.224723 0.989356 0.192298 -0.088074
N29   N     N_1   0.854307 0.383269 0.448757 -0.091263
N30   N     N_1   0.635727 0.804030 0.478838 -0.099447
N31   N     N_1   0.001949 0.259185 0.781252 -0.112454
N32   N     N_1   0.208643 0.007968 0.817627 -0.089809
N33   N     N_1   0.851102 0.616560 0.540829 -0.093521
N34   N     N_R   0.368540 0.574640 0.922560 -0.041370
N35   N     N_1   0.731572 0.240069 0.524953 -0.088605
N36   N     N_1   0.596660 0.382659 0.647454 -0.082175
N37   N     N_1   0.737898 0.489056 0.698500 -0.088144
N38   N     N_1   0.344258 0.879795 0.958563 -0.093042
N39   N     N_1   0.119277 0.340824 0.958543 -0.102447
N40   N     N_1   0.516298 0.660085 0.338295 -0.097984
N41   N     N_1   0.718026 0.509971 0.310559 -0.089550
N42   N     N_1   0.347352 0.117404 0.039979 -0.096148
N43   N     N_1   0.161161 0.737868 0.002558 -0.093592
N44   N     N_R   0.425360 0.631460 0.077440 -0.039726
N45   N     N_R   0.631460 0.574640 0.077440 -0.043878
N46   N     N_R   0.574640 0.368540 0.077440 -0.043995
N47   N     N_R   0.368540 0.425360 0.077440 -0.040376
N48   N     N_R   0.925360 0.868540 0.422560 -0.040041
Ni1   Ni    Ni4+2 0.500000 0.369720 0.000000 0.209662
Ni2   Ni    Ni4+2 0.630280 0.500000 0.000000 0.210743
Ni3   Ni    Ni4+2 0.500000 0.630280 0.000000 0.213547
Ni4   Ni    Ni4+2 0.369720 0.500000 0.000000 0.210344
Ni5   Ni    Ni4+2 1.000000 0.869720 0.500000 0.212191
Ni6   Ni    Ni4+2 0.130280 0.000000 0.500000 0.210922
Ni7   Ni    Ni4+2 1.000000 0.130280 0.500000 0.216203
Ni8   Ni    Ni4+2 0.869720 0.000000 0.500000 0.211026

loop_
_geom_bond_atom_site_label_1
_geom_bond_atom_site_label_2
_ccdc_geom_bond_type
C44   C49   S    
C36   C89   A    
C55   H26   S    
N11   N12   A    
C81   C107  A    
C67   C83   A    
C72   C89   A    
C39   C106  S    
C8    C26   S    
C54   H42   S    
C58   H47   S    
C19   N29   T    
C36   N7    A    
C6    C124  A    
C71   H60   S    
C18   N28   T    
N8    Ni8   S    
C6    C9    A    
C2    C83   A    
C14   C128  A    
C65   C86   A    
C32   N42   T    
C31   N41   T    
C13   C84   A    
C63   H34   S    
N45   Ni2   S    
N26   Ni6   S    
N44   Ni3   S    
C95   C113  A    
N7    Ni5   S    
C1    H1    S    
C44   H15   S    
C50   H21   S    
C64   H52   S    
C41   N12   A    
C50   C95   S    
C39   C54   S    
C104  C122  A    
C24   N4    A    
C57   C73   A    
C118  N48   A    
C40   H11   S    
C19   C128  S    
C47   C99   S    
C105  C123  A    
C24   C86   A    
C60   C81   A    
C37   N8    A    
C30   N40   T    
C77   C111  S    
C45   H33   S    
C84   C119  S    
C41   H12   S    
C55   C91   S    
C3    C12   A    
C3    C121  A    
C93   C105  A    
C118  H64   S    
C27   N37   T    
C38   C55   S    
C51   H22   S    
C26   N36   T    
C57   N10   A    
N15   N44   A    
C45   H16   S    
N8    N22   A    
N16   Ni3   S    
C53   H24   S    
N14   N47   A    
C108  C125  A    
C80   C96   A    
C117  C126  A    
C14   C31   S    
C82   C121  S    
N18   Ni7   S    
C97   C102  A    
C33   N43   T    
C53   H41   S    
C42   C51   S    
C34   C87   A    
N4    N18   A    
C59   N13   A    
C66   H54   S    
C47   H18   S    
C94   C104  A    
C61   H50   S    
C15   C127  A    
N4    Ni8   S    
C64   C80   A    
C51   H40   S    
C42   H30   S    
N7    N26   A    
C96   H62   S    
C38   H27   S    
C54   H25   S    
C70   C87   A    
C16   C116  A    
C35   H6    S    
C62   N16   A    
C23   N33   T    
C95   C103  A    
C58   C75   A    
C63   N34   A    
N14   Ni1   S    
N9    N34   A    
C75   C109  S    
N3    N21   A    
C5    C22   S    
C53   C93   S    
C68   C84   A    
C40   H29   S    
C7    C8    A    
N17   N46   A    
C29   N39   T    
C74   H45   S    
C88   C122  S    
C59   H48   S    
C62   H51   S    
C44   C102  S    
C45   C101  S    
N2    Ni6   S    
C65   H53   S    
C56   N9    A    
C89   C123  S    
C34   H5    S    
C60   H49   S    
C14   C114  A    
N3    Ni7   S    
N5    Ni7   S    
C52   N23   A    
N1    N10   A    
C57   H46   S    
C49   H20   S    
C42   C104  S    
C2    N2    A    
C101  C119  A    
N19   Ni8   S    
N17   Ni2   S    
C1    N1    A    
C54   C92   S    
C18   C127  S    
C41   C75   A    
C35   C88   A    
C24   H4    S    
N34   Ni4   S    
C99   C100  A    
N46   Ni1   S    
C61   C78   A    
N10   Ni4   S    
C81   C115  S    
C42   H13   S    
C13   H3    S    
C37   H8    S    
C4    C122  A    
C67   N20   A    
C99   C116  A    
C7    C25   S    
C7    C125  A    
C4    C11   A    
C68   N21   A    
N13   N23   A    
C65   N18   A    
N47   Ni4   S    
N5    N24   A    
C67   H55   S    
C70   H59   S    
C61   N15   A    
C15   C32   S    
C47   H36   S    
C37   C90   A    
C92   C106  A    
C93   C111  A    
C58   N11   A    
C85   H56   S    
C46   H35   S    
C79   C113  S    
C13   N3    A    
N48   Ni5   S    
C44   H32   S    
C15   C115  A    
C64   N17   A    
N6    N25   A    
C82   C118  A    
C74   N44   A    
C69   C90   A    
C103  C121  A    
C36   H7    S    
C28   N38   T    
C72   H61   S    
C79   C85   A    
C102  C120  A    
C9    C27   S    
C73   C112  S    
C12   C113  A    
C63   C77   A    
C45   C48   S    
C10   C28   S    
C9    C110  A    
C46   C100  S    
C46   C47   S    
C48   H37   S    
C21   N31   T    
C87   C125  S    
C12   C30   S    
C11   C112  A    
C90   C124  S    
C91   C108  A    
C78   C116  S    
C69   N22   A    
N25   Ni7   S    
C80   C114  S    
N20   Ni5   S    
C52   C76   A    
C17   N27   T    
N16   N45   A    
C68   H57   S    
N12   Ni2   S    
C120  C128  A    
C43   C50   S    
C10   C111  A    
N11   Ni1   S    
N24   Ni8   S    
C98   C101  A    
C72   N26   A    
C17   C126  S    
C5    C123  A    
N23   Ni3   S    
C71   N25   A    
C39   H28   S    
C70   N24   A    
C91   C109  A    
C66   N19   A    
C1    C73   A    
C49   H38   S    
C92   C110  A    
C16   C33   S    
C3    C20   S    
N15   Ni4   S    
C4    C21   S    
C34   N5    A    
C60   N14   A    
C98   C115  A    
C55   H43   S    
N13   Ni2   S    
C107  N47   A    
N6    Ni6   S    
C52   H23   S    
C6    C23   S    
C59   C76   A    
C43   H31   S    
C94   C112  A    
C96   N46   A    
C2    H2    S    
C38   H9    S    
C25   N35   T    
N22   Ni5   S    
C85   N45   A    
C48   C98   S    
C38   C108  S    
N21   Ni6   S    
N9    Ni3   S    
C43   C103  S    
C62   C79   A    
C39   H10   S    
C49   C97   S    
C83   C117  S    
C56   C77   A    
C51   C94   S    
N2    N20   A    
C71   C88   A    
C46   H17   S    
N1    Ni1   S    
C22   N32   T    
C5    C10   A    
C11   C29   S    
C76   C110  S    
C40   C53   S    
C74   C78   A    
C107  H63   S    
C50   H39   S    
C20   N30   T    
N19   N48   A    
C40   C105  S    
C43   H14   S    
C86   C120  S    
C100  C117  A    
C106  C124  A    
C97   C114  A    
C8    C109  A    
C16   C126  A    
C69   H58   S    
C56   H44   S    
C66   C82   A    
C35   N6    A    
C48   H19   S    
C119  C127  A    
