data_mof_unit_53685.cif
_audit_creation_date              2012-12-10T20:36:41-0500
_audit_creation_method            fapswitch 2.2
_symmetry_space_group_name_H-M    P1
_symmetry_Int_Tables_number       1
_space_group_crystal_system       triclinic
_cell_length_a                    10.519389
_cell_length_b                    10.684371
_cell_length_c                    9.868569
_cell_angle_alpha                 89.682088
_cell_angle_beta                  90.67604
_cell_angle_gamma                 89.796152
_cell_volume                      1109.05705496

loop_
_atom_site_label
_atom_site_type_symbol
_atom_type_description
_atom_site_fract_x
_atom_site_fract_y
_atom_site_fract_z
_atom_type_partial_charge
C1    C     C_R   0.504261 0.260222 0.500572 0.886773
C2    C     C_R   0.504080 0.936083 0.621107 0.061350
C3    C     C_3   0.400623 0.930591 0.724913 0.005460
C4    C     C_R   0.257358 0.500359 0.499254 0.869228
C5    C     C_3   0.405256 0.073036 0.726845 -0.480490
C6    C     C_R   0.432998 0.411782 0.070823 0.219081
C7    C     C_R   0.575561 0.579252 0.072418 -0.131197
C8    C     C_R   0.575406 0.579433 0.928449 -0.134966
C9    C     C_R   0.433104 0.411710 0.928287 0.221465
C10   C     C_3   0.293143 0.391467 0.920587 -0.524302
C11   C     C_3   0.292917 0.392043 0.074363 -0.518029
C12   C     C_3   0.955549 0.603526 0.439668 -0.202583
C13   C     C_R   0.504878 0.739999 0.499615 0.899930
C14   C     C_R   0.742592 0.498925 0.500944 0.859117
C15   C     C_3   0.045206 0.393732 0.561756 -0.236098
C16   C     C_3   0.957598 0.397110 0.434314 -0.202668
C17   C     C_3   0.877369 0.498128 0.502710 0.021201
C18   C     C_3   0.963621 0.495189 0.626966 0.171224
C19   C     C_3   0.042828 0.601133 0.567113 -0.197506
C20   C     C_3   0.273580 0.879462 0.672199 -0.899463
C21   C     C_3   0.038027 0.502676 0.370797 -0.125510
C22   C     C_3   0.122533 0.499855 0.498358 0.007271
C23   C     C_R   0.507166 0.063319 0.623100 0.079110
C24   C     C_R   0.524762 0.129273 0.503274 -0.110338
C25   C     C_R   0.567678 0.067321 0.387762 -0.288969
C26   C     C_R   0.568660 0.937204 0.385812 0.087808
C27   C     C_R   0.523836 0.871766 0.500541 -0.106873
H1    H     H_    0.918552 0.314632 0.380197 0.137465
H2    H     H_    0.267819 0.300024 0.119585 0.200539
H3    H     H_    0.085710 0.309540 0.613002 0.129418
H4    H     H_    0.078953 0.683430 0.623276 0.136185
H5    H     H_    0.914904 0.688359 0.389840 0.136793
H6    H     H_    0.071270 0.506344 0.264714 0.135191
H7    H     H_    0.593825 0.118751 0.297345 0.166806
H8    H     H_    0.000688 0.493607 0.829330 0.170828
H9    H     H_    0.876746 0.405140 0.782158 0.187959
H10   H     H_    0.703101 0.900322 0.247003 0.166783
H11   H     H_    0.552604 0.903336 0.185014 0.180032
H12   H     H_    0.433283 0.886931 0.821893 0.164355
H13   H     H_    0.278829 0.776085 0.665963 0.251879
H14   H     H_    0.196914 0.904385 0.743652 0.238667
H15   H     H_    0.249292 0.918318 0.570372 0.243810
H16   H     H_    0.318260 0.120854 0.686952 0.199685
H17   H     H_    0.442267 0.110835 0.824287 0.175558
H18   H     H_    0.634965 0.644666 0.127018 0.160764
H19   H     H_    0.634346 0.645308 0.874478 0.153212
H20   H     H_    0.241262 0.472329 0.874713 0.219998
H21   H     H_    0.268690 0.298932 0.876745 0.194462
H22   H     H_    0.241682 0.473758 0.116561 0.212737
N1    N     N_R   0.499140 0.499140 0.142800 -0.107920
N2    N     N_R   0.499140 0.499180 0.857150 -0.107042
N3    N     N_3   0.920046 0.491849 0.766541 -0.451341
N4    N     N_3   0.609598 0.873443 0.266541 -0.446104
O1    O     O_R   0.500020 0.316790 0.614690 -0.617268
O2    O     O_R   0.500000 0.316760 0.385350 -0.625190
O3    O     O_R   0.313960 0.499990 0.614650 -0.629809
O4    O     O_R   0.313940 0.499950 0.385310 -0.623985
O5    O     O_R   0.500000 0.683240 0.614650 -0.630515
O6    O     O_R   0.499980 0.683210 0.385310 -0.594107
O7    O     O_R   0.686060 0.500050 0.614690 -0.614793
O8    O     O_R   0.686040 0.500010 0.385350 -0.625186
Zn1   Zn    Zn3+2 0.500010 0.500020 0.653130 0.935888
Zn2   Zn    Zn3+2 0.499990 0.499980 0.346870 0.944220

loop_
_geom_bond_atom_site_label_1
_geom_bond_atom_site_label_2
_ccdc_geom_bond_type
C12   C17   S    
O5    Zn1   S    
C15   C18   S    
C20   H15   S    
C23   C24   A    
C16   H1    S    
C2    C27   A    
C11   H22   S    
C14   O7    A    
C9    C10   S    
O6    Zn2   S    
C5    C23   S    
C25   H7    S    
C1    O1    A    
H10   N4    S    
H9    N3    S    
C6    C9    A    
C2    C3    S    
C5    H16   S    
C4    O3    A    
C19   H4    S    
C3    C20   S    
C21   C22   S    
C12   H5    S    
C10   H21   S    
N1    Zn2   S    
N2    Zn1   S    
C14   C17   S    
C26   C27   A    
C16   C21   S    
H11   N4    S    
C15   H3    S    
C20   H14   S    
C7    H18   S    
C12   C19   S    
O7    Zn1   S    
C25   C26   A    
C5    H17   S    
O4    Zn2   S    
O3    Zn1   S    
C6    C11   S    
C1    O2    A    
C20   H13   S    
C8    H19   S    
C7    C8    A    
C10   C11   S    
C18   N3    S    
C15   C16   S    
C26   N4    S    
C10   H20   S    
C19   C22   S    
C21   H6    S    
C24   C25   A    
C11   H2    S    
C1    C24   S    
C17   C18   S    
C18   C19   S    
C8    N2    A    
C2    C23   A    
O8    Zn2   S    
C4    C22   S    
H8    N3    S    
C13   C27   S    
C13   O5    A    
O1    Zn1   S    
C13   O6    A    
C14   O8    A    
C7    N1    A    
C12   C21   S    
C15   C22   S    
C6    N1    A    
C3    H12   S    
C4    O4    A    
O2    Zn2   S    
C16   C17   S    
C3    C5    S    
C9    N2    A    
