data_mof_unit_62754.cif
_audit_creation_date              2012-12-10T17:26:30-0500
_audit_creation_method            fapswitch 2.2
_symmetry_space_group_name_H-M    P1
_symmetry_Int_Tables_number       1
_space_group_crystal_system       monoclinic
_cell_length_a                    42.55215
_cell_length_b                    29.42216
_cell_length_c                    30.738666
_cell_angle_alpha                 90.0
_cell_angle_beta                  136.253059
_cell_angle_gamma                 90.0
_cell_volume                      26610.7575773

loop_
_atom_site_label
_atom_site_type_symbol
_atom_type_description
_atom_site_fract_x
_atom_site_fract_y
_atom_site_fract_z
_atom_type_partial_charge
C1    C     C_R   0.585494 0.500000 0.585944 0.825404
C2    C     C_1   0.999998 0.000000 0.335275 -0.116963
C3    C     C_3   0.524935 0.542792 0.246675 -0.380094
C4    C     C_3   0.024326 0.956859 0.246066 -0.380132
C5    C     C_3   0.025202 0.042635 0.246943 -0.380077
C6    C     C_1   0.500012 0.500000 0.119988 -0.190606
C7    C     C_1   0.000012 1.000000 0.119988 -0.190606
C8    C     C_3   0.500001 0.500000 0.288840 0.333209
C9    C     C_3   0.000001 1.000000 0.288840 0.333208
C10   C     C_3   0.500005 0.500000 0.204775 0.333239
C11   C     C_3   0.000005 1.000000 0.204775 0.333238
C12   C     C_1   0.499994 0.500000 0.373628 -0.189596
C13   C     C_1   0.999994 0.000000 0.373628 -0.189596
C14   C     C_1   0.636539 0.500000 0.636903 -0.206758
C15   C     C_1   0.136539 0.000000 0.636903 -0.206758
C16   C     C_1   0.678860 0.500000 0.679152 0.002179
C17   C     C_1   0.178860 0.000000 0.679152 0.002179
C18   C     C_1   0.729023 0.500000 0.729233 0.003841
C19   C     C_1   0.229023 0.000000 0.729233 0.003841
C20   C     C_1   0.771344 0.500000 0.771488 0.003830
C21   C     C_R   0.085494 0.000000 0.585944 0.825404
C22   C     C_1   0.271344 0.000000 0.771488 0.003830
C23   C     C_1   0.821507 0.500000 0.821581 0.003161
C24   C     C_1   0.321507 0.000000 0.821581 0.003161
C25   C     C_R   0.499989 0.500000 0.418792 0.868231
C26   C     C_R   0.999989 0.000000 0.418792 0.868231
C27   C     C_1   0.863828 0.500000 0.863858 -0.199414
C28   C     C_1   0.363828 0.000000 0.863858 -0.199414
C29   C     C_1   0.499984 0.500000 0.635288 -0.204132
C30   C     C_1   0.999984 0.000000 0.635288 -0.204132
C31   C     C_1   0.499993 0.500000 0.676681 0.012836
C32   C     C_3   0.450482 0.500196 0.172215 -0.377758
C33   C     C_1   0.999993 0.000000 0.676681 0.012836
C34   C     C_1   0.500005 0.500000 0.726116 0.002097
C35   C     C_1   0.000005 0.000000 0.726116 0.002097
C36   C     C_1   0.500014 0.500000 0.767510 0.002084
C37   C     C_1   0.000014 0.000000 0.767510 0.002084
C38   C     C_1   0.500025 0.500000 0.816944 0.012611
C39   C     C_1   0.000025 0.000000 0.816944 0.012611
C40   C     C_1   0.500031 0.500000 0.858333 -0.203266
C41   C     C_1   0.000031 0.000000 0.858333 -0.203266
C42   C     C_1   0.363416 0.500000 0.363770 -0.206768
C43   C     C_3   0.950484 0.000506 0.172218 -0.377759
C44   C     C_1   0.863416 1.000000 0.363770 -0.206768
C45   C     C_1   0.321097 0.500000 0.321383 0.002179
C46   C     C_1   0.821097 1.000000 0.321383 0.002179
C47   C     C_1   0.270936 0.500000 0.271145 0.003867
C48   C     C_1   0.770936 0.000000 0.271145 0.003867
C49   C     C_R   0.414458 0.500000 0.414897 0.825461
C50   C     C_R   0.914458 1.000000 0.414897 0.825461
C51   C     C_1   0.228617 0.500000 0.228766 0.003853
C52   C     C_1   0.728617 1.000000 0.228766 0.003853
C53   C     C_1   0.178457 0.500000 0.178541 0.003169
C54   C     C_3   0.450479 0.500196 0.222345 -0.380890
C55   C     C_1   0.678457 1.000000 0.178541 0.003169
C56   C     C_1   0.136138 0.500000 0.136180 -0.199426
C57   C     C_1   0.636138 0.000000 0.136180 -0.199426
C58   C     C_R   0.500033 0.585446 0.994562 0.825084
C59   C     C_R   0.500033 0.414554 0.994562 0.825083
C60   C     C_R   0.000033 0.085446 0.994562 0.825084
C61   C     C_R   0.000033 0.914554 0.994562 0.825083
C62   C     C_R   0.500018 0.500000 0.074824 0.868395
C63   C     C_R   0.000018 0.000000 0.074824 0.868395
C64   C     C_R   0.500032 0.500000 0.908670 0.812538
C65   C     C_3   0.950481 0.000506 0.222348 -0.380889
C66   C     C_R   0.000032 0.000000 0.908670 0.812538
C67   C     C_R   0.000015 0.414863 0.999130 0.816114
C68   C     C_R   0.000015 0.585137 0.999130 0.816115
C69   C     C_R   0.500015 0.914863 0.999130 0.816114
C70   C     C_R   0.500015 0.085137 0.999130 0.816115
C71   C     C_R   0.914873 0.500000 0.914885 0.816266
C72   C     C_R   0.414873 0.000000 0.914885 0.816266
C73   C     C_R   0.085095 0.500000 0.085119 0.816321
C74   C     C_R   0.585095 0.000000 0.085119 0.816321
C75   C     C_1   0.500047 0.636497 0.995397 -0.207000
C76   C     C_1   0.500009 0.500000 0.158340 -0.116721
C77   C     C_1   0.500047 0.363503 0.995397 -0.207000
C78   C     C_1   0.000047 0.136497 0.995397 -0.207000
C79   C     C_1   0.000047 0.863503 0.995397 -0.207000
C80   C     C_R   0.499975 0.500000 0.584943 0.812679
C81   C     C_R   0.999975 1.000000 0.584943 0.812679
C82   C     C_1   0.500049 0.678819 0.996119 0.002214
C83   C     C_1   0.500049 0.321180 0.996119 0.002214
C84   C     C_1   0.000049 0.178819 0.996119 0.002213
C85   C     C_1   0.000049 0.821180 0.996119 0.002214
C86   C     C_1   0.500046 0.728987 0.996977 0.003769
C87   C     C_1   0.000009 1.000000 0.158340 -0.116721
C88   C     C_1   0.500046 0.271013 0.996977 0.003770
C89   C     C_1   0.000046 0.228987 0.996977 0.003769
C90   C     C_1   0.000046 0.771013 0.996977 0.003770
C91   C     C_1   0.000041 0.271309 0.997674 0.003769
C92   C     C_1   0.000041 0.728690 0.997674 0.003770
C93   C     C_1   0.500041 0.771309 0.997674 0.003769
C94   C     C_1   0.500041 0.228690 0.997674 0.003770
C95   C     C_1   0.000033 0.321479 0.998423 0.003209
C96   C     C_1   0.000033 0.678521 0.998423 0.003209
C97   C     C_1   0.500033 0.821479 0.998423 0.003209
C98   C     C_1   0.499998 0.500000 0.335275 -0.116963
C99   C     C_1   0.500033 0.178521 0.998423 0.003209
C100  C     C_1   0.000026 0.363805 0.998907 -0.199395
C101  C     C_1   0.000026 0.636195 0.998907 -0.199394
C102  C     C_1   0.500026 0.863805 0.998907 -0.199395
C103  C     C_1   0.500026 0.136195 0.998907 -0.199394
C104  C     C_3   0.524933 0.542792 0.296805 -0.378547
C105  C     C_3   0.524593 0.457012 0.296466 -0.378526
C106  C     C_3   0.025200 0.042635 0.297073 -0.378565
C107  C     C_3   0.024324 0.956859 0.296196 -0.378510
C108  C     C_3   0.524596 0.457012 0.246336 -0.380114
Cu1   Cu    Cu3+1 0.499970 0.542470 0.500570 0.957553
Cu2   Cu    Cu3+1 0.499990 1.000000 0.958110 0.962696
Cu3   Cu    Cu3+1 0.999980 0.500000 0.041890 0.959200
Cu4   Cu    Cu3+1 0.499980 0.000000 0.041890 0.959200
Cu5   Cu    Cu3+1 0.499970 0.457530 0.500570 0.957553
Cu6   Cu    Cu3+1 0.999970 0.042470 0.500570 0.957553
Cu7   Cu    Cu3+1 0.999970 0.957530 0.500570 0.957552
Cu8   Cu    Cu3+1 0.542500 0.500000 0.035600 0.957515
Cu9   Cu    Cu3+1 0.042500 1.000000 0.035600 0.957515
Cu10  Cu    Cu3+1 0.457550 0.500000 0.950640 0.957582
Cu11  Cu    Cu3+1 0.957550 1.000000 0.950640 0.957582
Cu12  Cu    Cu3+1 0.999990 0.500000 0.958110 0.962696
H1    H     H_    0.560592 0.543348 0.270210 0.166923
H2    H     H_    0.507836 0.574087 0.217449 0.165628
H3    H     H_    0.006785 0.925810 0.216398 0.165634
H4    H     H_    0.008299 0.074036 0.217913 0.165626
H5    H     H_    0.432174 0.530799 0.141780 0.166537
H6    H     H_    0.431932 0.469739 0.141539 0.166549
H7    H     H_    0.932368 0.031223 0.141975 0.166528
H8    H     H_    0.931744 0.970165 0.141351 0.166559
H9    H     H_    0.507246 0.425854 0.291242 0.167079
H10   H     H_    0.507832 0.574087 0.291829 0.167082
H11   H     H_    0.006781 0.925810 0.290778 0.167076
H12   H     H_    0.560247 0.456174 0.269865 0.166914
H13   H     H_    0.008295 0.074036 0.292292 0.167085
H14   H     H_    0.432169 0.530799 0.216159 0.166195
H15   H     H_    0.431928 0.469739 0.215918 0.166183
H16   H     H_    0.932363 0.031223 0.216354 0.166204
H17   H     H_    0.931740 0.970165 0.215730 0.166173
H18   H     H_    0.060862 0.042968 0.270479 0.166930
H19   H     H_    0.059972 0.955798 0.269589 0.166909
H20   H     H_    0.560588 0.543347 0.344589 0.165808
H21   H     H_    0.560243 0.456175 0.344244 0.165817
H22   H     H_    0.060858 0.042967 0.344859 0.165802
H23   H     H_    0.059968 0.955799 0.343969 0.165824
H24   H     H_    0.507250 0.425853 0.216863 0.165631
O1    O     O_R   0.561950 0.535860 0.562460 -0.561743
O2    O     O_R   0.500010 0.061990 0.963800 -0.558046
O3    O     O_R   0.000000 0.438000 0.034540 -0.559161
O4    O     O_R   0.000000 0.562000 0.034540 -0.559161
O5    O     O_R   0.500000 0.938000 0.034540 -0.559161
O6    O     O_R   0.500000 0.062000 0.034540 -0.559161
O7    O     O_R   0.938010 0.500000 0.902650 -0.558214
O8    O     O_R   0.438010 1.000000 0.902650 -0.558214
O9    O     O_R   0.938010 0.500000 0.973390 -0.559067
O10   O     O_R   0.438010 1.000000 0.973390 -0.559067
O11   O     O_R   0.061960 0.500000 0.026610 -0.558134
O12   O     O_R   0.561950 0.464140 0.562460 -0.561744
O13   O     O_R   0.561960 1.000000 0.026610 -0.558134
O14   O     O_R   0.061960 0.500000 0.097350 -0.559038
O15   O     O_R   0.561960 1.000000 0.097350 -0.559038
O16   O     O_R   0.499980 0.535870 0.439370 -0.577638
O17   O     O_R   0.499980 0.464130 0.439370 -0.577638
O18   O     O_R   0.999980 0.035870 0.439370 -0.577638
O19   O     O_R   0.999980 0.964130 0.439370 -0.577638
O20   O     O_R   0.438000 0.535860 0.438500 -0.561745
O21   O     O_R   0.438000 0.464140 0.438500 -0.561745
O22   O     O_R   0.938000 0.035860 0.438500 -0.561745
O23   O     O_R   0.061950 0.035860 0.562460 -0.561743
O24   O     O_R   0.938000 0.964140 0.438500 -0.561745
O25   O     O_R   0.499970 0.535850 0.561590 -0.557395
O26   O     O_R   0.499970 0.464150 0.561590 -0.557395
O27   O     O_R   0.999970 0.035850 0.561590 -0.557395
O28   O     O_R   0.999970 0.964150 0.561590 -0.557395
O29   O     O_R   0.535890 0.561890 0.029840 -0.561491
O30   O     O_R   0.535890 0.438110 0.029840 -0.561491
O31   O     O_R   0.035890 0.061890 0.029840 -0.561492
O32   O     O_R   0.035890 0.938110 0.029840 -0.561491
O33   O     O_R   0.464160 0.561920 0.958100 -0.561590
O34   O     O_R   0.061950 0.964140 0.562460 -0.561744
O35   O     O_R   0.464160 0.438080 0.958100 -0.561589
O36   O     O_R   0.964160 0.061920 0.958100 -0.561590
O37   O     O_R   0.964160 0.938080 0.958100 -0.561589
O38   O     O_R   0.535890 0.500000 0.090110 -0.576346
O39   O     O_R   0.035890 1.000000 0.090110 -0.576346
O40   O     O_R   0.464150 0.500000 0.018360 -0.576392
O41   O     O_R   0.964150 1.000000 0.018360 -0.576392
O42   O     O_R   0.535900 0.500000 0.967880 -0.558510
O43   O     O_R   0.035900 0.000000 0.967880 -0.558510
O44   O     O_R   0.464160 0.500000 0.896130 -0.558529
O45   O     O_R   0.964160 1.000000 0.896130 -0.558529
O46   O     O_R   0.000010 0.438010 0.963800 -0.558045
O47   O     O_R   0.000010 0.561990 0.963800 -0.558046
O48   O     O_R   0.500010 0.938010 0.963800 -0.558045

loop_
_geom_bond_atom_site_label_1
_geom_bond_atom_site_label_2
_ccdc_geom_bond_type
C3    C104  S    
C32   H5    S    
C99   C103  T    
Cu4   O15   S    
C1    O1    A    
C70   O6    A    
C80   O26   A    
C59   O30   A    
C8    C105  S    
C59   C77   S    
Cu6   Cu7   S    
C67   O46   A    
Cu6   O23   S    
C39   C41   T    
C69   C102  S    
C5    H4    S    
C60   C78   S    
C74   O15   A    
C10   C32   S    
C35   C37   T    
Cu3   O14   S    
C5    C11   S    
Cu2   O8    S    
Cu9   Cu11  S    
C105  H21   S    
Cu6   O18   S    
C3    H2    S    
C77   C83   T    
C54   H14   S    
C66   O45   A    
C26   O19   A    
C92   C96   S    
C62   O40   A    
Cu11  O37   S    
C81   O28   A    
C32   H6    S    
C2    C13   T    
C8    C98   S    
C49   O20   A    
C17   C19   S    
C10   C76   S    
C106  H13   S    
C7    C87   T    
Cu12  O46   S    
C11   C87   S    
C72   O8    A    
Cu8   O38   S    
C50   O22   A    
C11   C43   S    
C70   O2    A    
C14   C16   T    
C23   C27   T    
C89   C91   T    
C12   C98   T    
C97   C102  T    
C68   O4    A    
C52   C55   S    
Cu1   Cu5   S    
C65   H17   S    
Cu10  O35   S    
Cu9   O31   S    
C83   C88   S    
C30   C33   T    
C38   C40   T    
Cu4   O10   S    
C96   C101  T    
C28   C72   S    
C61   O32   A    
C80   O25   A    
C69   O48   A    
C32   C54   S    
C4    C107  S    
C44   C46   T    
C58   C75   S    
C106  H22   S    
C46   C48   S    
C5    C106  S    
C45   C47   S    
Cu6   O27   S    
C105  C108  S    
C88   C94   T    
C63   O39   A    
C10   C108  S    
C65   H16   S    
C24   C28   T    
C5    H18   S    
C19   C22   T    
C72   O10   A    
C68   C101  S    
C107  H11   S    
Cu9   O43   S    
Cu12  O47   S    
C43   H7    S    
Cu10  O44   S    
C95   C100  T    
C105  H9    S    
C68   O47   A    
C63   O41   A    
C9    C106  S    
C82   C86   S    
Cu5   O17   S    
C73   O14   A    
C26   O18   A    
Cu12  O11   S    
C104  H20   S    
C4    H3    S    
Cu3   Cu12  S    
C51   C53   S    
C42   C45   T    
C57   C74   S    
C1    O12   A    
Cu11  O41   S    
C49   O21   A    
C86   C93   T    
Cu3   O3    S    
C62   O38   A    
C8    C104  S    
C90   C92   T    
C20   C23   S    
C48   C52   T    
C43   C65   S    
Cu6   O22   S    
C66   O43   A    
C73   O11   A    
C25   O16   A    
C31   C34   S    
C4    C11   S    
Cu3   O9    S    
C7    C63   S    
C64   O44   A    
Cu2   O13   S    
C71   O7    A    
C67   C100  S    
Cu8   O29   S    
Cu9   O32   S    
C16   C18   S    
C21   O34   A    
C25   O17   A    
C55   C57   T    
C50   O24   A    
C22   C24   S    
C13   C26   S    
C58   O29   A    
C9    C107  S    
Cu11  O36   S    
Cu5   O12   S    
C8    C54   S    
C93   C97   S    
C108  H24   S    
C27   C71   S    
Cu1   O25   S    
C53   C56   T    
C44   C50   S    
C15   C17   T    
Cu12  O7    S    
C9    C65   S    
C56   C73   S    
C74   O13   A    
Cu4   O6    S    
C70   C103  S    
Cu1   O1    S    
Cu11  O45   S    
Cu5   O21   S    
Cu7   O28   S    
Cu1   O20   S    
C40   C64   S    
C43   H8    S    
Cu5   O26   S    
C47   C51   T    
C85   C90   S    
Cu9   O39   S    
C75   C82   T    
C6    C76   T    
C41   C66   S    
Cu10  O40   S    
C60   O36   A    
C61   O37   A    
C21   O23   A    
Cu8   O30   S    
C12   C25   S    
C69   O5    A    
C6    C62   S    
C30   C81   S    
C59   O35   A    
C37   C39   S    
C3    C10   S    
Cu3   O4    S    
C4    H19   S    
C67   O3    A    
Cu1   O16   S    
C29   C80   S    
Cu8   O42   S    
C94   C99   S    
C61   C79   S    
C54   H15   S    
C36   C38   S    
C33   C35   S    
C79   C85   T    
Cu8   Cu10  S    
C58   O33   A    
C18   C20   T    
C81   O27   A    
Cu7   O19   S    
Cu2   Cu4   S    
C108  H12   S    
Cu7   O34   S    
C42   C49   S    
C91   C95   S    
Cu10  O33   S    
C78   C84   T    
C15   C21   S    
C34   C36   T    
C29   C31   T    
C84   C89   S    
C60   O31   A    
Cu4   O5    S    
C104  H10   S    
C1    C14   S    
Cu2   O48   S    
Cu7   O24   S    
Cu2   O2    S    
C2    C9    S    
C107  H23   S    
C64   O42   A    
C3    H1    S    
C71   O9    A    
