data_mof_unit_26848.cif
_audit_creation_date              2012-12-10T18:40:39-0500
_audit_creation_method            fapswitch 2.2
_symmetry_space_group_name_H-M    P1
_symmetry_Int_Tables_number       1
_space_group_crystal_system       triclinic
_cell_length_a                    21.237507
_cell_length_b                    21.310751
_cell_length_c                    13.865026
_cell_angle_alpha                 89.897218
_cell_angle_beta                  89.909951
_cell_angle_gamma                 90.081679
_cell_volume                      6275.10937325

loop_
_atom_site_label
_atom_site_type_symbol
_atom_type_description
_atom_site_fract_x
_atom_site_fract_y
_atom_site_fract_z
_atom_type_partial_charge
C1    C     C_R   0.084782 0.414770 0.500031 0.842331
C2    C     C_R   0.183962 0.722232 0.420392 0.438522
C3    C     C_3   0.225561 0.105240 0.692063 -0.779692
C4    C     C_3   0.180564 0.892199 0.602600 0.054157
C5    C     C_3   0.154554 0.956200 0.571888 -0.341768
C6    C     C_3   0.092375 0.950114 0.517429 -0.740696
C7    C     C_3   0.700653 0.263448 0.284757 0.063963
C8    C     C_3   0.709472 0.323583 0.225927 -0.354927
C9    C     C_3   0.759315 0.366548 0.270124 -0.745909
C10   C     C_3   0.776660 0.143516 0.715267 0.072122
C11   C     C_3   0.800340 0.076831 0.735190 -0.350791
C12   C     C_3   0.871366 0.071177 0.720144 -0.767977
C13   C     C_R   0.219825 0.687081 0.578748 0.446173
C14   C     C_3   0.400596 0.684581 0.406911 0.069111
C15   C     C_3   0.396561 0.617668 0.367721 -0.322353
C16   C     C_3   0.337953 0.608080 0.305781 -0.824953
C17   C     C_3   0.817875 0.890382 0.596439 0.072251
C18   C     C_3   0.886572 0.884754 0.628284 -0.330319
C19   C     C_3   0.923190 0.838004 0.566495 -0.796556
C20   C     C_3   0.351391 0.275635 0.711308 0.064788
C21   C     C_3   0.417704 0.301493 0.729279 -0.361374
C22   C     C_3   0.420895 0.372472 0.714667 -0.733723
C23   C     C_3   0.222464 0.182615 0.294130 0.072923
C24   C     C_R   0.838595 0.258831 0.455691 0.456333
C25   C     C_3   0.159530 0.189359 0.241662 -0.337971
C26   C     C_3   0.118943 0.241231 0.285397 -0.785860
C27   C     C_3   0.604923 0.683261 0.401323 0.057666
C28   C     C_3   0.608744 0.615046 0.367772 -0.327231
C29   C     C_3   0.654573 0.576674 0.428819 -0.775080
C30   C     C_R   0.236098 0.329794 0.451608 0.450305
C31   C     C_R   0.784548 0.690818 0.584121 0.444545
C32   C     C_R   0.806804 0.712981 0.414617 0.444354
C33   C     C_R   0.167383 0.263149 0.549782 0.434466
C34   C     C_R   0.256882 0.839167 0.513731 0.442534
C35   C     C_R   0.681234 0.226253 0.435466 0.433432
C36   C     C_R   0.735558 0.168450 0.563289 0.452391
C37   C     C_R   0.914724 0.585056 0.499972 0.851609
C38   C     C_R   0.337124 0.758426 0.484435 0.439941
C39   C     C_R   0.733016 0.827816 0.556191 0.433615
C40   C     C_R   0.326139 0.231507 0.562086 0.452320
C41   C     C_R   0.266134 0.171758 0.442809 0.429166
C42   C     C_R   0.669676 0.766077 0.442994 0.440735
C43   C     C_R   0.811357 0.373711 0.547249 -0.314925
C44   C     C_R   0.137992 0.675487 0.421123 -0.299562
C45   C     C_R   0.174058 0.640146 0.578252 -0.301447
C46   C     C_R   0.883069 0.307767 0.456278 -0.322683
C47   C     C_R   0.189596 0.376502 0.452240 -0.308700
C48   C     C_R   0.915226 0.414792 0.500154 0.842662
C49   C     C_R   0.832153 0.645989 0.584451 -0.306283
C50   C     C_R   0.852494 0.666214 0.414813 -0.304013
C51   C     C_R   0.121370 0.309778 0.548780 -0.321116
C52   C     C_R   0.303991 0.885121 0.511798 -0.326665
C53   C     C_R   0.633034 0.181869 0.436078 -0.307891
C54   C     C_R   0.686868 0.123726 0.561940 -0.323192
C55   C     C_R   0.383725 0.805198 0.487694 -0.357580
C56   C     C_R   0.685372 0.873046 0.558955 -0.340970
C57   C     C_R   0.372939 0.185082 0.559627 -0.311538
C58   C     C_R   0.312831 0.125791 0.442135 -0.325921
C59   C     C_R   0.085062 0.585287 0.499885 0.848394
C60   C     C_R   0.625232 0.814447 0.440646 -0.352602
C61   C     C_R   0.868926 0.364860 0.500673 -0.130249
C62   C     C_R   0.133139 0.634204 0.499625 -0.157576
C63   C     C_R   0.132564 0.366218 0.500173 -0.132404
C64   C     C_R   0.865868 0.633131 0.499800 -0.167370
C65   C     C_R   0.366752 0.867758 0.500254 -0.108180
C66   C     C_R   0.635651 0.131031 0.499614 -0.138543
C67   C     C_R   0.632601 0.866780 0.499911 -0.118108
C68   C     C_R   0.366084 0.132600 0.500291 -0.134481
C69   C     C_R   0.986912 0.554861 0.107801 -0.283242
C70   C     C_R   0.584919 0.915084 0.499999 0.842074
C71   C     C_R   0.986054 0.445261 0.892266 -0.288839
C72   C     C_R   0.013094 0.445073 0.108079 -0.290837
C73   C     C_R   0.013993 0.554679 0.891932 -0.284837
C74   C     C_R   0.486768 0.054832 0.107783 -0.291566
C75   C     C_R   0.485901 0.945275 0.892243 -0.287177
C76   C     C_R   0.513111 0.945091 0.108046 -0.286479
C77   C     C_R   0.513976 0.054674 0.891926 -0.292233
C78   C     C_R   0.780479 0.268514 0.502096 -0.001560
C79   C     C_R   0.225046 0.727793 0.499334 -0.015194
C80   C     C_R   0.224730 0.273434 0.501489 -0.002393
C81   C     C_R   0.414616 0.084682 0.499996 0.840822
C82   C     C_R   0.772398 0.724975 0.499305 -0.033832
C83   C     C_R   0.273919 0.776121 0.499007 0.003568
C84   C     C_R   0.732092 0.219645 0.499470 0.001013
C85   C     C_R   0.724110 0.773805 0.499519 0.002842
C86   C     C_R   0.273134 0.224627 0.502359 -0.001687
C87   C     C_R   0.987618 0.553963 0.209258 0.083293
C88   C     C_R   0.986767 0.446188 0.790793 0.079346
C89   C     C_R   0.012388 0.446011 0.209538 0.079293
C90   C     C_R   0.013256 0.553791 0.790475 0.081265
C91   C     C_R   0.487500 0.053935 0.209247 0.078184
C92   C     C_R   0.414926 0.915367 0.500101 0.842075
C93   C     C_R   0.486650 0.946202 0.790777 0.084710
C94   C     C_R   0.512457 0.946034 0.209516 0.086919
C95   C     C_R   0.513280 0.053790 0.790473 0.074120
C96   C     C_R   0.000007 0.499961 0.054705 0.132785
C97   C     C_R   0.000020 0.499963 0.945338 0.135153
C98   C     C_R   0.499929 0.999956 0.054680 0.132955
C99   C     C_R   0.499936 0.999964 0.945316 0.135991
C100  C     C_3   0.712847 0.324836 0.689909 0.066264
C101  C     C_3   0.646754 0.321463 0.733567 -0.337877
C102  C     C_3   0.609718 0.265119 0.695840 -0.776661
C103  C     C_R   0.585458 0.084676 0.499882 0.843145
C104  C     C_3   0.227140 0.742796 0.273734 0.050975
C105  C     C_3   0.239700 0.794640 0.199824 -0.355451
C106  C     C_3   0.275087 0.849897 0.244455 -0.744777
C107  C     C_3   0.233872 0.727496 0.728660 0.063304
C108  C     C_3   0.284098 0.746236 0.802142 -0.343885
C109  C     C_3   0.333910 0.789424 0.757858 -0.761619
C110  C     C_3   0.882499 0.201179 0.328334 0.059351
C111  C     C_3   0.950378 0.177413 0.337302 -0.347698
C112  C     C_3   0.953063 0.109778 0.373724 -0.737181
C113  C     C_3   0.291753 0.360162 0.314250 0.064801
C114  C     C_R   0.766919 0.325565 0.548458 0.432795
C115  C     C_3   0.322116 0.424971 0.303697 -0.356403
C116  C     C_3   0.391747 0.424140 0.331337 -0.741334
C117  C     C_3   0.698414 0.663732 0.671828 0.056663
C118  C     C_3   0.654371 0.685189 0.752563 -0.343150
C119  C     C_3   0.627520 0.750446 0.732849 -0.747203
C120  C     C_3   0.833861 0.798067 0.325059 0.056758
C121  C     C_3   0.812391 0.841182 0.243295 -0.345952
C122  C     C_3   0.746906 0.868137 0.262299 -0.742200
C123  C     C_3   0.169191 0.209872 0.691844 0.073911
C124  C     C_3   0.171868 0.143863 0.735095 -0.346717
Cu1   Cu    Cu3+1 1.000000 0.500000 0.596430 0.931806
Cu2   Cu    Cu3+1 1.000000 0.500000 0.403570 0.929748
Cu3   Cu    Cu3+1 0.500000 1.000000 0.596430 0.925552
Cu4   Cu    Cu3+1 0.500000 1.000000 0.403570 0.929156
H1    H     H_    0.975281 0.598355 0.071751 0.128117
H2    H     H_    0.976414 0.403553 0.751695 0.120350
H3    H     H_    0.337788 0.641720 0.244522 0.222560
H4    H     H_    0.795587 0.927864 0.640361 0.108144
H5    H     H_    0.816850 0.904729 0.518990 0.114122
H6    H     H_    0.909584 0.931487 0.622497 0.164087
H7    H     H_    0.888327 0.869688 0.705031 0.223359
H8    H     H_    0.900816 0.790885 0.569229 0.276672
H9    H     H_    0.972069 0.833938 0.594083 0.227864
H10   H     H_    0.925282 0.854463 0.490537 0.220939
H11   H     H_    0.349062 0.225453 0.734114 0.073690
H12   H     H_    0.317766 0.300684 0.759073 0.144175
H13   H     H_    0.022082 0.403248 0.248897 0.118419
H14   H     H_    0.431860 0.290288 0.804492 0.159959
H15   H     H_    0.451814 0.278762 0.679789 0.208226
H16   H     H_    0.409036 0.384903 0.639010 0.283232
H17   H     H_    0.469379 0.389233 0.730066 0.214433
H18   H     H_    0.387710 0.396493 0.764338 0.229305
H19   H     H_    0.251070 0.146627 0.255990 0.102448
H20   H     H_    0.247702 0.228491 0.290121 0.114595
H21   H     H_    0.168720 0.200681 0.164630 0.154128
H22   H     H_    0.133431 0.144144 0.244864 0.219540
H23   H     H_    0.105885 0.229325 0.360820 0.284942
H24   H     H_    0.023624 0.596442 0.751145 0.120988
H25   H     H_    0.075091 0.246492 0.242702 0.207053
H26   H     H_    0.144589 0.286675 0.284387 0.228882
H27   H     H_    0.567960 0.706912 0.357804 0.094887
H28   H     H_    0.590471 0.683864 0.478758 0.110538
H29   H     H_    0.561203 0.593375 0.372707 0.154948
H30   H     H_    0.623978 0.613725 0.291062 0.224881
H31   H     H_    0.702509 0.597565 0.426367 0.273030
H32   H     H_    0.657139 0.528070 0.400373 0.236529
H33   H     H_    0.638090 0.574544 0.504789 0.217485
H34   H     H_    0.800581 0.418172 0.581289 0.156873
H35   H     H_    0.477748 0.096687 0.248385 0.120043
H36   H     H_    0.105709 0.672052 0.360911 0.169318
H37   H     H_    0.171011 0.608110 0.638864 0.173400
H38   H     H_    0.929069 0.301530 0.424158 0.140351
H39   H     H_    0.198205 0.421226 0.417419 0.149986
H40   H     H_    0.841863 0.620680 0.650598 0.182190
H41   H     H_    0.878084 0.656698 0.348795 0.173077
H42   H     H_    0.076743 0.301631 0.584738 0.157052
H43   H     H_    0.291943 0.934257 0.518799 0.141740
H44   H     H_    0.593177 0.187689 0.388185 0.162035
H45   H     H_    0.689071 0.082617 0.607650 0.148816
H46   H     H_    0.476210 0.903579 0.751685 0.124057
H47   H     H_    0.433123 0.793483 0.480963 0.125982
H48   H     H_    0.689756 0.913516 0.605606 0.151511
H49   H     H_    0.415312 0.190118 0.602103 0.147023
H50   H     H_    0.307025 0.084453 0.397595 0.162518
H51   H     H_    0.584500 0.811042 0.394054 0.143794
H52   H     H_    0.522239 0.903293 0.248869 0.116752
H53   H     H_    0.523679 0.096446 0.751152 0.118692
H54   H     H_    0.738551 0.364377 0.724507 0.102000
H55   H     H_    0.737909 0.280199 0.707003 0.121457
H56   H     H_    0.650760 0.317551 0.813270 0.154952
H57   H     H_    0.973739 0.401912 0.928352 0.122584
H58   H     H_    0.620691 0.365307 0.716597 0.220023
H59   H     H_    0.602261 0.269246 0.616824 0.285521
H60   H     H_    0.563096 0.263149 0.731954 0.210326
H61   H     H_    0.635175 0.220828 0.711590 0.224649
H62   H     H_    0.273205 0.727966 0.304363 0.144876
H63   H     H_    0.205437 0.702126 0.235930 0.105786
H64   H     H_    0.268394 0.775141 0.139859 0.159386
H65   H     H_    0.194320 0.811372 0.169408 0.219295
H66   H     H_    0.246194 0.872205 0.301703 0.286942
H67   H     H_    0.285204 0.885508 0.187959 0.218100
H68   H     H_    0.024723 0.401565 0.072247 0.122683
H69   H     H_    0.320432 0.833936 0.275889 0.231768
H70   H     H_    0.197252 0.699187 0.766409 0.100734
H71   H     H_    0.211544 0.771157 0.700392 0.115754
H72   H     H_    0.261065 0.770991 0.863211 0.156263
H73   H     H_    0.307232 0.703408 0.831043 0.219987
H74   H     H_    0.359791 0.764823 0.699499 0.283496
H75   H     H_    0.368221 0.803543 0.814160 0.213206
H76   H     H_    0.311656 0.832392 0.728037 0.228046
H77   H     H_    0.881954 0.248010 0.292379 0.072851
H78   H     H_    0.856500 0.169485 0.278813 0.143997
H79   H     H_    0.026334 0.598013 0.927740 0.123450
H80   H     H_    0.973311 0.179826 0.265295 0.162827
H81   H     H_    0.977494 0.207780 0.387252 0.211691
H82   H     H_    0.932648 0.106282 0.447356 0.278011
H83   H     H_    0.002872 0.094090 0.376689 0.224310
H84   H     H_    0.926764 0.078233 0.324375 0.224811
H85   H     H_    0.243218 0.361400 0.283615 0.073847
H86   H     H_    0.318342 0.326214 0.269177 0.139542
H87   H     H_    0.317750 0.440686 0.227528 0.161609
H88   H     H_    0.296893 0.459201 0.350050 0.213996
H89   H     H_    0.397364 0.411340 0.408540 0.283497
H90   H     H_    0.475066 0.098305 0.071723 0.122285
H91   H     H_    0.412490 0.471410 0.319883 0.213829
H92   H     H_    0.417823 0.389968 0.286003 0.231047
H93   H     H_    0.713255 0.614637 0.687167 0.104732
H94   H     H_    0.671525 0.664358 0.602903 0.128515
H95   H     H_    0.614781 0.651255 0.758916 0.162492
H96   H     H_    0.680244 0.685583 0.822186 0.223661
H97   H     H_    0.665779 0.785995 0.732445 0.288630
H98   H     H_    0.593403 0.762929 0.790432 0.215839
H99   H     H_    0.602757 0.751409 0.662320 0.225857
H100  H     H_    0.883029 0.782889 0.309895 0.103785
H101  H     H_    0.473503 0.901944 0.928324 0.124053
H102  H     H_    0.833441 0.825575 0.393294 0.128355
H103  H     H_    0.846464 0.880556 0.236074 0.161536
H104  H     H_    0.812010 0.814722 0.174283 0.222954
H105  H     H_    0.711207 0.830036 0.263443 0.286925
H106  H     H_    0.734443 0.901621 0.203965 0.218608
H107  H     H_    0.745903 0.893430 0.332300 0.228961
H108  H     H_    0.131618 0.236694 0.729611 0.102050
H109  H     H_    0.215306 0.233429 0.705298 0.119819
H110  H     H_    0.178914 0.147586 0.814294 0.156998
H111  H     H_    0.126423 0.119349 0.722186 0.218975
H112  H     H_    0.524781 0.901605 0.072181 0.127008
H113  H     H_    0.218073 0.098060 0.613613 0.281867
H114  H     H_    0.227290 0.058586 0.727711 0.212639
H115  H     H_    0.271393 0.129231 0.703486 0.232901
H116  H     H_    0.221533 0.899412 0.651673 0.077456
H117  H     H_    0.144339 0.867620 0.646594 0.141258
H118  H     H_    0.146624 0.985222 0.637284 0.172577
H119  H     H_    0.189405 0.980876 0.525528 0.214647
H120  H     H_    0.099101 0.922873 0.449986 0.281606
H121  H     H_    0.074760 0.997543 0.498156 0.225769
H122  H     H_    0.056520 0.926423 0.563211 0.227654
H123  H     H_    0.526332 0.098001 0.927750 0.122197
H124  H     H_    0.746909 0.238825 0.288924 0.124199
H125  H     H_    0.666638 0.232705 0.246118 0.103715
H126  H     H_    0.724206 0.311019 0.151476 0.156535
H127  H     H_    0.663952 0.349102 0.221489 0.221373
H128  H     H_    0.744939 0.381469 0.343621 0.282513
H129  H     H_    0.764988 0.409070 0.224539 0.223029
H130  H     H_    0.805350 0.342059 0.274184 0.226070
H131  H     H_    0.726157 0.147448 0.736406 0.071639
H132  H     H_    0.802198 0.176481 0.763374 0.140237
H133  H     H_    0.788940 0.064100 0.811003 0.166661
H134  H     H_    0.977942 0.596732 0.248400 0.113809
H135  H     H_    0.776080 0.042904 0.687272 0.194664
H136  H     H_    0.883792 0.080267 0.643521 0.279227
H137  H     H_    0.886753 0.022964 0.739197 0.206885
H138  H     H_    0.896795 0.105007 0.766925 0.233787
H139  H     H_    0.446503 0.689449 0.444648 0.097842
H140  H     H_    0.399161 0.717880 0.344706 0.115129
H141  H     H_    0.438971 0.608095 0.323055 0.152279
H142  H     H_    0.396000 0.583693 0.428656 0.229202
H143  H     H_    0.294633 0.614371 0.349718 0.268622
H144  H     H_    0.337917 0.559943 0.275723 0.230610
N1    N     N_R   1.000000 0.500000 0.258690 -0.169365
N2    N     N_R   1.000000 0.500000 0.741310 -0.170706
N3    N     N_R   0.500000 1.000000 0.258690 -0.169702
N4    N     N_R   0.500000 1.000000 0.741310 -0.169584
O1    O     O_R   0.064280 0.435730 0.581430 -0.577653
O2    O     O_R   0.435720 0.064270 0.418570 -0.592723
O3    O     O_R   0.435720 0.064270 0.581430 -0.583043
O4    O     O_R   0.564280 0.935730 0.418570 -0.591120
O5    O     O_R   0.435720 0.935730 0.418570 -0.583732
O6    O     O_R   0.564280 0.064270 0.581430 -0.596744
O7    O     O_R   0.564280 0.064270 0.418570 -0.580140
O8    O     O_R   0.435720 0.935730 0.581430 -0.590017
O9    O     O_3   0.708436 0.335379 0.589561 -0.567087
O10   O     O_3   0.185807 0.765192 0.345645 -0.562649
O11   O     O_3   0.261674 0.691365 0.654693 -0.562010
O12   O     O_R   0.935720 0.564270 0.418570 -0.593123
O13   O     O_3   0.851803 0.199462 0.419158 -0.574008
O14   O     O_3   0.295205 0.339969 0.411514 -0.570215
O15   O     O_3   0.751796 0.703261 0.668132 -0.552272
O16   O     O_3   0.793896 0.745157 0.330324 -0.552472
O17   O     O_3   0.154967 0.205856 0.592598 -0.565033
O18   O     O_3   0.193540 0.854857 0.520374 -0.569711
O19   O     O_3   0.676733 0.278569 0.376906 -0.567451
O20   O     O_3   0.789674 0.161062 0.618609 -0.574002
O21   O     O_3   0.350926 0.694900 0.473169 -0.568596
O22   O     O_3   0.786531 0.832739 0.613140 -0.561769
O23   O     O_R   0.935720 0.564270 0.581430 -0.586113
O24   O     O_3   0.333166 0.286683 0.614445 -0.571490
O25   O     O_3   0.211565 0.163331 0.390198 -0.565773
O26   O     O_3   0.663671 0.713019 0.385698 -0.558759
O27   O     O_R   0.064280 0.435730 0.418570 -0.595257
O28   O     O_R   0.935720 0.435730 0.418570 -0.578972
O29   O     O_R   0.064280 0.564270 0.581430 -0.593971
O30   O     O_R   0.064280 0.564270 0.418570 -0.587054
O31   O     O_R   0.935720 0.435730 0.581430 -0.594342
O32   O     O_R   0.564280 0.935730 0.581430 -0.583146

loop_
_geom_bond_atom_site_label_1
_geom_bond_atom_site_label_2
_ccdc_geom_bond_type
C37   O23   A    
C65   C92   S    
C79   C83   S    
C13   C79   A    
C108  H72   S    
C101  C102  S    
C121  H103  S    
C22   H16   S    
Cu2   O12   S    
C38   C83   A    
C35   C53   A    
C50   C64   A    
C93   H46   S    
C117  H93   S    
C111  C112  S    
C39   O22   S    
C113  H85   S    
C5    H118  S    
C69   C96   A    
C37   C64   S    
C124  H110  S    
C119  H99   S    
C123  C124  S    
C106  H66   S    
C123  H109  S    
C14   H139  S    
C60   H51   S    
C73   C97   A    
C41   C86   A    
C71   C97   A    
C119  H97   S    
C108  H73   S    
C31   C82   A    
C56   H48   S    
C14   O21   S    
C68   C81   S    
C112  H84   S    
C27   O26   S    
C6    H120  S    
C26   H23   S    
C31   C49   A    
C41   C58   A    
Cu2   O30   S    
C9    H129  S    
C19   H10   S    
C43   C114  A    
C47   C63   A    
C5    C6    S    
Cu1   O23   S    
C31   O15   S    
C72   H68   S    
C10   H131  S    
C76   C98   A    
C115  C116  S    
C11   C12   S    
C45   C62   A    
C102  H61   S    
C70   O4    A    
C108  C109  S    
C52   H43   S    
Cu3   O8    S    
C25   H21   S    
C18   C19   S    
C12   H136  S    
C40   C86   A    
C75   H101  S    
C16   H3    S    
C88   N2    A    
C118  C119  S    
C100  C101  S    
C74   C98   A    
C80   C86   S    
C2    C79   A    
C57   H49   S    
C53   H44   S    
C55   C65   A    
C34   O18   S    
C90   N2    A    
C13   O11   S    
C23   H20   S    
C38   C55   A    
C22   H18   S    
C60   C67   A    
C2    C44   A    
C8    C9    S    
C75   C99   A    
C107  C108  S    
C51   H42   S    
C77   C99   A    
C44   H36   S    
C77   H123  S    
C88   H2    S    
C13   C45   A    
C110  H77   S    
C15   H142  S    
C100  H54   S    
Cu3   N4    S    
C103  O6    A    
C24   O13   S    
C69   C87   A    
C32   C50   A    
C25   C26   S    
C30   C80   A    
C23   C25   S    
C122  H107  S    
C73   H79   S    
C49   C64   A    
C3    H113  S    
C21   C22   S    
C7    H125  S    
C17   H4    S    
C89   N1    A    
C105  H64   S    
C91   H35   S    
C117  H94   S    
C78   C114  A    
C113  H86   S    
C71   H57   S    
C114  O9    S    
C1    C63   S    
C37   O12   A    
C103  O7    A    
C104  C105  S    
C16   H144  S    
C14   H140  S    
C70   O32   A    
C29   H32   S    
Cu1   N2    S    
C109  H76   S    
C27   H27   S    
C15   C16   S    
Cu2   O27   S    
C46   C61   A    
C118  H96   S    
C81   O2    A    
C112  H83   S    
C29   H33   S    
C30   C47   A    
C7    C8    S    
Cu4   O2    S    
C51   C63   A    
C21   H15   S    
C49   H40   S    
C29   H31   S    
C42   C60   A    
C94   N3    A    
C124  H111  S    
C7    O19   S    
C12   H137  S    
C3    H115  S    
C44   C62   A    
C113  O14   S    
C104  H63   S    
C23   H19   S    
C100  O9    S    
C77   C95   A    
C43   C61   A    
C102  H60   S    
C95   N4    A    
C110  C111  S    
C82   C85   S    
C25   H22   S    
C3    H114  S    
C112  H82   S    
C74   C91   A    
Cu1   O31   S    
C107  O11   S    
C111  H81   S    
Cu4   N3    S    
C1    O1    A    
C92   O5    A    
C23   O25   S    
C6    H122  S    
C100  H55   S    
C47   H39   S    
Cu4   O5    S    
C39   C56   A    
C22   H17   S    
C40   O24   S    
C19   H9    S    
C104  H62   S    
C96   C97   S    
C74   H90   S    
C28   H30   S    
C17   C18   S    
C120  C121  S    
C115  H87   S    
C18   H7    S    
C110  H78   S    
C42   C85   A    
C94   H52   S    
C116  H91   S    
C53   C66   A    
C87   H134  S    
C55   H47   S    
C121  C122  S    
C101  H56   S    
C93   N4    A    
C106  H69   S    
C32   O16   S    
C90   H24   S    
C122  H106  S    
C110  O13   S    
C11   H135  S    
C17   H5    S    
Cu1   Cu2   S    
C10   H132  S    
C26   H26   S    
C9    H128  S    
C116  H92   S    
C34   C83   A    
C120  O16   S    
C57   C68   A    
C120  H102  S    
Cu3   Cu4   S    
C123  O17   S    
C117  O15   S    
C59   O29   A    
C16   H143  S    
C3    C124  S    
C54   H45   S    
C10   O20   S    
C35   O19   S    
C42   O26   S    
C24   C78   A    
C27   H28   S    
C120  H100  S    
C17   O22   S    
C109  H74   S    
C59   C62   S    
C41   O25   S    
C40   C57   A    
C46   H38   S    
C6    H121  S    
C118  H95   S    
C5    H119  S    
Cu3   O6    S    
C66   C103  S    
Cu2   N1    S    
C48   O31   A    
C95   H53   S    
C28   C29   S    
C4    O18   S    
C4    C5    S    
C48   O28   A    
C21   H14   S    
C107  H70   S    
C35   C84   A    
C33   C80   A    
C106  H67   S    
C54   C66   A    
C76   C94   A    
C33   C51   A    
C56   C67   A    
C32   C82   A    
C105  C106  S    
C8    H127  S    
C34   C52   A    
C102  H59   S    
C2    O10   S    
C7    H124  S    
C76   H112  S    
C67   C70   S    
C24   C46   A    
C20   H12   S    
C91   N3    A    
C19   H8    S    
C92   O8    A    
C15   H141  S    
C117  C118  S    
C107  H71   S    
C72   C89   A    
C105  H65   S    
C58   C68   A    
C48   C61   S    
Cu1   O1    S    
C36   C84   A    
C75   C93   A    
C89   H13   S    
Cu3   O32   S    
C8    H126  S    
C28   H29   S    
C20   O24   S    
C58   H50   S    
Cu4   O4    S    
C115  H88   S    
C18   H6    S    
C50   H41   S    
C11   H133  S    
Cu1   O29   S    
C12   H138  S    
C4    H117  S    
C36   C54   A    
C10   C11   S    
C30   O14   S    
C1    O27   A    
C71   C88   A    
C72   C96   A    
C43   H34   S    
C78   C84   S    
C36   O20   S    
C122  H105  S    
Cu2   O28   S    
C20   C21   S    
C73   C90   A    
C38   O21   S    
C69   H1    S    
C98   C99   S    
C109  H75   S    
C20   H11   S    
C27   C28   S    
C121  H104  S    
C39   C85   A    
C14   C15   S    
C81   O3    A    
C26   H25   S    
C123  H108  S    
C87   N1    A    
Cu4   O7    S    
Cu3   O3    S    
C116  H89   S    
C9    H130  S    
C45   H37   S    
C111  H80   S    
C4    H116  S    
C59   O30   A    
C33   O17   S    
C52   C65   A    
C101  H58   S    
C119  H98   S    
C104  O10   S    
C113  C115  S    
