data_mof_unit_30772.cif
_audit_creation_date              2013-03-05T16:13:23-0500
_audit_creation_method            fapswitch 2.2
_symmetry_space_group_name_H-M    P1
_symmetry_Int_Tables_number       1
_space_group_crystal_system       triclinic
_cell_length_a                    10.836172
_cell_length_b                    9.743301
_cell_length_c                    19.449296
_cell_angle_alpha                 90.172021
_cell_angle_beta                  90.892462
_cell_angle_gamma                 91.658386
_cell_volume                      2052.33697986

loop_
_atom_site_label
_atom_site_type_symbol
_atom_site_description
_atom_site_fract_x
_atom_site_fract_y
_atom_site_fract_z
_atom_type_partial_charge
O1    O     O_R   0.316770 0.614620 0.500000 -0.616701
O2    O     O_R   0.683230 0.385380 0.500000 -0.616548
O3    O     O_R   0.683230 0.614620 0.500000 -0.619375
O4    O     O_R   0.316770 0.385380 0.500000 -0.619698
C1    C     C_R   0.873327 0.505167 0.490530 -0.169712
C2    C     C_R   0.126692 0.494839 0.509571 -0.169531
C3    C     C_R   0.259846 0.498030 0.504993 0.881461
C4    C     C_R   0.740163 0.501972 0.495039 0.880001
O5    O     O_R   0.500030 0.614710 0.398180 -0.616409
O6    O     O_R   0.499970 0.385290 0.601820 -0.616685
O7    O     O_R   0.499970 0.614710 0.601820 -0.616165
O8    O     O_R   0.500030 0.385290 0.398180 -0.615099
C5    C     C_R   0.506808 0.500392 0.365202 0.860450
C6    C     C_R   0.493247 0.499707 0.634798 0.860990
Zn1   Zn    Zn3+2 0.500000 0.653120 0.500000 0.952953
Zn2   Zn    Zn3+2 0.500000 0.346880 0.500000 0.953252
H1    H     H_    0.649168 0.132751 0.571448 0.127530
H2    H     H_    0.350494 0.867257 0.428778 0.127395
H3    H     H_    0.351748 0.122421 0.428449 0.140607
H4    H     H_    0.647846 0.877542 0.571827 0.141130
C7    C     C_R   0.058271 0.373388 0.492842 -0.060956
C8    C     C_R   0.941734 0.626607 0.507316 -0.061259
C9    C     C_R   0.933400 0.381100 0.478052 -0.054949
C10   C     C_R   0.066627 0.618906 0.522059 -0.054913
C11   C     C_R   0.476568 0.370981 0.748043 0.148496
C12   C     C_R   0.516412 0.629552 0.251939 0.150350
C13   C     C_R   0.537725 0.377820 0.251509 0.136940
C14   C     C_R   0.453934 0.622798 0.747466 0.138212
C15   C     C_R   0.471208 0.374600 0.819564 -0.215045
C16   C     C_R   0.511583 0.625687 0.180355 -0.218477
C17   C     C_R   0.532002 0.380411 0.179993 -0.208633
C18   C     C_R   0.449296 0.619618 0.818882 -0.212173
H5    H     H_    0.478085 0.280589 0.848916 0.133275
H6    H     H_    0.502441 0.719861 0.151371 0.132758
H7    H     H_    0.540045 0.285911 0.150935 0.139186
H8    H     H_    0.438556 0.714101 0.847593 0.138414
C19   C     C_R   0.461531 0.497850 0.854467 0.039463
C20   C     C_R   0.515660 0.502257 0.145014 0.039357
C21   C     C_R   0.582821 0.075175 0.539892 -0.055791
C22   C     C_R   0.417021 0.924824 0.460220 -0.057510
C23   C     C_R   0.417377 0.069291 0.460141 -0.051820
C24   C     C_R   0.582416 0.930696 0.540004 -0.052456
C25   C     C_R   0.474771 0.498004 0.710410 -0.132461
C26   C     C_R   0.521179 0.502492 0.289305 -0.133115
C27   C     C_R   0.557698 0.592369 0.960414 -0.190454
C28   C     C_R   0.416335 0.409007 0.039254 -0.190976
C29   C     C_R   0.572588 0.592317 0.031175 -0.194125
C30   C     C_R   0.401472 0.409006 0.968375 -0.194386
H9    H     H_    0.614318 0.662029 0.930103 0.135290
H10   H     H_    0.360343 0.338882 0.069646 0.135021
H11   H     H_    0.639898 0.662489 0.055059 0.134407
H12   H     H_    0.334820 0.338288 0.944335 0.134127
N1    N     N_R   0.500000 0.857200 0.500000 -0.081749
N2    N     N_R   0.500000 0.142800 0.500000 -0.081503
C31   C     C_R   0.501996 0.500617 0.070678 0.136907
C32   C     C_R   0.472183 0.500743 0.928923 0.136774
C33   C     C_1   0.110643 0.237871 0.495794 0.208988
N3    N     N_1   0.149557 0.128743 0.498929 -0.207670
C34   C     C_1   0.889309 0.762111 0.504511 0.209605
N4    N     N_1   0.850349 0.871232 0.501502 -0.207527
C35   C     C_1   0.869693 0.262305 0.446562 0.203372
N5    N     N_1   0.819498 0.167943 0.421428 -0.211656
C36   C     C_1   0.130367 0.737710 0.553517 0.203905
N6    N     N_1   0.180572 0.832093 0.578624 -0.212345
C37   C     C_3   0.484323 0.228313 0.716413 -0.398047
C38   C     C_3   0.360267 0.179379 0.684939 -0.777294
H13   H     H_    0.322262 0.255466 0.648631 0.271248
H14   H     H_    0.371738 0.081281 0.656879 0.247590
H15   H     H_    0.292266 0.161655 0.726359 0.236724
H16   H     H_    0.560867 0.222663 0.679591 0.213486
H17   H     H_    0.509200 0.151557 0.756127 0.185285
C39   C     C_3   0.517247 0.772498 0.283940 -0.396884
C40   C     C_3   0.644841 0.814170 0.313320 -0.779914
H18   H     H_    0.639652 0.913389 0.341212 0.248975
H19   H     H_    0.680761 0.736327 0.349343 0.268907
H20   H     H_    0.711352 0.827106 0.270782 0.237489
H21   H     H_    0.493997 0.851050 0.244821 0.185658
H22   H     H_    0.443410 0.782248 0.322151 0.214538
C41   C     C_3   0.560546 0.238060 0.282662 -0.360348
C42   C     C_3   0.439236 0.155990 0.289114 -0.862302
H23   H     H_    0.455680 0.059117 0.316980 0.239383
H24   H     H_    0.370415 0.215881 0.317213 0.267954
H25   H     H_    0.400741 0.130021 0.237271 0.243152
H26   H     H_    0.621955 0.179141 0.248840 0.186994
H27   H     H_    0.612980 0.244014 0.331882 0.234282
C43   C     C_3   0.439910 0.764036 0.715937 -0.359335
C44   C     C_3   0.565377 0.838563 0.711489 -0.862696
H28   H     H_    0.631580 0.776144 0.682822 0.268115
H29   H     H_    0.554881 0.938410 0.685260 0.237562
H30   H     H_    0.603833 0.858655 0.763955 0.244935
H31   H     H_    0.389385 0.761326 0.666078 0.235351
H32   H     H_    0.380277 0.827409 0.748710 0.186448

loop_
_geom_bond_atom_site_label_1
_geom_bond_atom_site_label_2
_geom_bond_distance
_ccdc_geom_bond_type
C38   H14   1.110268 S    
C44   H28   1.109528 S    
C12   C39   1.523527 S    
C40   H18   1.110379 S    
C20   C31   1.451047 S    
C11   C25   1.440210 A    
C12   C26   1.439232 A    
C18   H8    1.085341 S    
C30   H12   1.083402 S    
C13   C41   1.517357 S    
C43   H31   1.106023 S    
O4    C3    1.278676 A    
C24   N1    1.361521 A    
C41   H26   1.112901 S    
O7    C6    1.293552 A    
C38   H15   1.110745 S    
C37   H16   1.106719 S    
C15   H5    1.084544 S    
C16   C20   1.385554 A    
H1    C21   1.081248 S    
O5    C5    1.288154 A    
C39   H22   1.106352 S    
C19   C32   1.451025 S    
O7    Zn1   2.016486 S    
C13   C26   1.435068 A    
C1    C8    1.412607 A    
O8    Zn2   2.016486 S    
C27   C32   1.400711 A    
C28   C31   1.401060 A    
O1    Zn1   2.009941 S    
O2    Zn2   2.009940 S    
C38   H13   1.108880 S    
C34   N4    1.156555 T    
C40   H19   1.108782 S    
C42   H25   1.110841 S    
C21   C24   1.407590 A    
C27   C29   1.383177 A    
C11   C15   1.393531 A    
C28   C30   1.385426 A    
C16   H6    1.084500 S    
C13   C17   1.391686 A    
C14   C18   1.391074 A    
C11   C37   1.523483 S    
C42   H24   1.109638 S    
O3    C4    1.278659 A    
O6    C6    1.288934 A    
C8    C34   1.453158 S    
C43   C44   1.526476 S    
C42   H23   1.107313 S    
C29   H11   1.083473 S    
C37   H17   1.112306 S    
C2    C7    1.412532 A    
C41   C42   1.525804 S    
O4    Zn2   2.031276 S    
C7    C33   1.453130 S    
C39   H21   1.112123 S    
C1    C9    1.411598 A    
C27   H9    1.083608 S    
C2    C10   1.411581 A    
C18   C19   1.383977 A    
C22   C23   1.407485 A    
C12   C16   1.392784 A    
C10   C36   1.458638 S    
C44   H29   1.107775 S    
C14   C43   1.518920 S    
C40   H20   1.110745 S    
C8    C10   1.383243 A    
Zn1   N1    1.988413 S    
C41   H27   1.106085 S    
O3    Zn1   2.031275 S    
C29   C31   1.398773 A    
C30   C32   1.399147 A    
O1    C3    1.281530 A    
O2    C4    1.281540 A    
C39   C40   1.531190 S    
C1    C4    1.446455 S    
H4    C24   1.078651 S    
C2    C3    1.446459 S    
C28   H10   1.083507 S    
C14   C25   1.436851 A    
C17   C20   1.384502 A    
C7    C9    1.383196 A    
O5    Zn1   2.014281 S    
C43   H32   1.112959 S    
C33   N3    1.156552 T    
C17   H7    1.085278 S    
C37   C38   1.531236 S    
C35   N5    1.157666 T    
Zn2   N2    1.988413 S    
C23   N2    1.361418 A    
C36   N6    1.157656 T    
C21   N2    1.362777 A    
C9    C35   1.458655 S    
H2    C22   1.081223 S    
O8    C5    1.294417 A    
C22   N1    1.362690 A    
C44   H30   1.110896 S    
C15   C19   1.385103 A    
O6    Zn2   2.014281 S    
C5    C26   1.486868 S    
H3    C23   1.078533 S    
C6    C25   1.487329 S    
