data_mof_unit_18256.cif
_audit_creation_date              2012-12-10T16:58:28-0500
_audit_creation_method            fapswitch 2.2
_symmetry_space_group_name_H-M    P1
_symmetry_Int_Tables_number       1
_space_group_crystal_system       triclinic
_cell_length_a                    7.737581
_cell_length_b                    8.548529
_cell_length_c                    23.434294
_cell_angle_alpha                 90.979267
_cell_angle_beta                  85.564901
_cell_angle_gamma                 93.86423
_cell_volume                      1541.79493052

loop_
_atom_site_label
_atom_site_type_symbol
_atom_type_description
_atom_site_fract_x
_atom_site_fract_y
_atom_site_fract_z
_atom_type_partial_charge
C1    C     C_R   0.546058 0.794916 0.498501 0.975105
C2    C     C_R   0.453942 0.205084 0.501499 0.975106
C3    C     C_R   0.655209 0.455919 0.757006 -0.116966
C4    C     C_R   0.344791 0.544083 0.242994 -0.116967
C5    C     C_R   0.654203 0.458525 0.697842 -0.196983
C6    C     C_R   0.345797 0.541476 0.302158 -0.196983
C7    C     C_R   0.504968 0.499159 0.672689 -0.108612
C8    C     C_R   0.495032 0.500842 0.327311 -0.108611
C9    C     C_R   0.357522 0.538424 0.707251 -0.247351
C10   C     C_R   0.642478 0.461576 0.292749 -0.247351
C11   C     C_R   0.358760 0.537057 0.766411 0.444977
C12   C     C_R   0.641240 0.462943 0.233589 0.444976
C13   C     C_R   0.507856 0.494768 0.791207 0.191071
C14   C     C_R   0.492144 0.505233 0.208792 0.191071
C15   C     C_2   0.570363 0.958485 0.497639 -0.366754
C16   C     C_2   0.429637 0.041515 0.502361 -0.366754
C17   C     C_R   0.501794 0.500047 0.610630 0.902269
C18   C     C_R   0.498206 0.499952 0.389370 0.902268
C19   C     C_R   0.403677 0.385305 0.121822 0.624989
C20   C     C_R   0.596323 0.614697 0.878178 0.624989
C21   C     C_R   0.576023 0.627906 0.118819 0.623961
C22   C     C_R   0.423977 0.372095 0.881181 0.623961
C23   C     C_R   0.587279 0.627165 0.058631 -0.166637
C24   C     C_R   0.412721 0.372836 0.941369 -0.166637
C25   C     C_R   0.498055 0.501686 0.030136 -0.106494
C26   C     C_R   0.501945 0.498315 0.969863 -0.106494
C27   C     C_R   0.406337 0.378589 0.061917 -0.156838
C28   C     C_R   0.593663 0.621412 0.938083 -0.156838
C29   C     C_R   0.684092 0.746218 0.026188 0.288441
C30   C     C_R   0.315908 0.253783 0.973812 0.288441
C31   C     C_R   0.679938 0.747369 0.966643 0.450012
C32   C     C_R   0.320062 0.252633 0.033357 0.450012
H1    H     H_    0.770176 0.423888 0.776428 0.195389
H2    H     H_    0.229825 0.576114 0.223572 0.195388
H3    H     H_    0.769241 0.427715 0.671918 0.178224
H4    H     H_    0.230760 0.572287 0.328082 0.178224
H5    H     H_    0.241776 0.571266 0.688465 0.191167
H6    H     H_    0.758224 0.428733 0.311535 0.191167
H7    H     H_    0.703097 0.009983 0.493138 0.181469
H8    H     H_    0.296903 0.990017 0.506862 0.181469
H9    H     H_    0.014241 0.382620 0.456866 0.195283
H10   H     H_    0.985759 0.617380 0.543134 0.195284
N1    N     N_R   0.489232 0.506923 0.148176 -0.356010
N2    N     N_R   0.510768 0.493079 0.851824 -0.356010
N3    N     N_2   0.950330 0.457950 0.484560 -0.174184
N4    N     N_2   0.049670 0.542050 0.515440 -0.174185
O1    O     O_R   0.389250 0.738570 0.503790 -0.612871
O2    O     O_R   0.610750 0.261430 0.496210 -0.612871
O3    O     O_R   0.678390 0.711620 0.493890 -0.627880
O4    O     O_R   0.321610 0.288380 0.506110 -0.627881
O5    O     O_R   0.355400 0.513520 0.588790 -0.619072
O6    O     O_R   0.644600 0.486480 0.411210 -0.619072
O7    O     O_R   0.644550 0.486570 0.578900 -0.629818
O8    O     O_R   0.355450 0.513430 0.421100 -0.629818
O9    O     O_2   0.316789 0.271944 0.154098 -0.460349
O10   O     O_2   0.683211 0.728058 0.845902 -0.460349
O11   O     O_2   0.648296 0.748313 0.148588 -0.467395
O12   O     O_2   0.351705 0.251688 0.851412 -0.467394
Zn1   Zn    Zn3+2 0.306930 0.518000 0.506610 0.955528
Zn2   Zn    Zn3+2 0.693070 0.482000 0.493390 0.955528
Cl1   Cl    Cl    0.823144 0.892890 0.056731 -0.420505
Cl2   Cl    Cl    0.176857 0.107112 0.943268 -0.420505
O13   O     O_3   0.772577 0.867176 0.936158 -0.487255
C33   C     C_3   0.665831 0.994051 0.933226 -0.051684
H11   H     H_    0.642345 0.050958 0.975839 0.122754
H12   H     H_    0.539889 0.957464 0.915349 0.163984
H13   H     H_    0.733824 0.083459 0.904244 0.214432
O14   O     O_3   0.227424 0.132826 0.063842 -0.487255
C34   C     C_3   0.334169 0.005950 0.066773 -0.051684
H14   H     H_    0.460112 0.042538 0.084652 0.163984
H15   H     H_    0.357656 0.949044 0.024161 0.122754
H16   H     H_    0.266177 0.916542 0.095756 0.214432
Cl3   Cl    Cl    0.173551 0.590894 0.808698 -0.525398
Cl4   Cl    Cl    0.826449 0.409106 0.191302 -0.525397

loop_
_geom_bond_atom_site_label_1
_geom_bond_atom_site_label_2
_ccdc_geom_bond_type
C22   O12   S    
C34   H16   S    
C23   C29   A    
N3    Zn2   S    
C21   O11   S    
C1    C15   S    
C12   Cl4   S    
N4    Zn1   S    
C25   C27   A    
C31   O13   S    
C2    C16   S    
H10   N4    S    
C26   C28   A    
C3    C13   A    
C20   O10   S    
C18   O8    A    
C10   H6    S    
C33   H11   S    
C17   O5    A    
C30   Cl2   S    
C27   C32   A    
C18   O6    A    
C29   C31   A    
C33   H12   S    
N3    N4    D    
C32   O14   S    
C30   C32   A    
C11   C13   A    
C24   C26   A    
C15   H7    S    
O3    Zn2   S    
C10   C12   A    
O6    Zn2   S    
C16   H8    S    
O4    Zn1   S    
C5    H3    S    
C8    C10   A    
C20   N2    A    
O7    Zn2   S    
C6    H4    S    
C22   N2    A    
O2    Zn2   S    
O5    Zn1   S    
C22   C24   A    
O8    Zn1   S    
C9    C11   A    
C4    H2    S    
C4    C14   A    
C34   H14   S    
C29   Cl1   S    
C24   C30   A    
C34   H15   S    
C3    H1    S    
O1    Zn1   S    
C15   C16   D    
C33   H13   S    
C17   O7    A    
C28   C31   A    
C23   C25   A    
C19   C27   A    
C4    C6    A    
C9    H5    S    
C11   Cl3   S    
C19   O9    S    
C2    O4    A    
C7    C9    A    
H9    N3    S    
C5    C7    A    
C1    O1    A    
C6    C8    A    
C20   C28   A    
C2    O2    A    
C25   C26   A    
C21   N1    A    
C1    O3    A    
C21   C23   A    
O14   C34   S    
C13   N2    S    
C8    C18   S    
O13   C33   S    
C12   C14   A    
C14   N1    S    
C3    C5    A    
C7    C17   S    
C19   N1    A    
