data_mof_unit_62962.cif
_audit_creation_date              2012-12-10T20:48:23-0500
_audit_creation_method            fapswitch 2.2
_symmetry_space_group_name_H-M    P1
_symmetry_Int_Tables_number       1
_space_group_crystal_system       triclinic
_cell_length_a                    16.036462
_cell_length_b                    19.258991
_cell_length_c                    19.195088
_cell_angle_alpha                 94.601845
_cell_angle_beta                  95.112983
_cell_angle_gamma                 90.480146
_cell_volume                      5884.98293207

loop_
_atom_site_label
_atom_site_type_symbol
_atom_type_description
_atom_site_fract_x
_atom_site_fract_y
_atom_site_fract_z
_atom_type_partial_charge
C1    C     C_R   0.507738 0.310865 0.493579 0.772296
C2    C     C_R   0.425051 0.801245 0.544639 -0.313432
C3    C     C_R   0.442251 0.120886 0.487936 -0.101328
C4    C     C_R   0.491293 0.689337 0.507120 0.809972
C5    C     C_R   0.435516 0.193570 0.489218 -0.072188
C6    C     C_R   0.521252 0.089060 0.491223 0.266899
C7    C     C_R   0.509661 0.234684 0.492524 -0.082481
C8    C     C_R   0.587904 0.202540 0.495090 -0.196273
C9    C     C_R   0.593462 0.130395 0.493777 -0.182552
C10   C     C_R   0.481870 0.495079 0.232866 -0.059041
C11   C     C_R   0.525347 0.546558 0.202063 -0.181282
C12   C     C_1   0.111068 0.482658 0.482873 0.018154
C13   C     C_R   0.514103 0.553051 0.129615 -0.013940
C14   C     C_R   0.459706 0.505530 0.087198 0.218890
C15   C     C_R   0.415498 0.454947 0.118062 -0.165521
C16   C     C_R   0.508587 0.507683 0.690223 0.796793
C17   C     C_R   0.426592 0.449487 0.190313 -0.208171
C18   C     C_R   0.445727 0.533519 0.875516 -0.169783
C19   C     C_R   0.445613 0.537470 0.803181 -0.217657
C20   C     C_R   0.511236 0.499631 0.912765 0.310376
C21   C     C_R   0.510403 0.507490 0.766996 -0.005058
C22   C     C_R   0.576046 0.474713 0.804472 -0.204725
C23   C     C_1   0.888993 0.517253 0.517596 0.015688
C24   C     C_R   0.576565 0.471390 0.876713 -0.180421
C25   C     C_R   0.490822 0.492631 0.309737 0.809629
C26   C     C_R   0.724099 0.509922 0.509976 0.815427
C27   C     C_R   0.275936 0.490058 0.490128 0.813304
C28   C     C_1   0.813682 0.513934 0.514163 -0.131058
C29   C     C_2   0.978969 0.521063 0.521502 -0.161446
C30   C     C_2   0.021100 0.478794 0.479050 -0.154496
C31   C     C_2   0.556756 0.610816 0.099229 0.409451
C32   C     C_2   0.351350 0.225252 0.490899 0.434597
C33   C     C_2   0.351188 0.907579 0.583851 0.414211
C34   C     C_1   0.186369 0.486018 0.486172 -0.127341
C35   C     C_R   0.486491 0.765680 0.508873 0.003899
C36   C     C_R   0.542403 0.803293 0.473765 -0.211300
C37   C     C_R   0.537240 0.875325 0.474345 -0.205074
C38   C     C_R   0.475633 0.911667 0.510164 0.322933
C39   C     C_R   0.418511 0.873832 0.545361 -0.026303
H1    H     H_    0.988210 0.440970 0.441049 0.165178
H2    H     H_    0.011855 0.558897 0.559496 0.162364
H3    H     H_    0.385856 0.089094 0.485317 0.212593
H4    H     H_    0.381339 0.772251 0.571589 0.164023
H5    H     H_    0.645000 0.233475 0.497485 0.161293
H6    H     H_    0.581070 0.902389 0.445885 0.166429
H7    H     H_    0.654467 0.106546 0.495751 0.153565
H8    H     H_    0.541803 0.621156 0.044858 0.087627
H9    H     H_    0.344747 0.280599 0.503908 0.072663
H10   H     H_    0.308991 0.875739 0.609576 0.061431
H11   H     H_    0.590227 0.777028 0.445583 0.177153
H12   H     H_    0.394322 0.563061 0.775485 0.167874
H13   H     H_    0.395038 0.557228 0.902077 0.154406
H14   H     H_    0.373150 0.419027 0.085731 0.156255
H15   H     H_    0.391619 0.409883 0.212865 0.175360
H16   H     H_    0.627088 0.451487 0.777952 0.170873
H17   H     H_    0.627833 0.446092 0.904774 0.150953
H18   H     H_    0.566725 0.582917 0.234843 0.208738
N1    N     N_2   0.468075 0.985148 0.509819 -0.129219
N2    N     N_2   0.530532 0.015859 0.491867 -0.198331
N3    N     N_2   0.449209 0.507430 0.013470 -0.212949
N4    N     N_2   0.516014 0.495268 0.986477 -0.199361
O1    O     O_3   0.500000 0.500000 0.500000 -0.478507
O2    O     O_R   0.688130 0.469010 0.547620 -0.635817
O3    O     O_R   0.315580 0.449250 0.449280 -0.635343
O4    O     O_R   0.680710 0.547310 0.468650 -0.630978
O5    O     O_R   0.315580 0.534430 0.534450 -0.637566
O6    O     O_2   0.608865 0.648177 0.134803 -0.561792
O7    O     O_2   0.287690 0.189480 0.478561 -0.549943
O8    O     O_2   0.341594 0.970537 0.587691 -0.539054
O9    O     O_R   0.456860 0.545290 0.655940 -0.643765
O10   O     O_R   0.446440 0.450430 0.339790 -0.638574
O11   O     O_R   0.557290 0.347960 0.537250 -0.630907
O12   O     O_R   0.539410 0.656320 0.467010 -0.645123
O13   O     O_R   0.456880 0.340240 0.450910 -0.649241
O14   O     O_R   0.446420 0.655480 0.544820 -0.644009
O15   O     O_R   0.557280 0.467820 0.657110 -0.644257
O16   O     O_R   0.539420 0.536460 0.347160 -0.644172
Zn1   Zn    Zn3+2 0.430910 0.557800 0.557800 0.973542
Zn2   Zn    Zn3+2 0.574380 0.447110 0.559460 0.979120
Zn3   Zn    Zn3+2 0.563780 0.559000 0.446630 0.985420
Zn4   Zn    Zn3+2 0.430930 0.436090 0.436110 0.980399

loop_
_geom_bond_atom_site_label_1
_geom_bond_atom_site_label_2
_ccdc_geom_bond_type
C2    C35   A    
C3    H3    S    
C16   C21   S    
O9    Zn1   S    
C35   C36   A    
O15   Zn2   S    
C3    C6    A    
C6    C9    A    
C18   H13   S    
C7    C8    A    
O2    Zn2   S    
C31   O6    D    
C29   C30   D    
C25   O16   A    
C1    O13   A    
C23   C29   S    
O1    Zn3   S    
C36   C37   A    
C19   C21   A    
O11   Zn2   S    
C38   C39   A    
C10   C17   A    
C33   H10   S    
C18   C19   A    
C20   N4    S    
C4    O14   A    
C38   N1    S    
C2    C39   A    
C20   C24   A    
C8    C9    A    
C25   O10   A    
C33   O8    D    
C32   O7    D    
C5    C32   S    
C29   H2    S    
C4    C35   S    
C9    H7    S    
O4    Zn3   S    
C1    C7    S    
C13   C14   A    
C32   H9    S    
C13   C31   S    
C27   C34   S    
O5    Zn1   S    
C1    O11   A    
O1    Zn2   S    
C16   O9    A    
C10   C11   A    
C5    C7    A    
N1    N2    D    
N3    N4    D    
C26   O2    A    
C37   C38   A    
C2    H4    S    
C30   H1    S    
C33   C39   S    
C23   C28   T    
C4    O12   A    
C10   C25   S    
O1    Zn4   S    
C22   C24   A    
O13   Zn4   S    
C12   C34   T    
C15   H14   S    
C36   H11   S    
O16   Zn3   S    
C15   C17   A    
C12   C30   S    
C16   O15   A    
C26   O4    A    
C6    N2    S    
O1    Zn1   S    
C8    H5    S    
C3    C5    A    
C22   H16   S    
C24   H17   S    
C14   N3    S    
C26   C28   S    
C27   O5    A    
C11   H18   S    
C11   C13   A    
O12   Zn3   S    
C18   C20   A    
O14   Zn1   S    
O3    Zn4   S    
C27   O3    A    
C19   H12   S    
C14   C15   A    
C31   H8    S    
C21   C22   A    
C37   H6    S    
C17   H15   S    
O10   Zn4   S    
