data_mof_unit_65731.cif
_audit_creation_date              2012-12-10T21:39:38-0500
_audit_creation_method            fapswitch 2.2
_symmetry_space_group_name_H-M    P1
_symmetry_Int_Tables_number       1
_space_group_crystal_system       triclinic
_cell_length_a                    16.191472
_cell_length_b                    16.872635
_cell_length_c                    23.436307
_cell_angle_alpha                 92.321489
_cell_angle_beta                  91.372046
_cell_angle_gamma                 86.948114
_cell_volume                      6386.77896626

loop_
_atom_site_label
_atom_site_type_symbol
_atom_type_description
_atom_site_fract_x
_atom_site_fract_y
_atom_site_fract_z
_atom_type_partial_charge
C1    C     C_R   0.488652 0.652608 0.497483 0.935663
C2    C     C_R   0.511348 0.347392 0.502516 0.935662
C3    C     C_R   0.421718 0.489005 0.759659 -0.084563
C4    C     C_R   0.578281 0.510999 0.240341 -0.084561
C5    C     C_R   0.422773 0.490472 0.700491 -0.172467
C6    C     C_R   0.577227 0.509530 0.299509 -0.172467
C7    C     C_R   0.497826 0.497644 0.672794 -0.048751
C8    C     C_R   0.502174 0.502357 0.327205 -0.048751
C9    C     C_R   0.571782 0.502385 0.704971 -0.183790
C10   C     C_R   0.428218 0.497618 0.295029 -0.183792
C11   C     C_R   0.570505 0.500895 0.764055 -0.089201
C12   C     C_R   0.429494 0.499111 0.235945 -0.089201
C13   C     C_R   0.495545 0.494413 0.791317 0.297541
C14   C     C_R   0.504454 0.505592 0.208683 0.297540
C15   C     C_R   0.481073 0.738060 0.491088 -0.090859
C16   C     C_R   0.518926 0.261939 0.508909 -0.090861
C17   C     C_R   0.547319 0.778137 0.469731 0.440674
C18   C     C_R   0.452680 0.221861 0.530263 0.440677
C19   C     C_R   0.540864 0.860776 0.468902 -0.258022
C20   C     C_R   0.459133 0.139222 0.531088 -0.258022
C21   C     C_R   0.469628 0.902855 0.489306 0.285450
C22   C     C_R   0.530369 0.097143 0.510683 0.285450
C23   C     C_R   0.499270 0.499550 0.610653 0.894760
C24   C     C_R   0.500730 0.500450 0.389347 0.894762
C25   C     C_R   0.401876 0.862327 0.505470 -0.165540
C26   C     C_R   0.598122 0.137672 0.494522 -0.165540
C27   C     C_R   0.407453 0.780184 0.506462 -0.271424
C28   C     C_R   0.592547 0.219816 0.493534 -0.271423
C29   C     C_R   0.764238 0.457748 0.472600 0.216836
C30   C     C_R   0.235762 0.542252 0.527400 0.216836
C31   C     C_R   0.851393 0.452214 0.477848 0.340805
C32   C     C_R   0.148607 0.547786 0.522152 0.340805
C33   C     C_R   0.891977 0.505581 0.515710 0.133911
C34   C     C_R   0.108023 0.494419 0.484289 0.133912
C35   C     C_R   0.842946 0.558383 0.549591 -0.352803
C36   C     C_R   0.157054 0.441617 0.450409 -0.352805
C37   C     C_R   0.756165 0.559876 0.545133 0.265695
C38   C     C_R   0.243835 0.440124 0.454867 0.265695
C39   C     C_R   0.535392 0.438914 0.119001 0.533111
C40   C     C_R   0.464607 0.561092 0.880999 0.533111
C41   C     C_R   0.474025 0.570970 0.120903 0.531404
C42   C     C_R   0.525974 0.429036 0.879097 0.531403
C43   C     C_R   0.470484 0.571164 0.060817 -0.079788
C44   C     C_R   0.529515 0.428842 0.939183 -0.079789
C45   C     C_R   0.501106 0.501799 0.030107 -0.045679
C46   C     C_R   0.498893 0.498207 0.969894 -0.045678
C47   C     C_R   0.533968 0.435736 0.059505 -0.045610
C48   C     C_R   0.466031 0.564270 0.940495 -0.045610
C49   C     C_R   0.437598 0.636935 0.030110 0.209347
C50   C     C_R   0.562401 0.363071 0.969890 0.209348
C51   C     C_R   0.435886 0.632479 0.970727 -0.180449
C52   C     C_R   0.564113 0.367527 0.029273 -0.180450
H1    H     H_    0.355168 0.750008 0.521085 0.210324
H2    H     H_    0.644832 0.249992 0.478913 0.210325
H3    H     H_    0.872477 0.598894 0.579693 0.212419
H4    H     H_    0.127522 0.401106 0.420307 0.212419
H5    H     H_    0.410601 0.683308 0.948095 0.213713
H6    H     H_    0.589398 0.316698 0.051906 0.213713
H7    H     H_    0.363777 0.483792 0.780994 0.153568
H8    H     H_    0.636222 0.516213 0.219006 0.153568
H9    H     H_    0.365058 0.485918 0.676593 0.188642
H10   H     H_    0.634942 0.514083 0.323407 0.188642
H11   H     H_    0.630521 0.507368 0.684647 0.185079
H12   H     H_    0.369478 0.492635 0.315353 0.185079
H13   H     H_    0.627557 0.505174 0.788800 0.152177
H14   H     H_    0.372442 0.494833 0.211200 0.152177
H15   H     H_    0.408099 0.107643 0.546490 0.154678
H16   H     H_    0.591897 0.892353 0.453497 0.154678
H17   H     H_    0.346118 0.894696 0.519813 0.168973
H18   H     H_    0.653880 0.105304 0.480179 0.168974
N1    N     N_R   0.505448 0.505486 0.147996 -0.362753
N2    N     N_R   0.494551 0.494520 0.852004 -0.362753
N3    N     N_2   0.465423 0.986073 0.495825 -0.169938
N4    N     N_2   0.534574 0.013925 0.504162 -0.169937
N5    N     N_R   0.716910 0.509720 0.507000 -0.162279
N6    N     N_R   0.283090 0.490280 0.493000 -0.162280
N7    N     N_2   0.980306 0.506529 0.522543 -0.128887
N8    N     N_2   0.019694 0.493471 0.477457 -0.128888
O1    O     O_R   0.422540 0.612660 0.497490 -0.627168
O2    O     O_R   0.577460 0.387340 0.502510 -0.627168
O3    O     O_R   0.561840 0.618900 0.501990 -0.535487
O4    O     O_R   0.438160 0.381100 0.498010 -0.535487
O5    O     O_R   0.430330 0.496900 0.581600 -0.600447
O6    O     O_R   0.569670 0.503100 0.418400 -0.600446
O7    O     O_R   0.569640 0.503140 0.586090 -0.614716
O8    O     O_R   0.430360 0.496860 0.413910 -0.614716
O9    O     O_2   0.565589 0.375703 0.147951 -0.531829
O10   O     O_2   0.434410 0.624304 0.852050 -0.531827
O11   O     O_2   0.446815 0.634927 0.152639 -0.505101
O12   O     O_2   0.553184 0.365078 0.847361 -0.505100
Zn1   Zn    Zn3+2 0.406980 0.495830 0.497000 1.027618
Zn2   Zn    Zn3+2 0.593020 0.504170 0.503000 1.027619
I1    I     I_    0.387641 0.747239 0.065665 -0.179969
I2    I     I_    0.612357 0.252766 0.934335 -0.179969
I3    I     I_    0.287864 0.620701 0.590070 -0.240530
I4    I     I_    0.712136 0.379299 0.409930 -0.240530
O13   O     O_3   0.106035 0.607518 0.553011 -0.712398
H19   H     H_    0.057259 0.626026 0.529927 0.354992
O14   O     O_3   0.893965 0.392482 0.446989 -0.712398
H20   H     H_    0.942741 0.373974 0.470073 0.354992
I5    I     I_    0.691894 0.643222 0.600040 -0.272572
I6    I     I_    0.308106 0.356778 0.399960 -0.272572
O15   O     O_3   0.382942 0.264110 0.550146 -0.733475
H21   H     H_    0.342970 0.226636 0.563356 0.339115
O16   O     O_3   0.617057 0.735886 0.449849 -0.733476
H22   H     H_    0.657026 0.773360 0.436636 0.339115

loop_
_geom_bond_atom_site_label_1
_geom_bond_atom_site_label_2
_ccdc_geom_bond_type
C16   C28   A    
C41   O11   S    
C14   N1    S    
C20   H15   S    
C39   O9    S    
O13   H19   S    
C38   N6    A    
C45   C46   A    
C23   O5    A    
C19   C21   A    
O8    Zn1   S    
C33   C35   A    
C1    O3    A    
C21   N3    S    
C30   N6    A    
C32   O13   S    
C18   C20   A    
C40   C48   A    
N3    N4    D    
C37   I5    S    
C17   C19   A    
O3    Zn2   S    
C48   C51   A    
C49   C51   A    
C50   C52   A    
C31   C33   A    
C1    C15   S    
C31   O14   S    
C2    C16   S    
O1    Zn1   S    
C3    C13   A    
C41   N1    A    
C37   N5    A    
C41   C43   A    
C42   C44   A    
O7    Zn2   S    
C44   C46   A    
C45   C47   A    
C52   H6    S    
C46   C48   A    
C35   H3    S    
C4    C6    A    
C5    C7    A    
C28   H2    S    
C50   I2    S    
C6    C8    A    
N7    N8    D    
C12   H14   S    
O4    Zn1   S    
C42   O12   S    
C32   C34   A    
O2    Zn2   S    
C30   I3    S    
C36   H4    S    
C17   O16   S    
C9    C11   A    
C15   C27   A    
O14   H20   S    
C29   C31   A    
C4    H8    S    
C42   N2    A    
C43   C49   A    
C5    H9    S    
C19   H16   S    
C43   C45   A    
C10   C12   A    
N5    Zn2   S    
C51   H5    S    
C8    C10   A    
C20   C22   A    
C23   O7    A    
C26   H18   S    
C2    O4    A    
C25   H17   S    
C22   N4    S    
C1    O1    A    
C39   C47   A    
C44   C50   A    
C7    C9    A    
C21   C25   A    
C40   N2    A    
C35   C37   A    
C9    H11   S    
C10   H12   S    
C12   C14   A    
C3    C5    A    
C29   I4    S    
C27   H1    S    
C15   C17   A    
C47   C52   A    
C29   N5    A    
C13   N2    S    
C25   C27   A    
O5    Zn1   S    
O16   H22   S    
C26   C28   A    
C6    H10   S    
C36   C38   A    
C24   O6    A    
C38   I6    S    
C34   N8    S    
C30   C32   A    
C11   C13   A    
C33   N7    S    
C7    C23   S    
C8    C24   S    
C34   C36   A    
C18   O15   S    
C4    C14   A    
C2    O2    A    
N6    Zn1   S    
C16   C18   A    
C22   C26   A    
O15   H21   S    
C39   N1    A    
O6    Zn2   S    
C49   I1    S    
C24   O8    A    
C40   O10   S    
C11   H13   S    
C3    H7    S    
