data_mof_unit_41683.cif
_audit_creation_date              2012-12-10T18:45:09-0500
_audit_creation_method            fapswitch 2.2
_symmetry_space_group_name_H-M    P1
_symmetry_Int_Tables_number       1
_space_group_crystal_system       triclinic
_cell_length_a                    10.647372
_cell_length_b                    9.93845
_cell_length_c                    10.609145
_cell_angle_alpha                 89.941578
_cell_angle_beta                  90.955631
_cell_angle_gamma                 90.367137
_cell_volume                      1122.46281615

loop_
_atom_site_label
_atom_site_type_symbol
_atom_type_description
_atom_site_fract_x
_atom_site_fract_y
_atom_site_fract_z
_atom_type_partial_charge
C1    C     C_R   0.260423 0.499550 0.499541 0.851540
C2    C     C_R   0.501395 0.499866 0.739299 0.862614
C3    C     C_R   0.731316 0.570511 0.135389 -0.176349
C4    C     C_R   0.732714 0.564593 0.872664 -0.194568
C5    C     C_R   0.841134 0.601833 0.071367 -0.134869
C6    C     C_R   0.841910 0.598581 0.940147 -0.133985
C7    C     C_R   0.620391 0.534237 0.936142 0.095117
C8    C     C_R   0.619917 0.536030 0.068126 0.095854
C9    C     C_R   0.507762 0.500256 0.128617 -0.086409
C10   C     C_R   0.508169 0.499162 0.871778 -0.087483
C11   C     C_R   0.399385 0.461833 0.062871 -0.217316
C12   C     C_R   0.739746 0.500120 0.500662 0.826279
C13   C     C_R   0.399470 0.461690 0.933878 -0.202605
C14   C     C_R   0.062672 0.401034 0.430825 -0.197251
C15   C     C_R   0.933692 0.401877 0.430617 -0.190881
C16   C     C_R   0.872415 0.499733 0.500616 -0.000319
C17   C     C_R   0.128061 0.498804 0.500161 -0.002323
C18   C     C_3   0.697291 0.864694 0.633748 -0.861301
C19   C     C_3   0.304163 0.861410 0.362316 -0.835891
C20   C     C_R   0.938201 0.595450 0.571918 -0.210871
C21   C     C_R   0.066890 0.595891 0.570763 -0.200703
C22   C     C_R   0.588838 0.073752 0.565788 -0.083607
C23   C     C_R   0.410915 0.072549 0.434284 -0.085663
C24   C     C_R   0.590183 0.930885 0.565919 0.229409
C25   C     C_R   0.409477 0.929455 0.433984 0.222721
C26   C     C_R   0.501067 0.500109 0.260777 0.856917
H1    H     H_    0.314449 0.433695 0.111743 0.137546
H2    H     H_    0.118580 0.669787 0.626390 0.147481
H3    H     H_    0.660413 0.130198 0.617025 0.148939
H4    H     H_    0.339620 0.128161 0.382687 0.139925
H5    H     H_    0.767546 0.835711 0.563244 0.244038
H6    H     H_    0.744717 0.934538 0.701272 0.202887
H7    H     H_    0.665181 0.777706 0.689142 0.274633
H8    H     H_    0.232034 0.825838 0.428871 0.247386
H9    H     H_    0.256539 0.932348 0.296438 0.193777
H10   H     H_    0.338718 0.778127 0.304056 0.272764
H11   H     H_    0.314521 0.433752 0.882154 0.143626
H12   H     H_    0.734723 0.572513 0.237237 0.138144
H13   H     H_    0.737185 0.560564 0.771125 0.121589
H14   H     H_    0.926022 0.627663 0.123740 0.139810
H15   H     H_    0.927437 0.621677 0.890533 0.135427
H16   H     H_    0.111207 0.326261 0.375860 0.140138
H17   H     H_    0.881927 0.327755 0.375353 0.152308
H18   H     H_    0.890796 0.667151 0.630473 0.139799
N1    N     N_R   0.500000 0.857200 0.500000 -0.081926
N2    N     N_R   0.500000 0.142810 0.500000 -0.114920
O1    O     O_R   0.316770 0.614620 0.499990 -0.622541
O2    O     O_R   0.683230 0.614620 0.500010 -0.624998
O3    O     O_R   0.316800 0.385290 0.500000 -0.621948
O4    O     O_R   0.683200 0.385290 0.500000 -0.620351
O5    O     O_R   0.500010 0.614690 0.316770 -0.621342
O6    O     O_R   0.499990 0.614690 0.683230 -0.621931
O7    O     O_R   0.500040 0.385360 0.316770 -0.609472
O8    O     O_R   0.499960 0.385360 0.683230 -0.605936
Zn1   Zn    Zn3+2 0.500000 0.653120 0.500000 0.938752
Zn2   Zn    Zn3+2 0.500000 0.346880 0.500000 0.948338

loop_
_geom_bond_atom_site_label_1
_geom_bond_atom_site_label_2
_ccdc_geom_bond_type
O2    Zn1   S    
C12   O4    A    
C17   C21   A    
O6    Zn1   S    
O8    Zn2   S    
C22   H3    S    
C7    C10   A    
O3    Zn2   S    
C9    C11   A    
C23   H4    S    
C13   H11   S    
C12   O2    A    
C4    H13   S    
C11   H1    S    
C14   H16   S    
C15   H17   S    
C7    C8    A    
C23   N2    A    
C19   H9    S    
C26   O5    A    
C11   C13   A    
C14   C17   A    
C2    O6    A    
C4    C7    A    
C18   C24   S    
C24   N1    A    
C10   C13   A    
C4    C6    A    
C16   C20   A    
C22   N2    A    
C21   H2    S    
C9    C26   S    
O5    Zn1   S    
C19   H10   S    
C23   C25   A    
C5    C6    A    
C19   C25   S    
C18   H7    S    
C22   C24   A    
C5    H14   S    
C18   H6    S    
C15   C16   A    
C2    C10   S    
C26   O7    A    
C25   N1    A    
C20   C21   A    
N1    Zn1   S    
O1    Zn1   S    
C3    C8    A    
C2    O8    A    
O7    Zn2   S    
N2    Zn2   S    
C14   C15   A    
C1    O1    A    
C18   H5    S    
C20   H18   S    
C1    C17   S    
C19   H8    S    
O4    Zn2   S    
C12   C16   S    
C3    H12   S    
C8    C9    A    
C3    C5    A    
C6    H15   S    
C1    O3    A    
