data_mof_unit_57948.cif
_audit_creation_date              2012-12-10T17:40:50-0500
_audit_creation_method            fapswitch 2.2
_symmetry_space_group_name_H-M    P1
_symmetry_Int_Tables_number       1
_space_group_crystal_system       triclinic
_cell_length_a                    14.896384
_cell_length_b                    15.362378
_cell_length_c                    9.847422
_cell_angle_alpha                 89.999074
_cell_angle_beta                  90.761318
_cell_angle_gamma                 89.999859
_cell_volume                      2253.32334075

loop_
_atom_site_label
_atom_site_type_symbol
_atom_type_description
_atom_site_fract_x
_atom_site_fract_y
_atom_site_fract_z
_atom_type_partial_charge
C1    C     C_R   0.386563 0.874205 0.500318 0.861128
C2    C     C_R   0.712681 0.223102 0.381802 -0.215753
C3    C     C_R   0.212683 0.276902 0.381806 -0.215759
C4    C     C_R   0.212644 0.723135 0.381798 -0.215743
C5    C     C_R   0.677902 0.804337 0.505744 -0.122854
C6    C     C_R   0.677911 0.195657 0.505744 -0.122901
C7    C     C_R   0.177911 0.304344 0.505747 -0.122882
C8    C     C_R   0.177880 0.695681 0.505739 -0.122922
C9    C     C_R   0.336093 0.999999 0.137937 -0.096070
C10   C     C_R   0.836093 0.500009 0.137937 -0.095997
C11   C     C_R   0.255126 0.999998 0.066098 -0.177155
C12   C     C_R   0.386574 0.125802 0.500318 0.861155
C13   C     C_R   0.755126 0.500013 0.066098 -0.177094
C14   C     C_R   0.254927 0.999998 0.925652 -0.169720
C15   C     C_R   0.754927 0.500012 0.925652 -0.169690
C16   C     C_R   0.335682 0.999998 0.856493 -0.088164
C17   C     C_R   0.835682 0.500007 0.856493 -0.088142
C18   C     C_R   0.419082 0.999998 0.926181 0.060765
C19   C     C_R   0.919082 0.500006 0.926181 0.060903
C20   C     C_R   0.419194 0.999998 0.070972 0.183160
C21   C     C_R   0.919194 0.500006 0.070972 0.183216
C22   C     C_R   0.577575 0.000008 0.073817 -0.296747
C23   C     C_R   0.886572 0.374200 0.500318 0.861143
C24   C     C_R   0.077575 0.499993 0.073817 -0.296791
C25   C     C_R   0.615104 0.124781 0.501343 0.884429
C26   C     C_R   0.615100 0.875216 0.501343 0.884422
C27   C     C_R   0.115094 0.624788 0.501341 0.884435
C28   C     C_R   0.115104 0.375218 0.501344 0.884437
C29   C     C_R   0.578592 0.000006 0.927790 0.494575
C30   C     C_R   0.078592 0.499994 0.927790 0.494617
C31   C     C_R   0.350291 0.230066 0.750027 -0.316597
C32   C     C_R   0.350252 0.769941 0.750026 -0.316625
C33   C     C_R   0.850256 0.730035 0.750043 -0.316540
C34   C     C_R   0.886571 0.625800 0.500319 0.861174
C35   C     C_R   0.850296 0.269920 0.750019 -0.316631
C36   C     C_R   0.310566 0.245982 0.877244 0.546289
C37   C     C_R   0.310525 0.754015 0.877242 0.546376
C38   C     C_R   0.810514 0.745916 0.877252 0.546315
C39   C     C_R   0.810577 0.253989 0.877239 0.546313
C40   C     C_R   0.719343 0.766250 0.878831 -0.216767
C41   C     C_R   0.719406 0.233655 0.878833 -0.216611
C42   C     C_R   0.219395 0.266317 0.878836 -0.216649
C43   C     C_R   0.219349 0.733695 0.878825 -0.216679
C44   C     C_R   0.672156 0.781735 0.757993 -0.217637
C45   C     C_R   0.284700 0.221904 0.380493 -0.220048
C46   C     C_R   0.672196 0.218221 0.758003 -0.217539
C47   C     C_R   0.172192 0.281768 0.758004 -0.217559
C48   C     C_R   0.172148 0.718258 0.757989 -0.217638
C49   C     C_R   0.714929 0.774336 0.630872 0.097039
C50   C     C_R   0.714951 0.225644 0.630872 0.097047
C51   C     C_R   0.214950 0.274354 0.630875 0.097046
C52   C     C_R   0.214911 0.725675 0.630866 0.097040
C53   C     C_R   0.299049 0.234995 0.627841 0.052573
C54   C     C_R   0.299012 0.765028 0.627838 0.052586
C55   C     C_R   0.799029 0.734979 0.627846 0.052533
C56   C     C_R   0.284663 0.778132 0.380490 -0.219983
C57   C     C_R   0.799049 0.265002 0.627837 0.052586
C58   C     C_R   0.326971 0.199121 0.502645 -0.101598
C59   C     C_R   0.326940 0.800901 0.502643 -0.101606
C60   C     C_R   0.826962 0.699115 0.502648 -0.101558
C61   C     C_R   0.826968 0.300881 0.502643 -0.101607
C62   C     C_3   0.737361 0.999945 0.926079 0.081341
C63   C     C_3   0.815739 0.999906 0.828637 -0.784603
C64   C     C_3   0.237361 0.500018 0.926077 0.081329
C65   C     C_3   0.315738 0.500035 0.828633 -0.784521
C66   C     C_3   0.447538 0.249356 0.997155 0.071105
C67   C     C_R   0.784696 0.721901 0.380495 -0.220183
C68   C     C_3   0.484465 0.260867 0.140736 -0.826514
C69   C     C_3   0.447527 0.750738 0.997119 0.071066
C70   C     C_3   0.484485 0.739194 0.140674 -0.826139
C71   C     C_3   0.947442 0.749436 0.997230 0.071048
C72   C     C_3   0.984317 0.760882 0.140850 -0.826764
C73   C     C_3   0.947581 0.250722 0.997111 0.071076
C74   C     C_3   0.984539 0.239192 0.140669 -0.826187
C75   C     C_R   0.784698 0.278101 0.380490 -0.219993
C76   C     C_R   0.712680 0.776900 0.381804 -0.215787
H1    H     H_    0.306298 0.196430 0.283661 0.211513
H2    H     H_    0.420630 0.785910 0.745671 0.143225
H3    H     H_    0.920632 0.714053 0.745716 0.143304
H4    H     H_    0.920670 0.285902 0.745657 0.143225
H5    H     H_    0.685357 0.773120 0.974782 0.143002
H6    H     H_    0.685437 0.226744 0.974792 0.143041
H7    H     H_    0.185422 0.273213 0.974792 0.143015
H8    H     H_    0.185372 0.726792 0.974779 0.143063
H9    H     H_    0.601522 0.796374 0.766015 0.159899
H10   H     H_    0.601561 0.203590 0.766045 0.159897
H11   H     H_    0.101557 0.296400 0.766041 0.159891
H12   H     H_    0.306261 0.803610 0.283658 0.211457
H13   H     H_    0.101512 0.703625 0.766014 0.159886
H14   H     H_    0.684131 0.797514 0.285240 0.174162
H15   H     H_    0.684125 0.202497 0.285240 0.174176
H16   H     H_    0.184128 0.297510 0.285243 0.174163
H17   H     H_    0.184083 0.702534 0.285235 0.174191
H18   H     H_    0.638676 0.000019 0.133963 0.153713
H19   H     H_    0.138676 0.499985 0.133962 0.153729
H20   H     H_    0.330611 0.000001 0.245446 0.197239
H21   H     H_    0.830611 0.500005 0.245446 0.197226
H22   H     H_    0.192197 0.999999 0.119879 0.137743
H23   H     H_    0.806298 0.696430 0.283662 0.211594
H24   H     H_    0.692197 0.500016 0.119879 0.137740
H25   H     H_    0.742648 0.940381 0.989964 0.141925
H26   H     H_    0.742747 0.059473 0.990028 0.142006
H27   H     H_    0.813041 0.058811 0.763316 0.256014
H28   H     H_    0.880076 0.999810 0.886903 0.192576
H29   H     H_    0.812908 0.941067 0.763185 0.256036
H30   H     H_    0.242720 0.440481 0.990011 0.141967
H31   H     H_    0.242674 0.559571 0.989978 0.142012
H32   H     H_    0.312918 0.558868 0.763168 0.256075
H33   H     H_    0.380074 0.500123 0.886896 0.192603
H34   H     H_    0.806297 0.303577 0.283657 0.211463
H35   H     H_    0.313029 0.441127 0.763328 0.255962
H36   H     H_    0.463462 0.309412 0.938625 0.133363
H37   H     H_    0.481559 0.191968 0.952187 0.142555
H38   H     H_    0.557354 0.275646 0.137451 0.198522
H39   H     H_    0.449450 0.315309 0.192012 0.255138
H40   H     H_    0.474775 0.200147 0.199722 0.278555
H41   H     H_    0.481447 0.808215 0.952220 0.142553
H42   H     H_    0.463550 0.690738 0.938504 0.133343
H43   H     H_    0.449602 0.684609 0.191854 0.255044
H44   H     H_    0.557428 0.724597 0.137345 0.198441
H45   H     H_    0.191840 0.999998 0.869755 0.135863
H46   H     H_    0.474632 0.799853 0.199779 0.278549
H47   H     H_    0.963236 0.809584 0.938844 0.133393
H48   H     H_    0.981612 0.692170 0.952149 0.142500
H49   H     H_    0.057148 0.775947 0.137622 0.198585
H50   H     H_    0.949077 0.815107 0.192318 0.255250
H51   H     H_    0.974876 0.700036 0.199613 0.278551
H52   H     H_    0.981504 0.308192 0.952197 0.142539
H53   H     H_    0.963601 0.190716 0.938509 0.133356
H54   H     H_    0.949628 0.184638 0.191883 0.255070
H55   H     H_    0.057473 0.224555 0.137344 0.198450
H56   H     H_    0.691840 0.500014 0.869755 0.135862
H57   H     H_    0.974719 0.299867 0.199740 0.278538
H58   H     H_    0.329564 0.999999 0.748869 0.204691
H59   H     H_    0.829564 0.500001 0.748869 0.204679
H60   H     H_    0.420666 0.214079 0.745678 0.143260
N1    N     N_R   0.498810 0.000000 0.142780 -0.138551
N2    N     N_R   0.998810 0.500000 0.142780 -0.138596
N3    N     N_R   0.498740 0.000000 0.857170 -0.170559
N4    N     N_R   0.998740 0.500000 0.857170 -0.170550
O1    O     O_R   0.408390 0.908380 0.614690 -0.649534
O2    O     O_R   0.591620 0.908390 0.614640 -0.580237
O3    O     O_R   0.091620 0.591610 0.614640 -0.580215
O4    O     O_R   0.091620 0.408390 0.614640 -0.580220
O5    O     O_R   0.591610 0.091610 0.385310 -0.623937
O6    O     O_R   0.591610 0.908390 0.385310 -0.623917
O7    O     O_R   0.091610 0.591610 0.385310 -0.623956
O8    O     O_R   0.091610 0.408390 0.385310 -0.623926
O9    O     O_3   0.656370 0.000028 0.850156 -0.560883
O10   O     O_3   0.156370 0.499980 0.850157 -0.560898
O11   O     O_3   0.353964 0.234838 0.002453 -0.626400
O12   O     O_R   0.408390 0.091620 0.614690 -0.649526
O13   O     O_3   0.353923 0.765099 0.002465 -0.626437
O14   O     O_3   0.853900 0.734702 0.002451 -0.626365
O15   O     O_3   0.853978 0.265088 0.002456 -0.626442
O16   O     O_R   0.908390 0.408380 0.614690 -0.649541
O17   O     O_R   0.908390 0.591620 0.614690 -0.649538
O18   O     O_R   0.408370 0.908380 0.385360 -0.648172
O19   O     O_R   0.408370 0.091620 0.385360 -0.648115
O20   O     O_R   0.908370 0.408380 0.385360 -0.648162
O21   O     O_R   0.908370 0.591620 0.385360 -0.648090
O22   O     O_R   0.591620 0.091610 0.614640 -0.580206
Zn1   Zn    Zn3+2 0.500010 0.000000 0.653130 0.954477
Zn2   Zn    Zn3+2 0.000010 0.500000 0.653130 0.954492
Zn3   Zn    Zn3+2 0.499980 0.000000 0.346870 0.916653
Zn4   Zn    Zn3+2 0.999980 0.500000 0.346870 0.916645

loop_
_geom_bond_atom_site_label_1
_geom_bond_atom_site_label_2
_ccdc_geom_bond_type
C44   C49   A    
C33   C55   A    
C66   C68   S    
C66   H37   S    
C62   H26   S    
O8    Zn4   S    
C73   C74   S    
C12   O12   A    
C36   C42   A    
C4    C8    A    
C34   O21   A    
C16   H58   S    
N1    Zn3   S    
C39   C41   A    
O5    Zn3   S    
C61   C75   A    
C22   N1    A    
C22   C29   A    
C11   H22   S    
C71   H47   S    
C1    O18   A    
C62   O9    S    
C3    C7    A    
C1    C59   S    
C11   C14   A    
C56   H12   S    
C6    C25   S    
C74   H57   S    
C69   H42   S    
C31   H60   S    
C69   H41   S    
C26   O6    A    
C65   H35   S    
C15   H56   S    
C60   C67   A    
C70   H44   S    
C19   N4    A    
C17   H59   S    
C27   O3    A    
C41   C46   A    
C28   O4    A    
O20   Zn4   S    
C63   H29   S    
C43   C48   A    
C70   H43   S    
C65   H32   S    
C2    H15   S    
O21   Zn4   S    
C67   H23   S    
C62   H25   S    
C12   C58   S    
C14   H45   S    
C55   C60   A    
C4    C56   A    
C34   C60   S    
C43   H8    S    
C22   H18   S    
C5    C49   A    
C2    C6    A    
C21   N2    A    
C32   C54   A    
C52   C54   A    
C40   C44   A    
C54   C59   A    
C10   C21   A    
C29   N3    A    
C73   H53   S    
C45   C58   A    
C28   O8    A    
C30   N4    A    
C72   H51   S    
C37   O13   S    
C71   H48   S    
C1    O1    A    
C63   H27   S    
C24   H19   S    
O2    Zn1   S    
C4    H17   S    
C33   H3    S    
C47   C51   A    
C18   N3    A    
C24   N2    A    
C49   C55   A    
C71   O14   S    
C29   O9    S    
C3    C45   A    
C69   O13   S    
C7    C28   S    
O19   Zn3   S    
C39   O15   S    
C3    H16   S    
C51   C53   A    
C47   H11   S    
C20   N1    A    
C37   C43   A    
C10   H21   S    
C35   C39   A    
C62   C63   S    
C64   O10   S    
O7    Zn4   S    
C70   H46   S    
C9    C20   A    
O17   Zn2   S    
C23   C61   S    
C25   O22   A    
C23   O20   A    
C73   O15   S    
C32   C37   A    
C6    C50   A    
C64   H30   S    
C9    C11   A    
C9    H20   S    
C65   H33   S    
C68   H40   S    
C16   C18   A    
O6    Zn3   S    
O1    Zn1   S    
C48   H13   S    
C13   C15   A    
C14   C16   A    
C31   C53   A    
C38   O14   S    
C44   H9    S    
O3    Zn2   S    
C64   H31   S    
C76   H14   S    
O22   Zn1   S    
C15   C17   A    
C8    C52   A    
C75   H34   S    
C19   C21   A    
C50   C57   A    
C40   H5    S    
C42   H7    S    
C23   O16   A    
C63   H28   S    
C10   C13   A    
C25   O5    A    
C53   C58   A    
C36   O11   S    
C57   C61   A    
N4    Zn2   S    
C73   H52   S    
C46   C50   A    
C33   C38   A    
C56   C59   A    
N2    Zn4   S    
C72   H49   S    
C35   C57   A    
C64   C65   S    
C5    C76   A    
C74   H54   S    
C7    C51   A    
C66   O11   S    
C26   O2    A    
C38   C40   A    
C13   H24   S    
C41   H6    S    
N3    Zn1   S    
C17   C19   A    
C18   C20   A    
C42   C47   A    
C12   O19   A    
C69   C70   S    
C24   C30   A    
O12   Zn1   S    
C30   O10   S    
C68   H39   S    
C32   H2    S    
C5    C26   S    
C34   O17   A    
C35   H4    S    
C48   C52   A    
C71   C72   S    
O16   Zn2   S    
C27   O7    A    
C72   H50   S    
C8    C27   S    
C31   C36   A    
C45   H1    S    
C67   C76   A    
C66   H36   S    
C74   H55   S    
O4    Zn2   S    
C2    C75   A    
O18   Zn3   S    
C68   H38   S    
C46   H10   S    
