data_mof_unit_11069.cif
_audit_creation_date              2013-03-05T15:55:20-0500
_audit_creation_method            fapswitch 2.2
_symmetry_space_group_name_H-M    P1
_symmetry_Int_Tables_number       1
_space_group_crystal_system       triclinic
_cell_length_a                    27.724674
_cell_length_b                    10.592572
_cell_length_c                    9.914492
_cell_angle_alpha                 90.085411
_cell_angle_beta                  89.742132
_cell_angle_gamma                 91.756827
_cell_volume                      2910.24366823

loop_
_atom_site_label
_atom_site_type_symbol
_atom_site_description
_atom_site_fract_x
_atom_site_fract_y
_atom_site_fract_z
_atom_type_partial_charge
O1    O     O_R   0.500000 0.316780 0.614690 -0.634921
O2    O     O_R   0.500000 0.316750 0.385360 -0.630960
C1    C     C_R   0.500675 0.260749 0.499980 0.853546
O3    O     O_R   0.428760 0.500030 0.614650 -0.631700
O4    O     O_R   0.428750 0.500010 0.385320 -0.643592
C2    C     C_R   0.406126 0.500167 0.500193 0.860725
Zn1   Zn    Zn3+2 0.500000 0.500020 0.653130 0.936722
Zn2   Zn    Zn3+2 0.500000 0.499980 0.346870 0.939284
O5    O     O_R   0.500000 0.683250 0.614640 -0.610764
O6    O     O_R   0.500000 0.683220 0.385310 -0.610503
O7    O     O_R   0.571250 0.499990 0.614680 -0.632913
O8    O     O_R   0.571240 0.499970 0.385350 -0.614883
C3    C     C_R   0.500781 0.739366 0.500038 0.874051
C4    C     C_R   0.593863 0.500777 0.499778 0.833340
C5    C     C_R   0.176273 0.390544 0.477844 0.491134
O9    O     O_2   0.199810 0.283669 0.450722 -0.565199
N1    N     N_R   0.201751 0.500108 0.503671 -0.359180
C6    C     C_R   0.179535 0.610007 0.533308 0.491173
C7    C     C_R   0.278181 0.524674 0.377989 0.206543
C8    C     C_R   0.328763 0.524907 0.380107 -0.222917
C9    C     C_R   0.327734 0.477166 0.619750 -0.221215
C10   C     C_R   0.277784 0.476650 0.619210 -0.121839
C11   C     C_R   0.253108 0.499943 0.499727 0.271803
C12   C     C_R   0.101928 0.501959 0.506674 -0.054066
C13   C     C_R   0.125819 0.389301 0.478960 -0.016929
C14   C     C_R   0.099019 0.278739 0.451381 -0.141319
C15   C     C_R   0.129172 0.613209 0.534816 -0.020142
C16   C     C_R   0.353479 0.500916 0.500242 -0.092129
H1    H     H_    0.346118 0.458198 0.713401 0.169246
H2    H     H_    0.257991 0.458190 0.711897 0.143777
H3    H     H_    0.116608 0.191456 0.427598 0.189189
C17   C     C_R   0.646476 0.502362 0.499540 -0.027665
C18   C     C_R   0.972865 0.390535 0.490744 0.058442
C19   C     C_R   0.976534 0.621994 0.514831 0.008473
C20   C     C_R   0.949322 0.507648 0.501811 0.067869
C21   C     C_R   0.944485 0.277708 0.488301 -0.221090
C22   C     C_R   0.894700 0.280065 0.489671 -0.150615
C23   C     C_R   0.871265 0.394702 0.494221 -0.003383
C24   C     C_R   0.898194 0.509964 0.500111 -0.084545
C25   C     C_R   0.873992 0.626450 0.504368 -0.060944
C26   C     C_R   0.822850 0.621166 0.504767 0.493906
N2    N     N_R   0.798283 0.507610 0.499515 -0.354182
C27   C     C_R   0.821079 0.395897 0.494309 0.496117
C28   C     C_R   0.721904 0.478344 0.380411 -0.106379
C29   C     C_R   0.671799 0.476855 0.380176 -0.207627
C30   C     C_R   0.671822 0.529851 0.618821 -0.237404
C31   C     C_R   0.721906 0.531331 0.618710 -0.109344
C32   C     C_R   0.746884 0.505613 0.499587 0.340107
O10   O     O_2   0.794969 0.286169 0.490204 -0.569314
C33   C     C_R   0.023883 0.389618 0.483506 0.044538
C34   C     C_R   0.050888 0.503465 0.505907 0.071467
C35   C     C_R   0.027403 0.618927 0.527170 0.058001
C36   C     C_R   0.048998 0.278641 0.453375 -0.222230
H4    H     H_    0.652964 0.455179 0.287109 0.160399
H5    H     H_    0.741408 0.458619 0.288255 0.133288
H6    H     H_    0.874572 0.190828 0.486998 0.184213
H7    H     H_    0.959611 0.185238 0.488860 0.135387
H8    H     H_    0.031081 0.190430 0.426985 0.139129
O11   O     O_2   0.206229 0.715735 0.560115 -0.557986
C37   C     C_R   0.105721 0.724620 0.564372 -0.140415
H9    H     H_    0.349314 0.543291 0.289010 0.182946
H10   H     H_    0.125898 0.810523 0.589860 0.191973
C38   C     C_R   0.952244 0.736683 0.511962 -0.242966
C39   C     C_R   0.901983 0.741592 0.506493 0.184074
O12   O     O_2   0.797229 0.726987 0.510608 -0.578810
C40   C     C_R   0.055778 0.727550 0.561358 -0.223096
H11   H     H_    0.972042 0.825761 0.509890 0.136873
H12   H     H_    0.653021 0.550565 0.711883 0.154696
H13   H     H_    0.741387 0.552352 0.710875 0.130403
H14   H     H_    0.040457 0.815984 0.590029 0.141965
H15   H     H_    0.430604 0.109392 0.424979 0.138345
C41   C     C_R   0.587659 0.138831 0.582297 -0.189251
H16   H     H_    0.588984 0.240780 0.578791 0.148812
C42   C     C_R   0.629060 0.076874 0.623523 0.279167
C43   C     C_R   0.628815 0.944708 0.622346 -0.204808
H17   H     H_    0.660624 0.894945 0.651994 0.151590
C44   C     C_R   0.587586 0.875613 0.583079 -0.222410
H18   H     H_    0.589138 0.773705 0.582908 0.148421
C45   C     C_R   0.545569 0.937694 0.543208 0.088490
C46   C     C_R   0.545609 0.069744 0.542850 0.044685
C47   C     C_R   0.503478 0.128705 0.499897 -0.059831
C48   C     C_R   0.462684 0.061498 0.456201 -0.227399
H19   H     H_    0.430794 0.879600 0.422586 0.149401
C49   C     C_R   0.462743 0.932492 0.455580 -0.196581
C50   C     C_R   0.503463 0.871872 0.500111 -0.078014
H20   H     H_    0.554485 0.641310 0.124743 0.147460
C51   C     C_R   0.436831 0.333349 0.140140 -0.180810
H21   H     H_    0.435603 0.327690 0.247090 0.209021
C52   C     C_R   0.405385 0.250826 0.070191 0.191458
C53   C     C_R   0.405325 0.253346 0.929917 -0.248473
H22   H     H_    0.381467 0.190204 0.873402 0.156508
C54   C     C_R   0.436418 0.335572 0.860249 -0.198545
H23   H     H_    0.434378 0.330203 0.753314 0.214070
C55   C     C_R   0.468615 0.418874 0.927918 0.173323
C56   C     C_R   0.468695 0.418453 0.072377 0.125562
N3    N     N_R   0.499540 0.498800 0.142780 -0.115662
C57   C     C_R   0.529979 0.577766 0.071235 -0.106611
H24   H     H_    0.554543 0.641051 0.874106 0.144029
C58   C     C_R   0.530009 0.577621 0.928121 -0.113354
N4    N     N_R   0.499520 0.498720 0.857170 -0.116274
C59   C     C_3   0.249730 0.549551 0.250170 -0.404316
C60   C     C_3   0.279660 0.582169 0.124194 -0.879015
H25   H     H_    0.302407 0.668774 0.141535 0.266474
H26   H     H_    0.302667 0.502410 0.095451 0.255930
H27   H     H_    0.255070 0.600398 0.038757 0.263597
H28   H     H_    0.226687 0.464624 0.227230 0.223024
H29   H     H_    0.225533 0.629390 0.269408 0.225818
C61   C     C_3   0.881234 0.872934 0.502851 -0.345964
C62   C     C_3   0.866404 0.916304 0.643776 -0.774364
H30   H     H_    0.848261 0.008026 0.636839 0.250594
H31   H     H_    0.841368 0.846607 0.692851 0.284364
H32   H     H_    0.898898 0.929043 0.708118 0.234297
H33   H     H_    0.908525 0.943184 0.464079 0.162606
H34   H     H_    0.851384 0.878927 0.429495 0.249942
N5    N     N_2   0.671558 0.147433 0.660446 -0.286078
H35   H     H_    0.702439 0.095533 0.663166 0.245540
C63   C     C_3   0.666696 0.227820 0.777599 -0.760671
H36   H     H_    0.701204 0.281181 0.795186 0.246182
H37   H     H_    0.657979 0.169689 0.868227 0.234866
H38   H     H_    0.638032 0.297210 0.762277 0.247106
C64   C     C_3   0.373456 0.155904 0.144811 -0.440276
C65   C     C_3   0.336876 0.219620 0.235805 -0.814361
H39   H     H_    0.355466 0.271591 0.318755 0.246240
H40   H     H_    0.315052 0.285725 0.176539 0.268879
H41   H     H_    0.312227 0.146792 0.281426 0.270890
H42   H     H_    0.353312 0.093669 0.072750 0.217748
H43   H     H_    0.396303 0.094136 0.206321 0.206999

loop_
_geom_bond_atom_site_label_1
_geom_bond_atom_site_label_2
_geom_bond_distance
_ccdc_geom_bond_type
C59   H29   1.111203 S    
C28   C32   1.397598 A    
C51   H21   1.062474 S    
C59   C60   1.530451 S    
C26   N2    1.365052 A    
C20   C24   1.418659 A    
C56   N3    1.379075 A    
Zn2   N3    2.023564 S    
C12   C15   1.408326 A    
C47   C48   1.388414 A    
C40   H14   1.077614 S    
C44   H18   1.081641 S    
Zn1   O7    2.010154 S    
N1    C11   1.424263 S    
H19   C49   1.084970 S    
C54   H23   1.063309 S    
C21   C22   1.381280 A    
C64   H43   1.109641 S    
C15   C37   1.394853 A    
C63   H37   1.111527 S    
O4    C2    1.297752 A    
O7    C4    1.297758 A    
C5    C13   1.398448 A    
C5    O9    1.350025 S    
C18   C21   1.410825 A    
C61   C62   1.528643 S    
C60   H27   1.110551 S    
C37   H10   1.083582 S    
C19   C20   1.413241 A    
C17   C29   1.403437 A    
C61   H34   1.107550 S    
C8    H9    1.080451 S    
H20   C57   1.081788 S    
O5    C3    1.282882 A    
C31   H13   1.082935 S    
C22   H6    1.083195 S    
C2    C16   1.459889 S    
C7    C8    1.402522 A    
N5    C63   1.447421 S    
C51   C56   1.411409 A    
C1    C47   1.403222 S    
C39   C61   1.522242 S    
C41   H16   1.080005 S    
H15   C48   1.083903 S    
C12   C34   1.415712 A    
C37   C40   1.386398 A    
C14   H3    1.083594 S    
C9    C10   1.384739 A    
C55   C56   1.432260 A    
O3    Zn1   2.013306 S    
C57   C58   1.418902 A    
N1    C6    1.364624 A    
C44   C45   1.413356 A    
C38   H11   1.077136 S    
C33   C36   1.415357 A    
Zn1   N4    2.023000 S    
C34   C35   1.418099 A    
C31   C32   1.397101 A    
C12   C13   1.408598 A    
C41   C42   1.402321 A    
C21   H7    1.077273 S    
C42   C43   1.399819 A    
C62   H32   1.110937 S    
C24   C25   1.422969 A    
C27   O10   1.350989 S    
C26   O12   1.346363 S    
C8    C16   1.404191 A    
C13   C14   1.394970 A    
C9    H1    1.083217 S    
C38   C39   1.397325 A    
O1    C1    1.282382 A    
C61   H33   1.112509 S    
C7    C11   1.410983 A    
C43   H17   1.083193 S    
C30   H12   1.083161 S    
C22   C23   1.395229 A    
C53   C54   1.388965 A    
C58   N4    1.366796 A    
C55   N4    1.376011 A    
Zn2   O8    2.013303 S    
N3    C57   1.366777 A    
C54   C55   1.407430 A    
C33   C34   1.417569 A    
N2    C32   1.424531 S    
C49   C50   1.389797 A    
C60   H26   1.110196 S    
C43   C44   1.394875 A    
C64   C65   1.526386 S    
O3    C2    1.299220 A    
C25   C26   1.417264 A    
C9    C16   1.399623 A    
O8    C4    1.298693 A    
C29   H4    1.083116 S    
C48   C49   1.366569 A    
C51   C52   1.400734 A    
C63   H38   1.110002 S    
N2    C27   1.359326 A    
C65   H40   1.110001 S    
C52   C53   1.391049 A    
C14   C36   1.386828 A    
C45   C50   1.408961 A    
C35   C40   1.415409 A    
C28   C29   1.388766 A    
C59   H28   1.111132 S    
C5    N1    1.364535 A    
C30   C31   1.388149 A    
C10   H2    1.083155 S    
O1    Zn1   1.977488 S    
C17   C30   1.403952 A    
O2    Zn2   1.978593 S    
C6    C15   1.397761 A    
C4    C17   1.458232 S    
C46   C47   1.409210 A    
O6    C3    1.282742 A    
O4    Zn2   2.010157 S    
C36   H8    1.077142 S    
C19   C35   1.417564 A    
C25   C39   1.425572 A    
C65   H41   1.110266 S    
C62   H31   1.109147 S    
O2    C1    1.283166 A    
C18   C33   1.416290 A    
C64   H42   1.111995 S    
C41   C46   1.413705 A    
C62   H30   1.110040 S    
C7    C59   1.523275 S    
C28   H5    1.082940 S    
C53   H22   1.083479 S    
C23   C24   1.412711 A    
C52   C64   1.511178 S    
C42   N5    1.424744 S    
C19   C38   1.407336 A    
C18   C20   1.423219 A    
C60   H25   1.110821 S    
C45   C46   1.398724 A    
Zn1   O5    1.978596 S    
C6    O11   1.350061 S    
C23   C27   1.391821 A    
Zn2   O6    1.977487 S    
H24   C58   1.081974 S    
C3    C50   1.403271 S    
C10   C11   1.396678 A    
C65   H39   1.109100 S    
C63   H36   1.110539 S    
N5    H35   1.032035 S    
