data_mof_unit_53128.cif
_audit_creation_date              2012-12-11T17:14:56-0500
_audit_creation_method            fapswitch 2.2
_symmetry_space_group_name_H-M    P1
_symmetry_Int_Tables_number       1
_space_group_crystal_system       triclinic
_cell_length_a                    7.2211
_cell_length_b                    12.16379
_cell_length_c                    21.289192
_cell_angle_alpha                 90.012593
_cell_angle_beta                  90.657389
_cell_angle_gamma                 90.156336
_cell_volume                      1869.82617363

loop_
_atom_site_label
_atom_site_type_symbol
_atom_type_description
_atom_site_fract_x
_atom_site_fract_y
_atom_site_fract_z
_atom_type_partial_charge
O1    O     O_R   0.354460 0.152320 0.595720 -0.533165
O2    O     O_R   0.645540 0.847680 0.404280 -0.533165
O3    O     O_R   0.145540 0.652320 0.404280 -0.533014
O4    O     O_R   0.854460 0.347680 0.595720 -0.533014
O5    O     O_R   0.683670 0.140090 0.727290 -0.540062
O6    O     O_R   0.316330 0.859910 0.272710 -0.540061
O7    O     O_R   0.816330 0.640090 0.272710 -0.539550
O8    O     O_R   0.183670 0.359910 0.727290 -0.539551
O9    O     O_R   0.854010 0.349340 0.727750 -0.537626
O10   O     O_R   0.145990 0.650660 0.272250 -0.537627
O11   O     O_R   0.645990 0.849340 0.272250 -0.536730
O12   O     O_R   0.354010 0.150660 0.727750 -0.536730
C1    C     C_R   0.516256 0.111861 0.746667 0.705428
C2    C     C_R   0.483743 0.888139 0.253333 0.705429
C3    C     C_R   0.983195 0.611720 0.253343 0.705411
C4    C     C_R   0.016805 0.388279 0.746657 0.705410
O13   O     O_R   0.684170 0.139420 0.596190 -0.535722
O14   O     O_R   0.315830 0.860580 0.403810 -0.535722
O15   O     O_R   0.815830 0.639420 0.403810 -0.535959
O16   O     O_R   0.184170 0.360580 0.596190 -0.535959
C5    C     C_R   0.514930 0.113106 0.574470 0.716741
C6    C     C_R   0.485070 0.886893 0.425530 0.716742
C7    C     C_R   0.984881 0.613085 0.425538 0.716557
C8    C     C_R   0.015119 0.386915 0.574462 0.716557
O17   O     O_3   0.520730 0.319480 0.661730 -0.376772
O18   O     O_3   0.479270 0.680520 0.338270 -0.376772
O19   O     O_3   0.979270 0.819480 0.338270 -0.376442
O20   O     O_3   0.020730 0.180520 0.661730 -0.376443
V1    V     V_3+5 0.795560 0.238090 0.661730 1.425802
V2    V     V_3+5 0.204440 0.761910 0.338270 1.425802
V3    V     V_3+5 0.704440 0.738090 0.338270 1.425156
V4    V     V_3+5 0.295560 0.261910 0.661730 1.425157
C9    C     C_R   0.014221 0.468411 0.797792 -0.042637
C10   C     C_R   0.985778 0.531588 0.202209 -0.042637
C11   C     C_R   0.489695 0.968022 0.202193 -0.040948
C12   C     C_R   0.510302 0.031977 0.797807 -0.040950
C13   C     C_R   0.047019 0.653336 0.838008 -0.166254
C14   C     C_R   0.952940 0.346666 0.161993 -0.166256
C15   C     C_R   0.506548 0.154000 0.162823 -0.166606
C16   C     C_R   0.493429 0.846000 0.837176 -0.166602
C17   C     C_R   0.041226 0.581314 0.786802 0.150228
C18   C     C_R   0.958737 0.418688 0.213199 0.150229
C19   C     C_R   0.499601 0.081684 0.213816 0.150034
C20   C     C_R   0.500388 0.918316 0.786184 0.150033
C21   C     C_R   0.994998 0.428790 0.858912 -0.263768
C22   C     C_R   0.005029 0.571205 0.141089 -0.263773
C23   C     C_R   0.487892 0.927912 0.140766 -0.263682
C24   C     C_R   0.512100 0.072087 0.859234 -0.263682
C25   C     C_R   0.005368 0.499831 0.911304 0.081369
C26   C     C_R   0.994636 0.500166 0.088697 0.081370
C27   C     C_R   0.495888 0.999515 0.088694 0.082061
C28   C     C_R   0.504088 0.000485 0.911306 0.082060
C29   C     C_R   0.030332 0.613701 0.899595 0.088949
C30   C     C_R   0.969649 0.386299 0.100405 0.088951
C31   C     C_R   0.504637 0.114087 0.100946 0.088486
C32   C     C_R   0.495332 0.885913 0.899053 0.088485
C33   C     C_R   0.993762 0.461474 0.974677 0.063402
C34   C     C_R   0.006242 0.538524 0.025324 0.063402
C35   C     C_R   0.495819 0.961155 0.025152 0.063552
C36   C     C_R   0.504147 0.038845 0.974847 0.063552
C37   C     C_R   0.028711 0.651301 0.010876 -0.191536
C38   C     C_R   0.971275 0.348697 0.989125 -0.191534
C39   C     C_R   0.511850 0.152173 0.989777 -0.192122
C40   C     C_R   0.488107 0.847828 0.010223 -0.192121
C41   C     C_R   0.040193 0.687639 0.949367 -0.191969
C42   C     C_R   0.959779 0.312360 0.050634 -0.191970
C43   C     C_R   0.511848 0.188532 0.051460 -0.193270
C44   C     C_R   0.488109 0.811469 0.948540 -0.193270
H1    H     H_    0.058297 0.774868 0.940728 0.139760
H2    H     H_    0.941655 0.225134 0.059272 0.139761
H3    H     H_    0.518259 0.276238 0.060481 0.139130
H4    H     H_    0.481691 0.723763 0.939518 0.139131
H5    H     H_    0.024323 0.658603 0.136446 0.107208
H6    H     H_    0.975745 0.341388 0.863556 0.107204
H7    H     H_    0.519509 0.160057 0.864280 0.105885
H8    H     H_    0.480493 0.839942 0.135719 0.105885
H9    H     H_    0.067027 0.740607 0.829948 0.127850
H10   H     H_    0.932908 0.259397 0.170053 0.127851
H11   H     H_    0.514102 0.241847 0.171331 0.127886
H12   H     H_    0.485869 0.758154 0.828668 0.127887
H13   H     H_    0.038461 0.714759 0.045943 0.128265
H14   H     H_    0.961507 0.285241 0.954057 0.128266
H15   H     H_    0.518198 0.216085 0.954973 0.128801
H16   H     H_    0.481747 0.783916 0.045026 0.128801
C45   C     C_1   0.995352 0.533114 0.478073 -0.173677
C46   C     C_1   0.004648 0.466886 0.521927 -0.173677
C47   C     C_1   0.504403 0.033130 0.521931 -0.173483
C48   C     C_1   0.495597 0.966870 0.478069 -0.173483
C49   C     C_3   0.936258 0.374642 0.278819 -0.803414
H17   H     H_    0.918837 0.283861 0.279035 0.214492
H18   H     H_    0.060566 0.395477 0.307665 0.200328
H19   H     H_    0.812077 0.411586 0.300598 0.208262
C50   C     C_3   0.063674 0.625364 0.721181 -0.803411
H20   H     H_    0.081065 0.716148 0.720964 0.214491
H21   H     H_    0.187862 0.588436 0.699398 0.208255
H22   H     H_    0.939366 0.604516 0.692338 0.200331
C51   C     C_3   0.496480 0.873884 0.720125 -0.805275
H23   H     H_    0.487969 0.782678 0.719450 0.214478
H24   H     H_    0.374054 0.906747 0.694358 0.202741
H25   H     H_    0.624349 0.899045 0.695399 0.205425
C52   C     C_3   0.503514 0.126116 0.279875 -0.805282
H26   H     H_    0.512019 0.217323 0.280549 0.214478
H27   H     H_    0.375650 0.100952 0.304603 0.205428
H28   H     H_    0.625946 0.093257 0.305639 0.202741

loop_
_geom_bond_atom_site_label_1
_geom_bond_atom_site_label_2
_ccdc_geom_bond_type
C47   C48   T    
C5    C47   S    
O1    C5    A    
C52   H26   S    
O13   V1    S    
O3    C7    A    
C10   C18   A    
O15   V3    S    
C51   H23   S    
C25   C33   A    
C33   C38   A    
C45   C46   T    
C35   C40   A    
C50   H20   S    
C36   C39   A    
C40   C44   A    
O20   V1    S    
O9    C4    A    
C23   H8    S    
C14   C18   A    
O10   C3    A    
O4    C8    A    
O11   C2    A    
C41   H1    S    
C43   H3    S    
C9    C21   A    
C40   H16   S    
C28   C36   A    
C15   C31   A    
O16   C8    A    
C16   C32   A    
O2    C6    A    
C16   H12   S    
C10   C22   A    
C6    C48   S    
C49   H18   S    
C11   C19   A    
C3    C10   S    
O5    C1    A    
O4    V1    S    
O9    V1    S    
C13   C29   A    
C34   C37   A    
O7    C3    A    
C38   H14   S    
C11   C23   A    
C35   C36   A    
O8    C4    A    
O12   V4    S    
O19   V2    S    
C24   H7    S    
C51   H24   S    
O5    V1    S    
C39   C43   A    
O7    V3    S    
C38   C42   A    
O8    V4    S    
C1    C12   S    
C2    C11   S    
C23   C27   A    
C14   H10   S    
C32   C44   A    
C13   H9    S    
O1    V4    S    
O13   C5    A    
C39   H15   S    
O2    V3    S    
C26   C34   A    
O3    V2    S    
O15   C7    A    
C19   C52   S    
C4    C9    S    
O6    C2    A    
C20   C51   S    
O10   V2    S    
C31   C43   A    
C14   C30   A    
C21   C25   A    
C44   H4    S    
C26   C30   A    
C49   H19   S    
O14   V2    S    
O6    V2    S    
C16   C20   A    
C50   H22   S    
C12   C20   A    
C27   C35   A    
C51   H25   S    
C29   C41   A    
O16   V4    S    
O14   C6    A    
O18   V3    S    
C15   C19   A    
C30   C42   A    
C52   H28   S    
C22   C26   A    
C52   H27   S    
C18   C49   S    
C17   C50   S    
C9    C17   A    
C37   H13   S    
C33   C34   A    
C42   H2    S    
O17   V4    S    
C25   C29   A    
C12   C24   A    
C27   C31   A    
C13   C17   A    
O11   V3    S    
C37   C41   A    
C24   C28   A    
O12   C1    A    
C50   H21   S    
C7    C45   S    
C21   H6    S    
C49   H17   S    
C8    C46   S    
C22   H5    S    
C28   C32   A    
C15   H11   S    
