data_mof_unit_11836.cif
_audit_creation_date              2012-12-11T15:53:42-0500
_audit_creation_method            fapswitch 2.2
_symmetry_space_group_name_H-M    P1
_symmetry_Int_Tables_number       1
_space_group_crystal_system       triclinic
_cell_length_a                    10.684224
_cell_length_b                    10.74137
_cell_length_c                    17.078843
_cell_angle_alpha                 80.512463
_cell_angle_beta                  99.45911
_cell_angle_gamma                 118.757971
_cell_volume                      1686.55321056

loop_
_atom_site_label
_atom_site_type_symbol
_atom_type_description
_atom_site_fract_x
_atom_site_fract_y
_atom_site_fract_z
_atom_type_partial_charge
C1    C     C_R   0.361197 0.229238 0.627485 0.546893
C2    C     C_1   0.320520 0.159255 0.778067 -0.046471
C3    C     C_1   0.331319 0.670210 0.278942 -0.066310
C4    C     C_R   0.369693 0.654280 0.586070 0.543411
C5    C     C_1   0.318876 0.680056 0.208204 -0.064693
C6    C     C_R   0.854706 0.678859 0.165231 0.009889
C7    C     C_R   0.900452 0.595634 0.221531 0.002728
C8    C     C_R   0.893198 0.590159 0.300930 -0.013419
C9    C     C_R   0.836373 0.786799 0.275037 0.126115
C10   C     C_R   0.826845 0.780132 0.191723 0.129907
C11   C     C_3   0.860368 0.441131 0.225650 -0.268313
C12   C     C_R   0.389927 0.827041 0.674162 -0.147907
C13   C     C_3   0.850454 0.433603 0.313796 -0.264176
C14   C     C_R   0.848096 0.675477 0.328720 -0.012810
C15   C     C_R   0.325356 0.158493 0.162216 0.016845
C16   C     C_R   0.776821 0.618807 0.626879 0.549420
C17   C     C_R   0.229785 0.191243 0.187833 0.013303
C18   C     C_R   0.227163 0.194893 0.266971 0.031606
C19   C     C_R   0.420120 0.132280 0.300098 -0.166901
C20   C     C_R   0.418412 0.123500 0.219175 -0.160406
C21   C     C_3   0.208823 0.319715 0.162206 -0.284369
C22   C     C_3   0.204017 0.323978 0.249350 -0.245338
C23   C     C_R   0.374162 0.848568 0.749923 -0.167978
C24   C     C_R   0.326388 0.172584 0.323990 0.019978
C25   C     C_R   0.892097 0.702125 0.855806 0.538096
C26   C     C_R   0.282906 0.749532 0.882830 0.563565
C27   C     C_R   0.284218 0.113951 0.857602 0.554972
C28   C     C_R   0.351214 0.226689 0.399764 0.541379
C29   C     C_R   0.888461 0.691820 0.084627 0.568500
C30   C     C_R   0.310776 0.703966 0.124898 0.549733
C31   C     C_R   0.287259 0.108912 0.084481 0.549061
C32   C     C_R   0.363514 0.655919 0.361664 0.545604
C33   C     C_R   0.775595 0.624898 0.401061 0.548676
C34   C     C_3   0.150699 0.450096 0.797381 0.027695
C35   C     C_R   0.284635 0.732658 0.800180 0.008188
C36   C     C_R   0.194197 0.603608 0.767397 0.036432
C37   C     C_R   0.206092 0.583090 0.691813 -0.021230
C38   C     C_3   0.406230 0.505690 0.851754 -0.274108
C39   C     C_3   0.736358 0.945039 0.293193 -0.251146
C40   C     C_3   0.857725 0.009962 0.119792 -0.243490
C41   C     C_3   0.160429 0.427321 0.713214 -0.201172
C42   C     C_R   0.315657 0.689179 0.647954 0.007229
C43   C     C_1   0.823139 0.656683 0.706025 -0.039255
C44   C     C_1   0.851039 0.684742 0.773685 -0.044466
C45   C     C_1   0.345107 0.187192 0.709743 -0.059613
Cr1   Cr    Cr6+3 0.608440 0.389080 0.519680 1.010476
Cr2   Cr    Cr6+3 0.288640 0.400090 0.490760 1.005636
Cr3   Cr    Cr6+3 0.602940 0.710800 0.489510 1.002751
Cr4   Cr    Cr6+3 0.052530 0.947560 0.964210 1.014444
Cr5   Cr    Cr6+3 0.059970 0.626800 0.992920 0.994956
Cr6   Cr    Cr6+3 0.373320 0.938440 0.995370 0.999682
H1    H     H_    0.470210 0.914872 0.639866 0.144429
H2    H     H_    0.097506 0.302014 0.264452 0.138076
H3    H     H_    0.439776 0.952772 0.771281 0.138725
H4    H     H_    0.039084 0.391622 0.814686 0.133540
H5    H     H_    0.243619 0.396597 0.707624 0.168455
H6    H     H_    0.053830 0.360254 0.682153 0.120992
H7    H     H_    0.950053 0.424975 0.213036 0.147940
H8    H     H_    0.225415 0.406317 0.915116 0.269107
H9    H     H_    0.459287 0.444452 0.886992 0.140121
H10   H     H_    0.450717 0.609129 0.877008 0.168715
H11   H     H_    0.433014 0.525546 0.789399 0.143913
H12   H     H_    0.755244 0.378528 0.191682 0.134888
H13   H     H_    0.916984 0.936777 0.358473 0.254188
H14   H     H_    0.712483 0.955986 0.351739 0.161526
H15   H     H_    0.767382 0.049503 0.257258 0.118780
H16   H     H_    0.638432 0.861552 0.263443 0.170448
H17   H     H_    0.662892 0.825569 0.137738 0.258412
H18   H     H_    0.794721 0.066455 0.122101 0.100343
H19   H     H_    0.893426 0.035439 0.059164 0.176807
H20   H     H_    0.952108 0.049468 0.164277 0.183050
H21   H     H_    0.738732 0.364591 0.329517 0.164562
H22   H     H_    0.933522 0.411280 0.352155 0.142385
H23   H     H_    0.497843 0.114000 0.342940 0.122195
H24   H     H_    0.488197 0.088236 0.201522 0.134700
H25   H     H_    0.105031 0.295712 0.125863 0.131242
H26   H     H_    0.304297 0.411409 0.136756 0.136686
H27   H     H_    0.297573 0.417283 0.274213 0.158741
N1    N     N_2   0.252598 0.424882 0.857585 -0.493519
N2    N     N_2   0.854901 0.912106 0.304691 -0.509497
N3    N     N_2   0.769789 0.857601 0.134906 -0.500250
O1    O     O_R   0.754020 0.497590 0.609930 -0.509861
O2    O     O_R   0.406180 0.826930 0.920660 -0.517822
O3    O     O_R   0.358620 0.062870 0.901950 -0.523741
O4    O     O_R   0.481420 0.271390 0.600630 -0.496549
O5    O     O_R   0.163910 0.085460 0.050210 -0.527152
O6    O     O_R   0.935200 0.815170 0.045770 -0.474011
O7    O     O_R   0.916120 0.596690 0.069430 -0.526206
O8    O     O_R   0.192310 0.631200 0.086170 -0.496731
O9    O     O_R   0.406770 0.819480 0.096420 -0.527039
O10   O     O_R   0.359170 0.055960 0.064880 -0.508504
O11   O     O_3   0.161940 0.837600 0.984160 -0.272726
O12   O     O_R   0.295080 0.533620 0.397890 -0.506427
O13   O     O_R   0.263810 0.254550 0.589590 -0.518639
O14   O     O_R   0.300820 0.531200 0.560890 -0.503793
O15   O     O_R   0.491480 0.744020 0.564270 -0.520342
O16   O     O_R   0.726290 0.693800 0.583010 -0.497554
O17   O     O_R   0.747830 0.500190 0.434090 -0.522618
O18   O     O_R   0.475680 0.273800 0.437630 -0.507240
O19   O     O_R   0.257620 0.257160 0.413750 -0.521769
O20   O     O_R   0.485280 0.746620 0.388440 -0.533808
O21   O     O_R   0.720550 0.696220 0.420010 -0.495294
O22   O     O_3   0.500010 0.499990 0.499980 -0.247428
O23   O     O_R   0.163320 0.092900 0.874450 -0.491856
O24   O     O_R   0.934650 0.822080 0.882840 -0.495605
O25   O     O_R   0.915520 0.604140 0.893670 -0.525366
O26   O     O_R   0.191760 0.638110 0.923230 -0.505219

loop_
_geom_bond_atom_site_label_1
_geom_bond_atom_site_label_2
_ccdc_geom_bond_type
Cr1   O18   S    
C8    C13   S    
C40   H20   S    
H13   N2    S    
Cr4   O6    S    
C19   C20   A    
C30   O9    A    
Cr4   O23   S    
C25   O24   A    
C7    C8    A    
C7    C11   S    
Cr3   O16   S    
C21   H25   S    
C26   O2    A    
C40   H19   S    
C18   C24   A    
H17   N3    S    
C36   C37   A    
C11   H12   S    
Cr6   O9    S    
C34   N1    S    
C16   O16   A    
C38   N1    S    
C27   O23   A    
C33   O17   A    
C37   C42   A    
C29   O7    A    
C12   C42   A    
Cr6   O10   S    
C4    O15   A    
C35   C36   A    
C1    O13   A    
C2    C27   S    
C11   H7    S    
C9    C10   A    
Cr5   O7    S    
Cr1   O4    S    
C28   O19   A    
C32   O12   A    
Cr1   O17   S    
C34   H4    S    
C31   O5    A    
Cr1   O1    S    
C21   C22   S    
C39   H14   S    
C34   C41   S    
C14   C33   S    
C30   O8    A    
C40   N3    S    
C25   C44   S    
C12   H1    S    
C25   O25   A    
C22   H2    S    
C2    C45   T    
C1    O4    A    
C15   C20   A    
Cr2   O22   S    
C40   H18   S    
C33   O21   A    
C22   H27   S    
H8    N1    S    
C9    C14   A    
Cr4   O24   S    
Cr3   O22   S    
C17   C21   S    
Cr2   O19   S    
C20   H24   S    
C9    N2    S    
C43   C44   T    
C41   H5    S    
Cr6   O11   S    
C4    O14   A    
Cr5   O8    S    
C12   C23   A    
Cr3   O21   S    
C16   O1    A    
C17   C18   A    
Cr2   O12   S    
C16   C43   S    
C38   H9    S    
C28   O18   A    
Cr5   O11   S    
C13   H22   S    
C31   O10   A    
Cr5   O26   S    
C39   H15   S    
Cr4   O11   S    
Cr6   O2    S    
C23   H3    S    
C5    C30   S    
C15   C17   A    
C27   O3    A    
C8    C14   A    
Cr3   O15   S    
C18   C22   S    
C39   H16   S    
Cr4   O5    S    
C19   H23   S    
C24   C28   S    
C3    C5    T    
C26   O26   A    
C6    C10   A    
C15   C31   S    
C6    C7    A    
C13   H21   S    
Cr1   O22   S    
C10   N3    S    
C23   C35   A    
C39   N2    S    
C38   H10   S    
C19   C24   A    
C41   H6    S    
C11   C13   S    
C1    C45   S    
C4    C42   S    
Cr3   O20   S    
Cr2   O13   S    
C34   C36   S    
C37   C41   S    
C3    C32   S    
C29   O6    A    
C26   C35   S    
C6    C29   S    
C21   H26   S    
Cr5   O25   S    
Cr2   O14   S    
C32   O20   A    
Cr6   O3    S    
C38   H11   S    
