data_mof_unit_20675.cif
_audit_creation_date              2013-03-05T16:03:51-0500
_audit_creation_method            fapswitch 2.2
_symmetry_space_group_name_H-M    P1
_symmetry_Int_Tables_number       1
_space_group_crystal_system       triclinic
_cell_length_a                    6.941119
_cell_length_b                    17.826148
_cell_length_c                    19.310064
_cell_angle_alpha                 108.958252
_cell_angle_beta                  90.498153
_cell_angle_gamma                 91.098326
_cell_volume                      2258.99738436

loop_
_atom_site_label
_atom_site_type_symbol
_atom_site_description
_atom_site_fract_x
_atom_site_fract_y
_atom_site_fract_z
_atom_type_partial_charge
O1    O     O_R   0.505700 0.440210 0.561730 -0.606236
O2    O     O_R   0.169350 0.406300 0.412660 -0.563767
O3    O     O_R   0.005650 0.559790 0.438270 -0.540315
C1    C     C_R   0.335855 0.384627 0.383623 1.017689
O4    O     O_R   0.175560 0.430650 0.559600 -0.609533
O5    O     O_R   0.011900 0.584320 0.586250 -0.597349
C2    C     C_R   0.344122 0.415497 0.581204 0.930898
O6    O     O_R   0.499450 0.415680 0.413750 -0.584911
O7    O     O_3   0.341370 0.550390 0.508570 -0.258134
V1    V     V_3+5 0.063940 0.490650 0.498410 1.216253
O8    O     O_R   0.682570 0.593700 0.587340 -0.599147
C3    C     C_R   0.853289 0.616454 0.614984 0.923621
O9    O     O_R   0.676370 0.569350 0.440400 -0.588851
C4    C     C_R   0.846137 0.584028 0.418676 0.968687
V2    V     V_3+5 0.564750 0.509350 0.501590 1.199857
O10   O     O_3   0.837190 0.449610 0.491430 -0.280548
C5    C     C_R   0.740930 0.660761 0.261117 -0.148796
H1    H     H_    0.633937 0.650592 0.217679 0.146380
C6    C     C_R   0.725395 0.618660 0.310635 -0.086027
H2    H     H_    0.610456 0.575221 0.303173 0.182081
C7    C     C_R   0.860847 0.630615 0.367692 -0.121098
C8    C     C_R   0.016829 0.683905 0.372766 -0.086962
H3    H     H_    0.125630 0.693206 0.415481 0.117556
C9    C     C_R   0.031767 0.726715 0.323479 -0.097781
H4    H     H_    0.150478 0.768781 0.329367 0.126867
C10   C     C_R   0.891469 0.716632 0.268131 0.110784
C11   C     C_R   0.743400 0.813997 0.213633 -0.012904
C12   C     C_R   0.752355 0.855285 0.162890 -0.021061
H5    H     H_    0.630320 0.888534 0.156607 0.201851
C13   C     C_R   0.915637 0.854780 0.120428 -0.393366
C14   C     C_R   0.065652 0.802316 0.122346 0.369434
C15   C     C_R   0.056667 0.759972 0.172635 -0.130961
H6    H     H_    0.170663 0.719741 0.173980 0.181520
C16   C     C_R   0.898171 0.765544 0.218638 -0.093721
H7    H     H_    0.600987 0.656931 0.931957 0.160743
C17   C     C_R   0.065675 0.893605 0.748363 -0.171850
C18   C     C_R   0.136324 0.900530 0.683357 -0.108555
C19   C     C_R   0.118561 0.837052 0.618660 -0.117892
C20   C     C_R   0.030350 0.766143 0.618521 -0.155295
C21   C     C_R   0.959555 0.756879 0.683916 0.121632
C22   C     C_R   0.977316 0.821971 0.750184 0.110281
C23   C     C_R   0.868573 0.684877 0.683759 -0.301498
C24   C     C_R   0.795183 0.677930 0.749826 0.108752
C25   C     C_R   0.812731 0.743059 0.816082 0.098015
C26   C     C_R   0.903540 0.815076 0.816208 -0.296303
C27   C     C_R   0.707565 0.606197 0.751713 -0.162781
C28   C     C_R   0.637304 0.599232 0.816766 -0.105288
C29   C     C_R   0.654480 0.662803 0.881421 -0.060294
C30   C     C_R   0.742059 0.733799 0.881498 -0.090432
H8    H     H_    0.080124 0.945307 0.796808 0.121334
H9    H     H_    0.203863 0.955710 0.683125 0.122260
H10   H     H_    0.172136 0.842924 0.568138 0.112044
H11   H     H_    0.017045 0.719179 0.566432 0.095830
H12   H     H_    0.693506 0.554450 0.703283 0.125903
H13   H     H_    0.570461 0.543956 0.817062 0.145041
H14   H     H_    0.755050 0.780817 0.933561 0.123102
C31   C     C_R   0.249670 0.224482 0.378963 -0.177879
C32   C     C_R   0.221533 0.148113 0.381299 -0.094001
C33   C     C_R   0.275488 0.083744 0.322802 -0.155702
C34   C     C_R   0.357410 0.094994 0.260911 -0.059816
C35   C     C_R   0.368592 0.172011 0.253279 0.108643
C36   C     C_R   0.320460 0.238136 0.315445 0.111944
C37   C     C_R   0.426015 0.184858 0.186708 -0.258726
C38   C     C_R   0.437020 0.263821 0.184585 0.103089
C39   C     C_R   0.379626 0.329017 0.245766 -0.040279
C40   C     C_R   0.340068 0.316529 0.313500 -0.286743
C41   C     C_R   0.498250 0.278799 0.120800 -0.147157
C42   C     C_R   0.492501 0.354410 0.115186 -0.246342
C43   C     C_R   0.413380 0.416937 0.170597 -0.103089
C44   C     C_R   0.352525 0.404200 0.235835 0.304636
H15   H     H_    0.210034 0.272464 0.427094 0.108914
H16   H     H_    0.163665 0.138952 0.429899 0.122573
H17   H     H_    0.264167 0.024941 0.327726 0.146021
H18   H     H_    0.550758 0.232083 0.074063 0.116847
H19   H     H_    0.540271 0.362946 0.064918 0.141065
C45   C     C_R   0.528247 0.278983 0.681598 -0.099333
H20   H     H_    0.660749 0.249316 0.684692 0.186244
C46   C     C_R   0.521005 0.326155 0.636226 -0.150732
H21   H     H_    0.647760 0.331107 0.605530 0.139977
C47   C     C_R   0.352238 0.365690 0.629931 -0.177595
C48   C     C_R   0.190718 0.356904 0.670332 -0.269672
H22   H     H_    0.058349 0.386176 0.665470 0.168081
C49   C     C_R   0.196434 0.309943 0.716638 0.367239
C50   C     C_R   0.368928 0.271068 0.723476 -0.092442
C51   C     C_R   0.322391 0.253535 0.847309 -0.007402
H23   H     H_    0.259858 0.311672 0.867505 0.123163
C52   C     C_R   0.334027 0.207918 0.894176 -0.175963
H24   H     H_    0.278350 0.231163 0.949108 0.116690
C53   C     C_R   0.419226 0.133330 0.870629 -0.106424
C54   C     C_R   0.493146 0.105047 0.799681 -0.152743
H25   H     H_    0.559445 0.047549 0.780548 0.110391
C55   C     C_R   0.476525 0.149603 0.752050 -0.081574
H26   H     H_    0.529806 0.125235 0.696888 0.106750
C56   C     C_R   0.388614 0.224070 0.774871 0.165242
O11   O     O_R   0.273230 0.084330 0.086440 -0.605569
O12   O     O_R   0.596660 0.069390 0.940470 -0.596770
O13   O     O_R   0.760270 0.915710 0.913690 -0.604728
C57   C     C_R   0.428014 0.084442 0.919291 0.901076
O14   O     O_R   0.603330 0.093680 0.087390 -0.555795
O15   O     O_R   0.766990 0.940160 0.061660 -0.572689
C58   C     C_R   0.435742 0.116773 0.115886 0.942001
O16   O     O_R   0.266510 0.059870 0.938470 -0.597056
O17   O     O_3   0.431050 0.949630 0.991510 -0.254289
V3    V     V_3+5 0.708490 0.009340 0.001580 1.212532
O18   O     O_R   0.096270 0.930570 0.059390 -0.577473
C59   C     C_R   0.926573 0.910680 0.076733 1.036380
O19   O     O_R   0.089600 0.906290 0.912460 -0.574434
C60   C     C_R   0.918818 0.883507 0.884942 0.942389
V4    V     V_3+5 0.207670 0.990600 0.998190 1.216501
O20   O     O_3   0.935250 0.050360 0.008480 -0.275849
C61   C     C_2   0.389268 0.493130 0.155806 0.533950
H27   H     H_    0.449749 0.500353 0.106626 0.007881
O21   O     O_2   0.301059 0.548123 0.196765 -0.551024
C62   C     C_2   0.456286 0.026733 0.212324 0.477901
H28   H     H_    0.377988 0.970999 0.187824 0.055708
O22   O     O_2   0.628816 0.032062 0.202612 -0.592499
N1    N     N_R   0.231523 0.461240 0.284648 0.237352
O23   O     O_R   0.305203 0.525123 0.332086 -0.405886
O24   O     O_R   0.045663 0.449390 0.280759 -0.405292
N2    N     N_R   0.024290 0.300513 0.754060 0.208367
O25   O     O_R   0.972001 0.231036 0.756798 -0.445602
O26   O     O_R   0.908677 0.359599 0.778802 -0.432892
C63   C     C_2   0.575461 0.825080 0.263151 0.498429
H29   H     H_    0.575635 0.801981 0.308590 0.011362
O27   O     O_2   0.434917 0.861442 0.254601 -0.627027
N3    N     N_R   0.217896 0.785673 0.069737 0.233902
O28   O     O_R   0.178915 0.776892 0.001459 -0.419201
O29   O     O_R   0.383584 0.762241 0.085934 -0.432311

loop_
_geom_bond_atom_site_label_1
_geom_bond_atom_site_label_2
_geom_bond_distance
_ccdc_geom_bond_type
C25   C30   1.416594 A    
C1    C40   1.497342 S    
C52   H24   1.083458 S    
N3    O28   1.301586 A    
C34   C62   1.460596 S    
C6    H2    1.076430 S    
C37   C58   1.508026 S    
C45   C50   1.407302 A    
C62   H28   1.084296 S    
C31   C32   1.386861 A    
C31   C36   1.415951 A    
C51   H23   1.082639 S    
N2    O25   1.301566 A    
C42   H19   1.083952 S    
C5    C10   1.404320 A    
C4    C7    1.482930 S    
C7    C8    1.408001 A    
C17   C18   1.393026 A    
C6    C7    1.401787 A    
C45   C46   1.398844 A    
N1    O24   1.300815 A    
O5    C3    1.294730 A    
C19   C20   1.393110 A    
C18   H9    1.082845 S    
C46   C47   1.403056 A    
C63   O27   1.220676 D    
C19   H10   1.082667 S    
C44   N1    1.432325 S    
C39   C44   1.429826 A    
O15   V3    1.993053 S    
C35   C37   1.435451 A    
C3    C23   1.484174 S    
O13   C60   1.294833 A    
O8    V2    1.995766 S    
C10   C16   1.488764 S    
C28   C29   1.389274 A    
C42   C43   1.395574 A    
O12   C57   1.297897 A    
O19   C60   1.297265 A    
O1    V2    1.988620 S    
O7    V1    2.158670 S    
C33   H17   1.084321 S    
C26   C60   1.483738 S    
C1    O6    1.299791 A    
C21   C23   1.418665 A    
O14   V3    1.995802 S    
C33   C34   1.398225 A    
O9    C4    1.304267 A    
C13   C59   1.501734 S    
O19   V4    1.995874 S    
C17   C22   1.416874 A    
C43   C44   1.417167 A    
H7    C29   1.082726 S    
C48   C49   1.410299 A    
N2    O26   1.301428 A    
C48   H22   1.083495 S    
C51   C52   1.402228 A    
C11   C16   1.413322 A    
C36   C40   1.414112 A    
C41   C42   1.388171 A    
C38   C41   1.409737 A    
C63   H29   1.083614 S    
C9    H4    1.083277 S    
O11   V4    2.002526 S    
C20   C21   1.416520 A    
O4    C2    1.301068 A    
C11   C63   1.489166 S    
C46   H21   1.083187 S    
C32   C33   1.383656 A    
C57   O16   1.295955 A    
C31   H15   1.080750 S    
C34   C35   1.428362 A    
C15   C16   1.404688 A    
C49   N2    1.436811 S    
O2    C1    1.298846 A    
C24   C25   1.423510 A    
C18   C19   1.389180 A    
C51   C56   1.409550 A    
C54   C55   1.402294 A    
C49   C50   1.421169 A    
C13   C14   1.421070 A    
C27   H12   1.081406 S    
C55   C56   1.408650 A    
C5    H1    1.083126 S    
C61   O21   1.220288 D    
C41   H18   1.081601 S    
C50   C56   1.499256 S    
C45   H20   1.080440 S    
O3    C4    1.293450 A    
C21   C22   1.423406 A    
O14   C58   1.306784 A    
O6    V2    1.996999 S    
O9    V2    1.986373 S    
C8    C9    1.403402 A    
C23   C24   1.419132 A    
O2    V1    1.995882 S    
C11   C12   1.404840 A    
C17   H8    1.081300 S    
C25   C26   1.418560 A    
C28   H13   1.082777 S    
O18   V4    1.986324 S    
C27   C28   1.393184 A    
C12   H5    1.071310 S    
N3    O29   1.300761 A    
C61   H27   1.085808 S    
O1    C2    1.299751 A    
C14   C15   1.411444 A    
C9    C10   1.404734 A    
C47   C48   1.406402 A    
O5    V1    1.997297 S    
C62   O22   1.220428 D    
O8    C3    1.297516 A    
C30   H14   1.081355 S    
O18   C59   1.301258 A    
O15   C59   1.305349 A    
C53   C57   1.476255 S    
O17   V4    1.714579 S    
C15   H6    1.083790 S    
O12   V3    1.994390 S    
O7    V2    1.714790 S    
O4    V1    1.994338 S    
O3    V1    1.993074 S    
V1    O10   1.708403 S    
N1    O23   1.299698 A    
C38   C39   1.427916 A    
V3    O20   1.708435 S    
C43   C61   1.488051 S    
C32   H16   1.082741 S    
C54   H25   1.083430 S    
C20   H11   1.081394 S    
C29   C30   1.393015 A    
C12   C13   1.403082 A    
C55   H26   1.082798 S    
C5    C6    1.397918 A    
C35   C36   1.429958 A    
C24   C27   1.416738 A    
O13   V3    1.997089 S    
C37   C38   1.422079 A    
O11   C58   1.296290 A    
C39   C40   1.424340 A    
O17   V3    2.158627 S    
C52   C53   1.402265 A    
C22   C26   1.418988 A    
C8    H3    1.083362 S    
O16   V4    1.983819 S    
C14   N3    1.439300 S    
C53   C54   1.402760 A    
V4    O20   2.167037 S    
V2    O10   2.167142 S    
C2    C47   1.490162 S    
