data_mof_unit_16032.cif
_audit_creation_date              2012-12-11T17:11:33-0500
_audit_creation_method            fapswitch 2.2
_symmetry_space_group_name_H-M    P1
_symmetry_Int_Tables_number       1
_space_group_crystal_system       triclinic
_cell_length_a                    14.990663
_cell_length_b                    6.934612
_cell_length_c                    13.632285
_cell_angle_alpha                 90.001258
_cell_angle_beta                  100.818112
_cell_angle_gamma                 89.998643
_cell_volume                      1391.95104257

loop_
_atom_site_label
_atom_site_type_symbol
_atom_type_description
_atom_site_fract_x
_atom_site_fract_y
_atom_site_fract_z
_atom_type_partial_charge
O1    O     O_R   0.398250 0.605080 0.401520 -0.543704
O2    O     O_R   0.898250 0.394920 0.901520 -0.544511
O3    O     O_R   0.584130 0.932110 0.405450 -0.513240
O4    O     O_R   0.084130 0.067890 0.905450 -0.514805
O5    O     O_R   0.601750 0.105090 0.598480 -0.542494
O6    O     O_R   0.101750 0.894910 0.098480 -0.541825
C1    C     C_R   0.612722 0.763573 0.383946 0.793291
C2    C     C_R   0.112687 0.236428 0.883895 0.793458
O7    O     O_R   0.397870 0.934620 0.389680 -0.528904
O8    O     O_R   0.897870 0.065380 0.889680 -0.529408
O9    O     O_R   0.414160 0.107620 0.582600 -0.507529
O10   O     O_R   0.914160 0.892380 0.082600 -0.505401
C3    C     C_R   0.363961 0.765725 0.362669 0.799904
C4    C     C_R   0.863954 0.234275 0.862678 0.791831
O11   O     O_R   0.585840 0.602550 0.417400 -0.542444
O12   O     O_R   0.085840 0.397450 0.917400 -0.541562
O13   O     O_3   0.505560 0.772440 0.563310 -0.368565
O14   O     O_3   0.005560 0.227560 0.063310 -0.365327
V1    V     V_3+5 0.498970 0.046250 0.488250 1.628957
V2    V     V_3+5 0.998970 0.953750 0.988250 1.623060
O15   O     O_R   0.415870 0.437500 0.594550 -0.526269
O16   O     O_R   0.915870 0.562500 0.094550 -0.525765
C5    C     C_R   0.385778 0.268624 0.613900 0.844457
C6    C     C_R   0.885781 0.731386 0.113915 0.850895
O17   O     O_R   0.602130 0.434980 0.610320 -0.549378
O18   O     O_R   0.102130 0.565020 0.110320 -0.548126
C7    C     C_R   0.635976 0.265903 0.637365 0.725416
C8    C     C_R   0.135978 0.734095 0.137362 0.729577
V3    V     V_3+5 0.501030 0.546580 0.511750 1.581457
V4    V     V_3+5 0.001030 0.453420 0.011750 1.580519
O19   O     O_3   0.494440 0.270520 0.436690 -0.372058
O20   O     O_3   0.994440 0.729480 0.936690 -0.373629
C9    C     C_1   0.716280 0.255173 0.716990 -0.147402
C10   C     C_1   0.216286 0.744824 0.216982 -0.138992
C11   C     C_1   0.783573 0.244968 0.783174 -0.134523
C12   C     C_1   0.283581 0.755033 0.283163 -0.120482
C13   C     C_2   0.260765 0.118515 0.687336 0.376105
C14   C     C_2   0.761288 0.882271 0.188044 0.431548
C15   C     C_2   0.323780 0.258450 0.686457 -0.397365
C16   C     C_2   0.823794 0.741487 0.186500 -0.431294
H1    H     H_    0.334111 0.365594 0.745682 0.138712
H2    H     H_    0.833695 0.633320 0.245226 0.141062
C17   C     C_2   0.213910 0.097683 0.773665 0.315118
C18   C     C_2   0.714520 0.902349 0.274471 0.343450
C19   C     C_2   0.172150 0.249474 0.808429 -0.411802
C20   C     C_2   0.672152 0.750636 0.308463 -0.401292
H3    H     H_    0.177563 0.390533 0.775263 0.174111
H4    H     H_    0.676995 0.610003 0.274627 0.164864
S1    S     S_3+6 0.229831 0.952542 0.587386 0.052626
O21   O     O_2   0.228245 0.050343 0.488645 -0.355246
O22   O     O_2   0.297414 0.790339 0.599027 -0.296968
O23   O     O_3   0.126422 0.860351 0.589425 -0.461256
H5    H     H_    0.084895 0.972732 0.580102 0.335750
S2    S     S_3+6 0.731122 0.050570 0.089122 0.030223
O24   O     O_2   0.799835 0.210709 0.101320 -0.325368
O25   O     O_2   0.728257 0.953023 0.990087 -0.358671
O26   O     O_3   0.628189 0.143818 0.092645 -0.479575
H6    H     H_    0.618752 0.244640 0.040239 0.365039
Cl1   Cl    Cl    0.214681 0.863831 0.825986 -0.580570
Cl2   Cl    Cl    0.716493 0.135126 0.328267 -0.585678

loop_
_geom_bond_atom_site_label_1
_geom_bond_atom_site_label_2
_ccdc_geom_bond_type
C13   C17   S    
V4    O20   S    
S2    O25   D    
C14   C18   S    
O5    V1    S    
O17   C7    A    
O6    V2    S    
O10   C6    A    
O3    C1    A    
C14   S2    S    
C17   Cl1   S    
O4    C2    A    
S1    O23   S    
V1    O19   S    
O3    V1    S    
O10   V2    S    
C1    O11   A    
C8    C10   S    
S2    O26   S    
C2    O12   A    
O5    C7    A    
O13   V3    S    
C7    C9    S    
C14   C16   D    
C17   C19   D    
O9    V1    S    
O26   H6    S    
O15   V3    S    
C5    C15   S    
C18   Cl2   S    
V2    O20   S    
O14   V4    S    
O1    V3    S    
C9    C11   T    
C10   C12   T    
C18   C20   D    
O11   V3    S    
O14   V2    S    
C19   H3    S    
O15   C5    A    
O17   V3    S    
O2    C4    A    
O16   C6    A    
O1    C3    A    
O2    V4    S    
O12   V4    S    
O4    V2    S    
C1    C20   S    
C13   S1    S    
O23   H5    S    
C15   H1    S    
C3    C12   S    
C13   C15   D    
O7    V1    S    
O8    C4    A    
O9    C5    A    
C4    C11   S    
S1    O21   D    
O7    C3    A    
S2    O24   D    
C6    C16   S    
O16   V4    S    
O13   V1    S    
V3    O19   S    
O18   C8    A    
C20   H4    S    
O6    C8    A    
C2    C19   S    
O8    V2    S    
C16   H2    S    
S1    O22   D    
O18   V4    S    
