data_mof_unit_60250.cif
_audit_creation_date              2013-03-05T16:17:43-0500
_audit_creation_method            fapswitch 2.2
_symmetry_space_group_name_H-M    P1
_symmetry_Int_Tables_number       1
_space_group_crystal_system       triclinic
_cell_length_a                    27.497874
_cell_length_b                    27.277502
_cell_length_c                    18.012896
_cell_angle_alpha                 90.00407
_cell_angle_beta                  89.871318
_cell_angle_gamma                 89.99956
_cell_volume                      13510.9584696

loop_
_atom_site_label
_atom_site_type_symbol
_atom_site_description
_atom_site_fract_x
_atom_site_fract_y
_atom_site_fract_z
_atom_type_partial_charge
O1    O     O_R   0.049930 0.450080 0.561970 -0.570720
O2    O     O_R   0.950070 0.549920 0.438030 -0.570720
O3    O     O_R   0.950070 0.549920 0.561970 -0.539351
O4    O     O_R   0.049930 0.450080 0.438030 -0.539366
O5    O     O_R   0.950070 0.450080 0.438030 -0.563119
O6    O     O_R   0.049930 0.549920 0.561970 -0.563156
O7    O     O_R   0.049930 0.549920 0.438030 -0.577542
O8    O     O_R   0.950070 0.450080 0.561970 -0.577540
O9    O     O_R   0.549930 0.950080 0.561970 -0.563002
O10   O     O_R   0.450070 0.049920 0.438030 -0.563268
O11   O     O_R   0.450070 0.049920 0.561970 -0.577502
O12   O     O_R   0.549930 0.950080 0.438030 -0.577471
O13   O     O_R   0.450070 0.950080 0.438030 -0.570667
O14   O     O_R   0.549930 0.049920 0.561970 -0.570666
O15   O     O_R   0.549930 0.049920 0.438030 -0.539103
O16   O     O_R   0.450070 0.950080 0.561970 -0.539191
C1    C     C_R   0.067399 0.434204 0.499880 0.947247
C2    C     C_R   0.932603 0.565798 0.500121 0.947241
C3    C     C_R   0.933460 0.433953 0.500110 0.947018
C4    C     C_R   0.066540 0.566045 0.499890 0.947052
C5    C     C_R   0.566546 0.933949 0.499884 0.946019
C6    C     C_R   0.433455 0.066047 0.500115 0.946569
C7    C     C_R   0.432584 0.934219 0.500116 0.945801
C8    C     C_R   0.567422 0.065770 0.499884 0.946018
H1    H     H_    0.002221 0.577225 0.309632 0.179147
H2    H     H_    0.997762 0.422775 0.690367 0.179147
H3    H     H_    0.997335 0.422826 0.309678 0.215452
H4    H     H_    0.002682 0.577173 0.690322 0.215425
H5    H     H_    0.497177 0.077166 0.309681 0.215425
H6    H     H_    0.502760 0.922833 0.690320 0.215713
H7    H     H_    0.502429 0.922781 0.309627 0.178873
H8    H     H_    0.497630 0.077221 0.690373 0.178900
C9    C     C_R   0.000662 0.544672 0.200618 0.348808
C10   C     C_R   0.999330 0.455328 0.799381 0.348821
C11   C     C_R   0.999086 0.455291 0.200654 0.345892
C12   C     C_R   0.000924 0.544709 0.799346 0.345893
C13   C     C_R   0.497854 0.044660 0.200655 0.345994
C14   C     C_R   0.502116 0.955338 0.799345 0.346066
C15   C     C_R   0.501942 0.955356 0.200608 0.349642
C16   C     C_R   0.498092 0.044645 0.799392 0.349499
Cu1   Cu    Cu3+1 1.000000 0.500000 0.573360 1.087678
Cu2   Cu    Cu3+1 1.000000 0.500000 0.426640 1.087668
Cu3   Cu    Cu3+1 0.500000 1.000000 0.573360 1.087379
Cu4   Cu    Cu3+1 0.500000 0.000000 0.426640 1.087375
N1    N     N_R   1.000000 0.500000 0.316380 -0.275280
N2    N     N_R   1.000000 0.500000 0.683620 -0.275273
N3    N     N_R   0.500000 0.000000 0.316380 -0.275637
N4    N     N_R   0.500000 0.000000 0.683620 -0.275689
N5    N     N_R   0.965165 0.475504 0.037178 -0.158411
N6    N     N_R   0.034836 0.524495 0.962823 -0.158423
N7    N     N_R   0.034800 0.524469 0.037058 -0.156234
N8    N     N_R   0.965200 0.475530 0.962943 -0.156219
N9    N     N_R   0.466619 0.973545 0.037198 -0.154294
N10   N     N_R   0.533385 0.026454 0.962804 -0.154249
N11   N     N_R   0.533343 0.026473 0.037039 -0.152937
N12   N     N_R   0.466662 0.973526 0.962963 -0.152997
C17   C     C_R   0.001453 0.543217 0.278714 0.133836
C18   C     C_R   0.998538 0.456783 0.721286 0.133908
C19   C     C_R   0.998306 0.456791 0.278740 0.155581
C20   C     C_R   0.001705 0.543209 0.721260 0.155594
C21   C     C_R   0.498605 0.043216 0.278739 0.156103
C22   C     C_R   0.501361 0.956783 0.721261 0.156345
C23   C     C_R   0.501182 0.956772 0.278713 0.134148
C24   C     C_R   0.498852 0.043228 0.721287 0.133675
C25   C     C_R   0.852828 0.404256 0.544357 0.216029
C26   C     C_R   0.147190 0.595721 0.455690 0.216010
C27   C     C_R   0.099926 0.646255 0.541915 0.212560
C28   C     C_R   0.900062 0.353755 0.458053 0.212577
C29   C     C_R   0.115964 0.367683 0.435948 0.261968
C30   C     C_R   0.884052 0.632330 0.564063 0.261973
C31   C     C_R   0.866142 0.612387 0.434465 0.224200
C32   C     C_R   0.133856 0.387617 0.565551 0.224192
C33   C     C_R   0.383891 0.867807 0.564076 0.260462
C34   C     C_R   0.616025 0.132279 0.436016 0.260626
C35   C     C_R   0.633958 0.112244 0.565560 0.223349
C36   C     C_R   0.366156 0.887610 0.434384 0.223576
C37   C     C_R   0.646887 0.903963 0.454769 0.215552
C38   C     C_R   0.352968 0.095883 0.544810 0.215501
C39   C     C_R   0.399849 0.146075 0.457659 0.212450
C40   C     C_R   0.600337 0.854078 0.542730 0.212775
C41   C     C_R   0.815992 0.368521 0.545603 0.233825
C42   C     C_R   0.184032 0.631451 0.454457 0.233824
C43   C     C_R   0.136866 0.681910 0.541077 0.236343
C44   C     C_R   0.863125 0.318096 0.458901 0.236344
C45   C     C_R   0.148930 0.328485 0.439348 0.233895
C46   C     C_R   0.851096 0.671540 0.560664 0.233741
C47   C     C_R   0.832769 0.651463 0.431743 0.236741
C48   C     C_R   0.167241 0.348551 0.568272 0.236852
C49   C     C_R   0.350908 0.828629 0.560671 0.233583
C50   C     C_R   0.649008 0.171453 0.439468 0.233644
C51   C     C_R   0.667375 0.151283 0.568319 0.236633
C52   C     C_R   0.332751 0.848559 0.431664 0.236567
C53   C     C_R   0.683720 0.868227 0.453437 0.233507
C54   C     C_R   0.316128 0.131614 0.546101 0.233545
C55   C     C_R   0.362882 0.181702 0.458491 0.236090
C56   C     C_R   0.637322 0.818471 0.541905 0.236082
C57   C     C_R   0.821172 0.325479 0.502834 -0.255225
C58   C     C_R   0.178837 0.674508 0.497191 -0.255233
C59   C     C_R   0.174321 0.318756 0.505336 -0.255715
C60   C     C_R   0.825722 0.681276 0.494664 -0.255637
C61   C     C_R   0.325571 0.818844 0.494657 -0.255586
C62   C     C_R   0.674458 0.181113 0.505423 -0.255581
C63   C     C_R   0.678922 0.825528 0.497077 -0.255338
C64   C     C_R   0.321107 0.174480 0.502880 -0.255346
C65   C     C_R   0.000035 0.500030 0.924003 0.381512
C66   C     C_R   0.999966 0.499969 0.075997 0.381499
C67   C     C_R   0.500047 0.999980 0.924005 0.375450
C68   C     C_R   0.499957 0.000019 0.075996 0.375422
C69   C     C_R   0.894831 0.396819 0.500634 -0.328835
C70   C     C_R   0.105171 0.603177 0.499368 -0.328822
C71   C     C_R   0.106709 0.396624 0.499953 -0.314420
C72   C     C_R   0.893297 0.603384 0.500056 -0.314431
C73   C     C_R   0.393243 0.896668 0.500029 -0.314846
C74   C     C_R   0.606771 0.103307 0.499976 -0.314908
C75   C     C_R   0.605209 0.896830 0.499334 -0.329412
C76   C     C_R   0.394805 0.103170 0.500656 -0.329375
N13   N     N_R   0.793697 0.240847 0.521080 -0.132197
N14   N     N_R   0.206333 0.759129 0.478917 -0.132211
N15   N     N_R   0.263887 0.699765 0.511473 -0.127465
N16   N     N_R   0.736117 0.300211 0.488633 -0.127476
N17   N     N_R   0.201271 0.233594 0.490180 -0.115229
N18   N     N_R   0.798847 0.766512 0.509031 -0.114792
N19   N     N_R   0.740976 0.706736 0.479748 -0.134895
N20   N     N_R   0.258992 0.293184 0.520971 -0.134522
N21   N     N_R   0.298547 0.733776 0.510761 -0.115673
N22   N     N_R   0.701462 0.266194 0.489364 -0.115805
N23   N     N_R   0.759033 0.206857 0.521862 -0.133908
N24   N     N_R   0.241002 0.793113 0.478155 -0.133981
N25   N     N_R   0.706293 0.740706 0.480452 -0.132522
N26   N     N_R   0.293672 0.259211 0.520247 -0.132479
N27   N     N_R   0.235944 0.199596 0.489498 -0.127707
N28   N     N_R   0.764170 0.800506 0.509696 -0.127598
C77   C     C_R   0.217201 0.711928 0.495748 0.535984
C78   C     C_R   0.782813 0.288051 0.504295 0.535996
C79   C     C_R   0.787774 0.719079 0.494255 0.525014
C80   C     C_R   0.212266 0.280937 0.505739 0.524722
C81   C     C_R   0.712385 0.218968 0.505838 0.524107
C82   C     C_R   0.287639 0.780999 0.494251 0.524179
C83   C     C_R   0.282725 0.211889 0.504327 0.535836
C84   C     C_R   0.717311 0.788120 0.495618 0.535752
C85   C     C_R   0.999913 0.499972 0.159559 -0.185537
C86   C     C_R   0.000088 0.500027 0.840441 -0.185547
C87   C     C_R   0.499928 0.000015 0.159555 -0.183576
C88   C     C_R   0.500075 0.999985 0.840446 -0.183610
O17   O     O_3   0.999628 0.590420 0.167805 -0.636703
H9    H     H_    0.989144 0.587373 0.115567 0.363715
O18   O     O_3   0.000355 0.409580 0.832194 -0.636687
H10   H     H_    0.010845 0.412623 0.884430 0.363712
O19   O     O_3   0.000018 0.409519 0.167894 -0.611972
H11   H     H_    0.010466 0.412515 0.115563 0.362762
O20   O     O_3   0.000001 0.590480 0.832107 -0.611979
H12   H     H_    0.989546 0.587487 0.884435 0.362770
O21   O     O_3   0.494058 0.090280 0.167911 -0.612416
H13   H     H_    0.484116 0.086624 0.115518 0.360221
O22   O     O_3   0.505883 0.909716 0.832088 -0.612145
H14   H     H_    0.515850 0.913366 0.884471 0.360252
O23   O     O_3   0.505673 0.909746 0.167782 -0.637252
H15   H     H_    0.515731 0.913405 0.115373 0.361771
O24   O     O_3   0.494392 0.090258 0.832218 -0.637389
H16   H     H_    0.484313 0.086605 0.884620 0.361739
N29   N     N_R   0.847532 0.448079 0.587857 0.175564
O25   O     O_R   0.849215 0.490881 0.556112 -0.305971
O26   O     O_R   0.839436 0.445256 0.658922 -0.225147
N30   N     N_R   0.152500 0.551883 0.412224 0.175561
O27   O     O_R   0.150788 0.509091 0.443996 -0.306050
O28   O     O_R   0.160644 0.554682 0.341171 -0.225077
N31   N     N_R   0.056737 0.654200 0.585245 0.164449
O29   O     O_R   0.059860 0.664356 0.655653 -0.217965
O30   O     O_R   0.014233 0.653011 0.553727 -0.339525
N32   N     N_R   0.943235 0.345825 0.414678 0.164456
O31   O     O_R   0.940086 0.335683 0.344270 -0.217978
O32   O     O_R   0.985751 0.347010 0.446160 -0.339469
N33   N     N_R   0.092713 0.377948 0.366478 0.163140
O33   O     O_R   0.107472 0.415060 0.327034 -0.255690
O34   O     O_R   0.065270 0.344895 0.335658 -0.206569
N34   N     N_R   0.907335 0.622081 0.633514 0.163216
O35   O     O_R   0.892602 0.584970 0.672984 -0.255701
O36   O     O_R   0.934775 0.655150 0.664301 -0.206584
N35   N     N_R   0.871640 0.581561 0.370415 0.172812
O37   O     O_R   0.859875 0.535411 0.374044 -0.269392
O38   O     O_R   0.885263 0.600203 0.307216 -0.264767
N36   N     N_R   0.128337 0.418429 0.629613 0.172801
O39   O     O_R   0.140110 0.464579 0.626019 -0.269364
O40   O     O_R   0.114684 0.399775 0.692789 -0.264818
N37   N     N_R   0.406995 0.878183 0.633625 0.163584
O41   O     O_R   0.392187 0.915388 0.672832 -0.251703
O42   O     O_R   0.434345 0.845169 0.664725 -0.204781
N38   N     N_R   0.592832 0.122011 0.366499 0.163564
O43   O     O_R   0.607617 0.084888 0.327093 -0.251868
O44   O     O_R   0.565422 0.155062 0.335616 -0.204397
N39   N     N_R   0.628456 0.081377 0.629559 0.172679
O45   O     O_R   0.640146 0.035211 0.625821 -0.270919
O46   O     O_R   0.614876 0.099985 0.692807 -0.259471
N40   N     N_R   0.371749 0.918358 0.370274 0.172620
O47   O     O_R   0.359968 0.964509 0.373742 -0.270421
O48   O     O_R   0.385459 0.899639 0.307167 -0.259721
N41   N     N_R   0.651865 0.947484 0.410511 0.175964
O49   O     O_R   0.650551 0.990497 0.441652 -0.304511
O50   O     O_R   0.659272 0.944175 0.339319 -0.228362
N42   N     N_R   0.347839 0.052213 0.588696 0.175854
O51   O     O_R   0.349328 0.009303 0.557251 -0.305112
O52   O     O_R   0.340103 0.055283 0.659830 -0.227867
N43   N     N_R   0.442870 0.153890 0.413893 0.164517
O53   O     O_R   0.439483 0.163733 0.343415 -0.220653
O54   O     O_R   0.485486 0.152914 0.445077 -0.338431
N44   N     N_R   0.557469 0.846391 0.586894 0.164492
O55   O     O_R   0.561099 0.836821 0.657428 -0.221073
O56   O     O_R   0.514751 0.847190 0.556024 -0.337944
N45   N     N_R   0.773380 0.376044 0.590563 0.179015
O57   O     O_R   0.760041 0.343101 0.638728 -0.243676
O58   O     O_R   0.748450 0.416402 0.584760 -0.198062
N46   N     N_R   0.226665 0.623907 0.409552 0.179020
O59   O     O_R   0.240032 0.656830 0.361375 -0.243618
O60   O     O_R   0.251593 0.583553 0.415430 -0.198070
N47   N     N_R   0.131538 0.725746 0.584636 0.180368
O61   O     O_R   0.092693 0.752655 0.578354 -0.197310
O62   O     O_R   0.165168 0.738504 0.631533 -0.245965
N48   N     N_R   0.868439 0.274274 0.415308 0.180365
O63   O     O_R   0.907289 0.247366 0.421534 -0.197305
O64   O     O_R   0.834789 0.261526 0.368438 -0.245969
N49   N     N_R   0.158873 0.300491 0.373662 0.171142
O65   O     O_R   0.140687 0.256740 0.366420 -0.214240
O66   O     O_R   0.180205 0.321153 0.317233 -0.204696
N50   N     N_R   0.841156 0.699548 0.626347 0.171209
O67   O     O_R   0.858862 0.743529 0.633190 -0.215015
O68   O     O_R   0.820282 0.678779 0.683084 -0.204161
N51   N     N_R   0.805557 0.660444 0.365001 0.179531
O69   O     O_R   0.803936 0.704229 0.336429 -0.245389
O70   O     O_R   0.781839 0.625005 0.333026 -0.199705
N52   N     N_R   0.194399 0.339538 0.635054 0.179599
O71   O     O_R   0.195925 0.295756 0.663649 -0.245372
O72   O     O_R   0.218129 0.374951 0.667075 -0.199702
N53   N     N_R   0.340856 0.800739 0.626403 0.171399
O73   O     O_R   0.359627 0.757297 0.634350 -0.212358
O74   O     O_R   0.318792 0.821303 0.682251 -0.202398
N54   N     N_R   0.658945 0.199469 0.373825 0.171353
O75   O     O_R   0.639962 0.242827 0.365983 -0.211964
O76   O     O_R   0.681145 0.179085 0.317950 -0.202688
N55   N     N_R   0.694521 0.160261 0.635121 0.180156
O77   O     O_R   0.695967 0.204009 0.663850 -0.243347
O78   O     O_R   0.718289 0.124843 0.667056 -0.198552
N56   N     N_R   0.305707 0.839459 0.364803 0.180134
O79   O     O_R   0.304300 0.795657 0.336258 -0.243362
O80   O     O_R   0.281986 0.874817 0.332638 -0.198497
N57   N     N_R   0.725927 0.875388 0.407467 0.178806
O81   O     O_R   0.738803 0.842082 0.359576 -0.245029
O82   O     O_R   0.750914 0.915781 0.412033 -0.198175
N58   N     N_R   0.273725 0.124273 0.591587 0.178818
O83   O     O_R   0.260618 0.157407 0.639605 -0.245196
O84   O     O_R   0.248771 0.083891 0.586427 -0.198198
N59   N     N_R   0.367985 0.225327 0.414402 0.180180
O85   O     O_R   0.406804 0.252334 0.420068 -0.197250
O86   O     O_R   0.334176 0.237781 0.367620 -0.247634
N60   N     N_R   0.632417 0.775034 0.586463 0.180184
O87   O     O_R   0.593608 0.747960 0.581374 -0.197219
O88   O     O_R   0.666395 0.762831 0.633114 -0.247508

loop_
_geom_bond_atom_site_label_1
_geom_bond_atom_site_label_2
_geom_bond_distance
_ccdc_geom_bond_type
C48   N52   1.438484 S    
O5    Cu2   1.944262 S    
N22   C81   1.355804 A    
C8    C74   1.489703 S    
O23   H15   0.988195 S    
O2    C2    1.291020 A    
Cu1   Cu2   2.642850 S    
C16   O24   1.381175 S    
C41   N45   1.437584 S    
N55   O77   1.301341 A    
C5    C75   1.468154 S    
O9    C5    1.284806 A    
N50   O67   1.300663 A    
C53   C63   1.411234 A    
C45   N49   1.433959 S    
C54   N58   1.437589 S    
N29   O25   1.300859 A    
C15   C87   1.426247 A    
N59   O85   1.301192 A    
N31   O30   1.300905 A    
N33   O33   1.301207 A    
O10   C6    1.284740 A    
C27   C43   1.406385 A    
N43   O54   1.300919 A    
C58   C77   1.468123 S    
N1    C17   1.360729 A    
N30   O28   1.301076 A    
N49   O65   1.300600 A    
C46   N50   1.434100 S    
N10   C67   1.361311 A    
C44   C57   1.411924 A    
C14   O22   1.381182 S    
N38   O44   1.300892 A    
N30   O27   1.300861 A    
C2    C72   1.489739 S    
O15   Cu4   1.944889 S    
C15   C23   1.407524 A    
N47   O62   1.301289 A    
H6    C22   1.081458 S    
N3    C23   1.360729 A    
N16   N22   1.330109 A    
N37   O42   1.300911 A    
C26   C42   1.405924 A    
N32   O31   1.301147 A    
N13   C78   1.356232 A    
C49   N53   1.433775 S    
C34   C74   1.419666 A    
C33   C73   1.419735 A    
N54   O75   1.300605 A    
O13   C7    1.291009 A    
O3    C2    1.289151 A    
C11   C19   1.407253 A    
O7    Cu2   1.944889 S    
O14   C8    1.290982 A    
N41   O50   1.301109 A    
N51   O69   1.301340 A    
C12   C86   1.426187 A    
N36   O39   1.301384 A    
C50   C62   1.405099 A    
N60   O88   1.301326 A    
C41   C57   1.411253 A    
N29   O26   1.301106 A    
C37   C75   1.411250 A    
C52   N56   1.438434 S    
N14   N24   1.329787 A    
C10   C86   1.426209 A    
N37   O41   1.301203 A    
O18   H10   0.988240 S    
N42   O51   1.300877 A    
C43   C58   1.411919 A    
C11   O19   1.381137 S    
N6    C65   1.361284 A    
N56   O80   1.301216 A    
O20   H12   0.988210 S    
C29   N33   1.434123 S    
O11   Cu3   1.944896 S    
C15   O23   1.381177 S    
C40   C56   1.406334 A    
C46   C60   1.405170 A    
Cu3   N4    1.986102 S    
C42   N46   1.437597 S    
C60   C79   1.467054 S    
C35   C51   1.407513 A    
N2    C20   1.360550 A    
N34   O36   1.300920 A    
N40   O47   1.301368 A    
C32   C71   1.420493 A    
C54   C64   1.411275 A    
N57   O81   1.301327 A    
N19   N25   1.329761 A    
N24   C82   1.356271 A    
C42   C58   1.411274 A    
C40   N44   1.436037 S    
N41   O49   1.300901 A    
C38   N42   1.436464 S    
C57   C78   1.468158 S    
N17   N27   1.330093 A    
N26   C83   1.356258 A    
C1    C71   1.489720 S    
N18   N28   1.330106 A    
C33   N37   1.434121 S    
C32   C48   1.407440 A    
N58   O84   1.301197 A    
O17   H9    0.988239 S    
C34   N38   1.434120 S    
O1    C1    1.290994 A    
C3    C69   1.467789 S    
H5    C21   1.081482 S    
O9    Cu3   1.944225 S    
O8    C3    1.282939 A    
C30   N34   1.434124 S    
N20   C80   1.356219 A    
O10   Cu4   1.944225 S    
N39   O45   1.301367 A    
H1    C17   1.082197 S    
H7    C23   1.082193 S    
N27   C83   1.356519 A    
O8    Cu1   1.944892 S    
H8    C24   1.082194 S    
N45   O57   1.301315 A    
C28   N32   1.436086 S    
N31   O29   1.301162 A    
N44   O55   1.301142 A    
C9    C85   1.426210 A    
O12   C5    1.283001 A    
O6    Cu1   1.944258 S    
N19   C79   1.356153 A    
N38   O43   1.301194 A    
C62   C81   1.467638 S    
C28   C44   1.406402 A    
C35   N39   1.435306 S    
N47   O61   1.301193 A    
N39   O46   1.301175 A    
N12   C67   1.361287 A    
C39   C55   1.406354 A    
N60   O87   1.301185 A    
C45   C59   1.405172 A    
C26   N30   1.436510 S    
C13   O21   1.381186 S    
O2    Cu2   1.944225 S    
C7    C73   1.489813 S    
H2    C18   1.082195 S    
C10   O18   1.381145 S    
C27   C70   1.410072 A    
N48   O64   1.301295 A    
O24   H16   0.988195 S    
C40   C75   1.410165 A    
Cu1   N2    1.986102 S    
N5    N8    1.337180 A    
C31   C72   1.420480 A    
C36   C73   1.420550 A    
N20   N26   1.329758 A    
N6    N7    1.337180 A    
C35   C74   1.420508 A    
N15   C77   1.356476 A    
C26   C70   1.411125 A    
N52   O72   1.301231 A    
N53   O74   1.300737 A    
O16   Cu3   1.944892 S    
C25   C69   1.411122 A    
N14   C77   1.356232 A    
C53   N57   1.437531 S    
C52   C61   1.408053 A    
C11   C85   1.426185 A    
C4    C70   1.467758 S    
N55   O78   1.301219 A    
N15   N21   1.330098 A    
C44   N48   1.437417 S    
O1    Cu1   1.944225 S    
O15   C8    1.289181 A    
N51   O70   1.301229 A    
N59   O86   1.301293 A    
C36   C52   1.407484 A    
N8    C65   1.361310 A    
O16   C7    1.289214 A    
C47   N51   1.438517 S    
C16   C88   1.426250 A    
Cu3   Cu4   2.642850 S    
C50   N54   1.433690 S    
O4    Cu2   1.944896 S    
C31   C47   1.407437 A    
O4    C1    1.289175 A    
C51   C62   1.408099 A    
C55   N59   1.437394 S    
C30   C46   1.403280 A    
N40   O48   1.301167 A    
N4    C22   1.360527 A    
C65   C86   1.505184 S    
C29   C45   1.403197 A    
N58   O83   1.301305 A    
C37   C53   1.405858 A    
C66   C85   1.505180 S    
C47   C60   1.407954 A    
N53   O73   1.300552 A    
N9    N12   1.337185 A    
C27   N31   1.436078 S    
N10   N11   1.337187 A    
N1    C19   1.360551 A    
C9    C17   1.407513 A    
C13   C21   1.407276 A    
C13   C87   1.426219 A    
C49   C61   1.405103 A    
C56   N60   1.437326 S    
C14   C88   1.426218 A    
C38   C76   1.411201 A    
C51   N55   1.438426 S    
N46   O60   1.301184 A    
C12   C20   1.407255 A    
N50   O68   1.300904 A    
N3    C21   1.360533 A    
C43   N47   1.437441 S    
C61   C82   1.467561 S    
Cu4   N3    1.986102 S    
C12   O20   1.381134 S    
N5    C66   1.361282 A    
O5    C3    1.284669 A    
N21   C82   1.355790 A    
N28   C84   1.356544 A    
O6    C4    1.284660 A    
O11   C6    1.282972 A    
C39   N43   1.436063 S    
C16   C24   1.407528 A    
C64   C83   1.468252 S    
N11   C68   1.361282 A    
N49   O66   1.300884 A    
C34   C50   1.403060 A    
N34   O35   1.301203 A    
C67   C88   1.505140 S    
N13   N23   1.329794 A    
C33   C49   1.403109 A    
O12   Cu4   1.944896 S    
H3    C19   1.081496 S    
O19   H11   0.988208 S    
C55   C64   1.411945 A    
C39   C76   1.410119 A    
C29   C71   1.419759 A    
N9    C68   1.361309 A    
N33   O34   1.300908 A    
N48   O63   1.301183 A    
N25   C84   1.356272 A    
N32   O32   1.300915 A    
C38   C54   1.405892 A    
N7    C66   1.361310 A    
N56   O79   1.301343 A    
C6    C76   1.467976 S    
O3    Cu1   1.944896 S    
N57   O82   1.301191 A    
N54   O76   1.300731 A    
C59   C80   1.467301 S    
N16   C78   1.356473 A    
C28   C69   1.410063 A    
C68   C87   1.505125 S    
N17   C80   1.355746 A    
N52   O71   1.301341 A    
C30   C72   1.419811 A    
N36   O40   1.301171 A    
N18   C79   1.355699 A    
C48   C59   1.408024 A    
N4    C24   1.360728 A    
C31   N35   1.435296 S    
N35   O37   1.301383 A    
C36   N40   1.435289 S    
H4    C20   1.081497 S    
N46   O59   1.301304 A    
N42   O52   1.301102 A    
O7    C4    1.282936 A    
C56   C63   1.411928 A    
C25   N29   1.436473 S    
O22   H14   0.988177 S    
C10   C18   1.407512 A    
N45   O58   1.301186 A    
C25   C41   1.405916 A    
N23   C81   1.356274 A    
N43   O53   1.301140 A    
C14   C22   1.407272 A    
O21   H13   0.988174 S    
C63   C84   1.468356 S    
N44   O56   1.300923 A    
C37   N41   1.436419 S    
Cu2   N1    1.986102 S    
O13   Cu4   1.944262 S    
N2    C18   1.360732 A    
C9    O17   1.381146 S    
O14   Cu3   1.944258 S    
N35   O38   1.301172 A    
C32   N36   1.435297 S    
