data_mof_unit_58027.cif
_audit_creation_date              2012-12-11T14:11:00-0500
_audit_creation_method            fapswitch 2.2
_symmetry_space_group_name_H-M    P1
_symmetry_Int_Tables_number       1
_space_group_crystal_system       triclinic
_cell_length_a                    19.705458
_cell_length_b                    17.13378
_cell_length_c                    15.462312
_cell_angle_alpha                 90.000017
_cell_angle_beta                  52.570353
_cell_angle_gamma                 90.000025
_cell_volume                      4145.6198614

loop_
_atom_site_label
_atom_site_type_symbol
_atom_type_description
_atom_site_fract_x
_atom_site_fract_y
_atom_site_fract_z
_atom_type_partial_charge
C1    C     C_R   0.374771 0.197471 0.994422 -0.119669
C2    C     C_3   0.771625 0.799770 0.429750 0.208483
C3    C     C_3   0.427601 0.871320 0.644819 -0.934310
C4    C     C_3   0.840763 0.724215 0.624684 -0.456350
C5    C     C_3   0.909097 0.660194 0.568686 -0.228784
C6    C     C_3   0.927621 0.628699 0.644803 -0.934302
C7    C     C_3   0.159236 0.275786 0.375316 -0.456347
C8    C     C_3   0.090904 0.339808 0.431314 -0.228787
C9    C     C_3   0.072377 0.371300 0.355198 -0.934301
C10   C     C_3   0.244674 0.672168 0.360618 -0.462764
C11   C     C_3   0.174162 0.610374 0.420320 -0.223701
C12   C     C_3   0.144375 0.586160 0.353373 -0.970726
C13   C     C_3   0.683877 0.252011 0.446906 0.204127
C14   C     C_3   0.755327 0.327831 0.639382 -0.462765
C15   C     C_3   0.825840 0.389623 0.579679 -0.223697
C16   C     C_3   0.855626 0.413838 0.646627 -0.970727
C17   C     C_3   0.316124 0.747988 0.553093 0.204125
C18   C     C_3   0.816127 0.752016 0.553089 0.204125
C19   C     C_3   0.183872 0.247984 0.446910 0.204125
C20   C     C_3   0.271634 0.700224 0.429743 0.208481
C21   C     C_3   0.728366 0.299775 0.570256 0.208481
C22   C     C_2   0.189132 0.744194 0.096562 -0.220129
C23   C     C_2   0.810867 0.255806 0.903439 -0.220130
C24   C     C_2   0.712554 0.686429 0.046896 -0.200643
C25   C     C_R   0.625229 0.802529 0.005577 -0.119669
C26   C     C_2   0.287447 0.313571 0.953103 -0.200644
C27   C     C_2   0.787447 0.186429 0.953104 -0.200642
C28   C     C_2   0.212553 0.813572 0.046897 -0.200642
C29   C     C_2   0.310867 0.244194 0.903439 -0.220129
C30   C     C_2   0.689133 0.755806 0.096560 -0.220130
C31   C     C_R   0.389744 0.802561 0.212992 -0.155362
C32   C     C_R   0.610256 0.197439 0.787008 -0.155363
C33   C     C_R   0.651187 0.827960 0.780603 -0.133700
C34   C     C_R   0.348813 0.172040 0.219397 -0.133699
C35   C     C_R   0.848813 0.327960 0.219397 -0.133701
C36   C     C_R   0.661045 0.174986 0.950851 -0.118254
C37   C     C_R   0.151187 0.672040 0.780603 -0.133699
C38   C     C_R   0.110258 0.302561 0.787007 -0.155363
C39   C     C_R   0.889742 0.697439 0.212994 -0.155364
C40   C     C_R   0.329638 0.913602 0.951460 -0.151514
C41   C     C_R   0.670362 0.086398 0.048540 -0.151515
C42   C     C_R   0.634160 0.889689 0.103498 -0.170332
C43   C     C_R   0.365840 0.110311 0.896501 -0.170331
C44   C     C_R   0.865841 0.389689 0.896501 -0.170332
C45   C     C_R   0.134159 0.610311 0.103499 -0.170332
C46   C     C_R   0.170362 0.413602 0.048540 -0.151521
C47   C     C_R   0.338954 0.825015 0.049149 -0.118254
C48   C     C_R   0.829638 0.586399 0.951459 -0.151520
C49   C     C_R   0.355353 0.079241 0.315936 -0.130907
C50   C     C_R   0.644646 0.920759 0.684064 -0.130905
C51   C     C_R   0.602937 0.105942 0.690129 -0.141288
C52   C     C_R   0.397063 0.894057 0.309871 -0.141288
C53   C     C_R   0.897060 0.605941 0.309873 -0.141290
C54   C     C_R   0.102939 0.394058 0.690127 -0.141291
C55   C     C_R   0.144647 0.579241 0.684063 -0.130907
C56   C     C_R   0.855354 0.420758 0.315937 -0.130906
C57   C     C_R   0.347670 0.186321 0.931788 0.160949
C58   C     C_R   0.838955 0.674986 0.049149 -0.118253
C59   C     C_R   0.652330 0.813679 0.068211 0.160949
C60   C     C_R   0.713011 0.147478 0.976160 0.152899
C61   C     C_R   0.286989 0.852522 0.023841 0.152898
C62   C     C_R   0.786990 0.647478 0.023839 0.152901
C63   C     C_R   0.213011 0.352522 0.976160 0.152900
C64   C     C_R   0.152329 0.686321 0.068212 0.160948
C65   C     C_R   0.847670 0.313679 0.931788 0.160949
C66   C     C_R   0.372181 0.818932 0.311439 0.063019
C67   C     C_R   0.627819 0.181067 0.688561 0.063019
C68   C     C_R   0.694515 0.861322 0.678847 0.047860
C69   C     C_R   0.161045 0.325014 0.950851 -0.118252
C70   C     C_R   0.305485 0.138678 0.321153 0.047860
C71   C     C_R   0.805486 0.361321 0.321153 0.047861
C72   C     C_R   0.194515 0.638678 0.678847 0.047860
C73   C     C_R   0.127823 0.318934 0.688559 0.063018
C74   C     C_R   0.872176 0.681066 0.311441 0.063018
C75   C     C_3   0.184693 0.148261 0.535817 -0.222593
C76   C     C_3   0.815306 0.851739 0.464183 -0.222595
C77   C     C_3   0.727449 0.200502 0.481559 -0.223994
C78   C     C_3   0.272551 0.799497 0.518441 -0.223993
C79   C     C_3   0.772553 0.700501 0.518445 -0.223995
C80   C     C_R   0.125229 0.697471 0.005578 -0.119669
C81   C     C_3   0.227446 0.299499 0.481555 -0.223994
C82   C     C_3   0.315315 0.648260 0.464185 -0.222590
C83   C     C_3   0.684686 0.351739 0.535815 -0.222592
C84   C     C_3   0.709818 0.766637 0.545091 -0.195038
C85   C     C_3   0.290181 0.233362 0.454909 -0.195039
C86   C     C_3   0.379218 0.715466 0.436083 -0.206147
C87   C     C_3   0.620783 0.284534 0.563916 -0.206147
C88   C     C_3   0.120784 0.215462 0.563922 -0.206150
C89   C     C_3   0.879215 0.784538 0.436078 -0.206150
C90   C     C_3   0.790179 0.266642 0.454917 -0.195039
C91   C     C_R   0.874771 0.302529 0.994422 -0.119670
C92   C     C_3   0.209822 0.733357 0.545083 -0.195039
C93   C     C_3   0.753769 0.818001 0.579635 0.097507
C94   C     C_3   0.246230 0.181999 0.420365 0.097506
C95   C     C_3   0.334179 0.766063 0.402710 0.097967
C96   C     C_3   0.665821 0.233936 0.597290 0.097967
C97   C     C_3   0.165825 0.266065 0.597288 0.097969
C98   C     C_3   0.834175 0.733935 0.402712 0.097969
C99   C     C_3   0.746230 0.318000 0.420365 0.097506
C100  C     C_3   0.253771 0.681999 0.579635 0.097506
C101  C     C_3   0.255342 0.172181 0.639371 -0.462768
C102  C     C_3   0.228375 0.200230 0.570250 0.208482
C103  C     C_3   0.325859 0.110392 0.579667 -0.223694
C104  C     C_3   0.355645 0.086179 0.646614 -0.970733
C105  C     C_3   0.744658 0.827819 0.360628 -0.462772
C106  C     C_3   0.674138 0.889604 0.420334 -0.223692
C107  C     C_3   0.644355 0.913819 0.353384 -0.970734
C108  C     C_3   0.659251 0.224203 0.375304 -0.456358
C109  C     C_3   0.590911 0.160188 0.431304 -0.228780
C110  C     C_3   0.572400 0.128684 0.355177 -0.934306
C111  C     C_3   0.340751 0.775797 0.624695 -0.456356
C112  C     C_3   0.409089 0.839815 0.568694 -0.228778
H1    H     H_    0.382442 0.252431 0.021739 0.078460
H2    H     H_    0.609381 0.254011 0.818216 0.088237
H3    H     H_    0.197941 0.559378 0.275255 0.261338
H4    H     H_    0.092074 0.542749 0.399679 0.257231
H5    H     H_    0.198518 0.557936 0.435805 0.183939
H6    H     H_    0.118754 0.633981 0.499593 0.202291
H7    H     H_    0.221637 0.723162 0.340634 0.193160
H8    H     H_    0.300918 0.646306 0.284022 0.181446
H9    H     H_    0.802060 0.440621 0.724745 0.261337
H10   H     H_    0.880069 0.362440 0.663817 0.258573
H11   H     H_    0.907929 0.457247 0.600321 0.257231
H12   H     H_    0.881248 0.366015 0.500408 0.202291
H13   H     H_    0.668441 0.776600 0.803179 0.090992
H14   H     H_    0.801486 0.442061 0.564192 0.183939
H15   H     H_    0.699082 0.353694 0.715977 0.181446
H16   H     H_    0.778361 0.276836 0.659368 0.193160
H17   H     H_    0.331559 0.223400 0.196821 0.090992
H18   H     H_    0.831558 0.276600 0.196820 0.090993
H19   H     H_    0.168442 0.723399 0.803180 0.090993
H20   H     H_    0.109383 0.245989 0.818214 0.088237
H21   H     H_    0.890617 0.754011 0.181786 0.088238
H22   H     H_    0.309210 0.947677 0.912167 0.096845
H23   H     H_    0.690789 0.052323 0.087834 0.096845
H24   H     H_    0.637604 0.915946 0.164303 0.106700
H25   H     H_    0.617558 0.747569 0.978261 0.078460
H26   H     H_    0.362396 0.084054 0.835697 0.106699
H27   H     H_    0.862396 0.415946 0.835696 0.106699
H28   H     H_    0.137603 0.584054 0.164304 0.106699
H29   H     H_    0.190789 0.447677 0.087834 0.096845
H30   H     H_    0.809211 0.552323 0.912165 0.096845
H31   H     H_    0.342733 0.044711 0.382619 0.089094
H32   H     H_    0.657267 0.955289 0.617381 0.089093
H33   H     H_    0.598007 0.078633 0.631077 0.083780
H34   H     H_    0.401993 0.921366 0.368923 0.083780
H35   H     H_    0.901990 0.578632 0.368925 0.083781
H36   H     H_    0.671151 0.224572 0.901457 0.089433
H37   H     H_    0.098010 0.421367 0.631075 0.083781
H38   H     H_    0.157267 0.544712 0.617380 0.089094
H39   H     H_    0.842733 0.455287 0.382620 0.089094
H40   H     H_    0.639727 0.759289 0.591261 0.122785
H41   H     H_    0.360273 0.240711 0.408739 0.122787
H42   H     H_    0.449515 0.709594 0.388778 0.124711
H43   H     H_    0.550485 0.290405 0.611221 0.124711
H44   H     H_    0.050487 0.209587 0.611232 0.124714
H45   H     H_    0.949512 0.790413 0.388767 0.124713
H46   H     H_    0.860270 0.259297 0.408752 0.122785
H47   H     H_    0.328848 0.775428 0.098543 0.089433
H48   H     H_    0.139730 0.740702 0.591248 0.122787
H49   H     H_    0.168291 0.085554 0.555649 0.120642
H50   H     H_    0.831708 0.914446 0.444351 0.120643
H51   H     H_    0.744956 0.138082 0.460132 0.117828
H52   H     H_    0.255044 0.861917 0.539868 0.117828
H53   H     H_    0.755050 0.638081 0.539874 0.117825
H54   H     H_    0.244950 0.361919 0.460126 0.117825
H55   H     H_    0.331720 0.585554 0.444355 0.120643
H56   H     H_    0.668281 0.414445 0.555644 0.120644
H57   H     H_    0.210281 0.723944 0.143054 0.131264
H58   H     H_    0.828849 0.724573 0.098542 0.089432
H59   H     H_    0.789719 0.276056 0.856946 0.131265
H60   H     H_    0.689397 0.665365 0.003034 0.123702
H61   H     H_    0.310603 0.334635 0.996964 0.123702
H62   H     H_    0.810603 0.165365 0.996965 0.123702
H63   H     H_    0.189396 0.834635 0.003036 0.123703
H64   H     H_    0.289718 0.223943 0.856947 0.131266
H65   H     H_    0.710282 0.776056 0.143052 0.131266
H66   H     H_    0.380083 0.137578 0.663808 0.258572
H67   H     H_    0.302080 0.059393 0.724730 0.261337
H68   H     H_    0.407950 0.042772 0.600306 0.257233
H69   H     H_    0.171152 0.275428 0.901457 0.089432
H70   H     H_    0.301508 0.057952 0.564177 0.183942
H71   H     H_    0.381265 0.134003 0.500396 0.202293
H72   H     H_    0.278375 0.223178 0.659354 0.193160
H73   H     H_    0.199101 0.146317 0.715969 0.181449
H74   H     H_    0.697919 0.940608 0.275272 0.261337
H75   H     H_    0.619920 0.862420 0.336185 0.258572
H76   H     H_    0.592047 0.957223 0.399693 0.257232
H77   H     H_    0.618731 0.865990 0.499602 0.202294
H78   H     H_    0.698485 0.942044 0.435830 0.183943
H79   H     H_    0.800899 0.853685 0.284033 0.181450
H80   H     H_    0.117557 0.752431 0.978262 0.078460
H81   H     H_    0.721628 0.776821 0.340642 0.193159
H82   H     H_    0.546650 0.175706 0.333075 0.263172
H83   H     H_    0.631610 0.104742 0.279910 0.260002
H84   H     H_    0.524638 0.080973 0.396120 0.244143
H85   H     H_    0.613232 0.111163 0.455341 0.191758
H86   H     H_    0.530979 0.183980 0.505821 0.198660
H87   H     H_    0.635418 0.274780 0.355805 0.192762
H88   H     H_    0.716888 0.200278 0.298491 0.184158
H89   H     H_    0.368391 0.895261 0.720088 0.260003
H90   H     H_    0.453353 0.824299 0.666919 0.263172
H91   H     H_    0.882442 0.247569 0.021738 0.078460
H92   H     H_    0.475363 0.919032 0.603875 0.244142
H93   H     H_    0.469021 0.816024 0.494175 0.198661
H94   H     H_    0.386764 0.888838 0.544660 0.191757
H95   H     H_    0.283114 0.799720 0.701509 0.184158
H96   H     H_    0.364587 0.725221 0.644189 0.192761
H97   H     H_    0.953386 0.675724 0.666883 0.263168
H98   H     H_    0.868414 0.604768 0.720084 0.260005
H99   H     H_    0.975375 0.580982 0.603865 0.244142
H100  H     H_    0.886763 0.611167 0.544669 0.191756
H101  H     H_    0.969026 0.683979 0.494157 0.198658
H102  H     H_    0.390619 0.745989 0.181783 0.088237
H103  H     H_    0.864606 0.774793 0.644165 0.192763
H104  H     H_    0.783129 0.700297 0.701506 0.184157
H105  H     H_    0.131585 0.395227 0.279912 0.260007
H106  H     H_    0.046608 0.324275 0.333127 0.263167
H107  H     H_    0.024625 0.419020 0.396135 0.244142
H108  H     H_    0.030975 0.316026 0.505847 0.198658
H109  H     H_    0.113241 0.388836 0.455325 0.191756
H110  H     H_    0.216870 0.299701 0.298493 0.184155
H111  H     H_    0.135390 0.225207 0.355839 0.192763
H112  H     H_    0.119931 0.637557 0.336186 0.258574
N1    N     N_R   0.408680 0.130810 0.995780 -0.041611
N2    N     N_R   0.578590 0.132790 0.846380 -0.035492
N3    N     N_R   0.578590 0.867210 0.846380 -0.042120
N4    N     N_R   0.421410 0.132790 0.153620 -0.042120
N5    N     N_R   0.921410 0.367210 0.153620 -0.042120
N6    N     N_R   0.078590 0.632790 0.846380 -0.042120
N7    N     N_R   0.078590 0.367210 0.846380 -0.035492
N8    N     N_R   0.921410 0.632790 0.153620 -0.035492
N9    N     N_R   0.403840 0.921910 0.935760 -0.040662
N10   N     N_R   0.596160 0.078090 0.064240 -0.040662
N11   N     N_R   0.596160 0.921910 0.064240 -0.036949
N12   N     N_R   0.591320 0.869190 0.004220 -0.041611
N13   N     N_R   0.403840 0.078090 0.935760 -0.036949
N14   N     N_R   0.903840 0.421910 0.935760 -0.036950
N15   N     N_R   0.096160 0.578090 0.064240 -0.036950
N16   N     N_R   0.096160 0.421910 0.064240 -0.040661
N17   N     N_R   0.903840 0.578090 0.935760 -0.040661
N18   N     N_R   0.426250 0.076100 0.213650 -0.040247
N19   N     N_R   0.573750 0.923900 0.786350 -0.040247
N20   N     N_R   0.573750 0.076100 0.786350 -0.033752
N21   N     N_R   0.426250 0.923900 0.213650 -0.033752
N22   N     N_R   0.926250 0.576100 0.213650 -0.033752
N23   N     N_R   0.591320 0.130810 0.004220 -0.046969
N24   N     N_R   0.073750 0.423900 0.786350 -0.033752
N25   N     N_R   0.073750 0.576100 0.786350 -0.040246
N26   N     N_R   0.926250 0.423900 0.213650 -0.040246
N27   N     N_R   0.408680 0.869190 0.995780 -0.046969
N28   N     N_R   0.908680 0.630810 0.995780 -0.046969
N29   N     N_R   0.091320 0.369190 0.004220 -0.046969
N30   N     N_R   0.091320 0.630810 0.004220 -0.041611
N31   N     N_R   0.908680 0.369190 0.995780 -0.041611
N32   N     N_R   0.421410 0.867210 0.153620 -0.035492
Ni1   Ni    Ni4+2 0.500000 0.131570 0.000000 0.205280
Ni2   Ni    Ni4+2 0.500000 0.868430 0.000000 0.205280
Ni3   Ni    Ni4+2 0.000000 0.631570 0.000000 0.205280
Ni4   Ni    Ni4+2 0.000000 0.368430 0.000000 0.205280
Ni5   Ni    Ni4+2 0.488900 1.000000 0.862310 0.208812
Ni6   Ni    Ni4+2 0.511100 1.000000 0.137690 0.208812
Ni7   Ni    Ni4+2 0.988900 0.500000 0.862310 0.208813
Ni8   Ni    Ni4+2 0.011100 0.500000 0.137690 0.208813

loop_
_geom_bond_atom_site_label_1
_geom_bond_atom_site_label_2
_ccdc_geom_bond_type
C9    H106  S    
C77   H51   S    
C31   C66   A    
C83   C87   S    
C46   N16   A    
C58   C62   A    
C101  C102  S    
C4    H104  S    
C20   C82   S    
N12   Ni2   S    
C103  H70   S    
N1    N13   A    
C105  H79   S    
C79   C98   S    
C58   N28   A    
N7    N24   A    
N22   Ni8   S    
C26   C63   S    
C52   N21   A    
C49   N18   A    
C109  H86   S    
C2    C76   S    
C7    C8    S    
C74   C98   S    
C6    H97   S    
C47   H47   S    
C40   N9    A    
C2    C98   S    
C78   H52   S    
C20   C92   S    
C107  H74   S    
N9    N27   A    
N16   N29   A    
N14   N31   A    
C80   N30   A    
C31   N32   A    
C103  H71   S    
C88   H44   S    
C14   C21   S    
C58   H58   S    
C16   H11   S    
C112  H93   S    
C75   C94   S    
C27   C60   S    
N27   Ni2   S    
N3    N19   A    
C5    C6    S    
C76   C93   S    
C104  H67   S    
C41   N10   A    
C51   H33   S    
C3    H90   S    
C1    N1    A    
C15   C16   S    
C107  H75   S    
C53   H35   S    
C91   H91   S    
C14   H16   S    
C108  C109  S    
N2    Ni1   S    
C43   H26   S    
C42   H24   S    
N19   Ni5   S    
C42   N11   A    
C39   C74   A    
C33   N3    A    
C16   H10   S    
C53   N22   A    
C12   H112  S    
C10   H7    S    
C43   N13   A    
N3    Ni2   S    
C2    C84   S    
C36   H36   S    
C104  H66   S    
C34   N4    A    
C111  C112  S    
C34   H17   S    
C10   C20   S    
C18   C79   S    
C15   H14   S    
N32   Ni2   S    
C109  H85   S    
C110  H82   S    
C75   C102  S    
C52   H34   S    
C81   H54   S    
C55   N25   A    
C105  C106  S    
C23   C27   D    
C54   H37   S    
N6    N25   A    
C103  C104  S    
C25   H25   S    
C34   C70   A    
C47   N27   A    
N5    N26   A    
C76   C89   S    
C82   H55   S    
C12   H3    S    
C4    C18   S    
C28   C61   S    
C9    H107  S    
C83   H56   S    
C35   C71   A    
C101  C103  S    
C4    H103  S    
C83   C99   S    
C87   C96   S    
C3    H92   S    
C64   C80   A    
C45   C64   A    
N14   Ni7   S    
N17   N28   A    
C1    H1    S    
C101  H72   S    
N16   Ni8   S    
C13   C108  S    
C101  H73   S    
N21   Ni6   S    
C17   C111  S    
C27   H62   S    
N23   Ni1   S    
C50   H32   S    
C46   H29   S    
C21   C90   S    
C37   N6    A    
N21   N32   A    
C13   C77   S    
C77   C90   S    
C15   H12   S    
N13   Ni5   S    
C17   C86   S    
C21   C83   S    
C108  H88   S    
C25   N12   A    
C19   C88   S    
C86   C95   S    
C31   H102  S    
C7    H110  S    
C43   C57   A    
N4    Ni1   S    
C8    C9    S    
C85   H41   S    
C6    H99   S    
C26   H61   S    
C78   C92   S    
C82   C86   S    
C71   C99   S    
C107  H76   S    
N8    Ni3   S    
C45   H28   S    
N25   Ni7   S    
C14   H15   S    
C37   H19   S    
C56   N26   A    
C35   N5    A    
C78   C95   S    
C38   H20   S    
C13   C99   S    
C73   C97   S    
C16   H9    S    
C45   N15   A    
C8    H108  S    
C1    C57   A    
N10   N23   A    
C54   C73   A    
C7    H111  S    
C85   C94   S    
N2    N20   A    
C3    C112  S    
N11   N12   A    
C56   C71   A    
C5    H101  S    
C30   C59   S    
C13   C87   S    
N15   N30   A    
C33   H13   S    
N18   Ni6   S    
C48   H30   S    
C51   C67   A    
C79   H53   S    
C56   H39   S    
C40   C61   A    
C35   H18   S    
N26   Ni8   S    
C19   C94   S    
C32   C67   A    
C84   H40   S    
N4    N18   A    
C20   C95   S    
C29   C57   S    
C50   N19   A    
C44   H27   S    
C54   N24   A    
C49   C70   A    
C110  H84   S    
C67   C96   S    
C3    H89   S    
C87   H43   S    
N15   Ni8   S    
C106  H78   S    
C29   H64   S    
C11   H5    S    
C111  H95   S    
C90   C99   S    
C41   H23   S    
C52   C66   A    
N6    Ni3   S    
C92   C100  S    
C55   H38   S    
N9    Ni5   S    
C72   C100  S    
C36   N23   A    
C9    H105  S    
C65   C91   A    
C5    H100  S    
N31   Ni4   S    
C69   N29   A    
C24   C62   S    
C77   C96   S    
C70   C94   S    
C111  H96   S    
C18   C89   S    
C82   C100  S    
C8    H109  S    
N17   Ni7   S    
C104  H68   S    
C55   C72   A    
C41   C60   A    
C32   N2    A    
C48   N17   A    
C36   C60   A    
C44   N14   A    
C42   C59   A    
C47   C61   A    
C11   C12   S    
C28   H63   S    
C89   H45   S    
C38   N7    A    
C6    H98   S    
C21   C96   S    
N11   Ni6   S    
C39   H21   S    
N7    Ni4   S    
C46   C63   A    
C2    C105  S    
C7    C19   S    
C68   C93   S    
C106  H77   S    
C92   H48   S    
C89   C98   S    
C75   H49   S    
N24   Ni7   S    
C108  H87   S    
C48   C62   A    
C88   C97   S    
C112  H94   S    
C63   C69   A    
C40   H22   S    
C109  C110  S    
C105  H81   S    
N29   Ni4   S    
C23   C65   S    
C79   C84   S    
C91   N31   A    
N30   Ni3   S    
C4    C5    S    
C49   H31   S    
C44   C65   A    
C17   C78   S    
C81   C97   S    
C30   H65   S    
N8    N22   A    
C84   C93   S    
C39   N8    A    
C86   H42   S    
C24   H60   S    
C17   C100  S    
C24   C30   D    
C22   H57   S    
C10   H8    S    
C10   C11   S    
C80   H80   S    
N1    Ni1   S    
N5    Ni4   S    
C75   C88   S    
N10   Ni6   S    
C23   H59   S    
C90   H46   S    
N28   Ni3   S    
C26   C29   D    
C106  C107  S    
C37   C72   A    
C110  H83   S    
C18   C93   S    
C51   N20   A    
C14   C15   S    
C22   C28   D    
N20   Ni5   S    
C25   C59   A    
C22   C64   S    
C32   H2    S    
C76   H50   S    
C19   C81   S    
C11   H6    S    
C50   C68   A    
C97   C102  S    
C38   C73   A    
C81   C85   S    
C85   C102  S    
C33   C68   A    
C69   H69   S    
C66   C95   S    
C12   H4    S    
C53   C74   A    
