data_mof_unit_59685.cif
_audit_creation_date              2012-10-26T21:20:09-0400
_audit_creation_method            fapswitch 2.2
_symmetry_space_group_name_H-M    P1
_symmetry_Int_Tables_number       1
_space_group_crystal_system       triclinic
_cell_length_a                    13.025201
_cell_length_b                    10.799266
_cell_length_c                    9.510884
_cell_angle_alpha                 89.91244
_cell_angle_beta                  96.707346
_cell_angle_gamma                 90.205428
_cell_volume                      1328.65989673

loop_
_atom_site_label
_atom_site_type_symbol
_atom_type_description
_atom_site_fract_x
_atom_site_fract_y
_atom_site_fract_z
_atom_type_partial_charge
C1    C     C_R   0.503055 0.262314 0.500585 0.529470
C2    C     C_R   0.699819 0.500303 0.527335 0.562903
C3    C     C_R   0.813163 0.500808 0.544963 0.041652
C4    C     C_R   0.186837 0.499192 0.455037 0.041647
C5    C     C_R   0.020417 0.494392 0.310317 -0.108230
C6    C     C_R   0.979583 0.505609 0.689682 -0.108230
C7    C     C_R   0.128668 0.494934 0.319753 0.245360
C8    C     C_R   0.871332 0.505067 0.680247 0.245362
C9    C     C_R   0.136238 0.502760 0.577211 -0.169715
C10   C     C_R   0.863762 0.497240 0.422789 -0.169713
C11   C     C_R   0.029096 0.502100 0.567081 0.003590
C12   C     C_R   0.496952 0.737686 0.499416 0.529474
C13   C     C_R   0.970904 0.497900 0.432919 0.003591
C14   C     C_R   0.564905 0.061276 0.412882 0.225273
C15   C     C_R   0.435110 0.938722 0.587129 0.225227
C16   C     C_R   0.556907 0.933303 0.410323 -0.091989
C17   C     C_R   0.443101 0.066695 0.589681 -0.092007
C18   C     C_R   0.494449 0.871537 0.498170 -0.033000
C19   C     C_R   0.505566 0.128462 0.501834 -0.032971
C20   C     C_R   0.432007 0.427595 0.063700 0.050481
C21   C     C_R   0.567993 0.572405 0.936300 0.050487
C22   C     C_R   0.432069 0.427574 0.914830 0.025980
C23   C     C_R   0.567931 0.572426 0.085169 0.025979
C24   C     C_R   0.300181 0.499697 0.472665 0.562904
Cu1   Cu    Cu3+1 0.500000 0.500020 0.640660 0.987700
Cu2   Cu    Cu3+1 0.500000 0.499980 0.359340 0.987681
H1    H     H_    0.819801 0.493895 0.318722 0.135736
H2    H     H_    0.622216 0.630630 0.149880 0.113252
H3    H     H_    0.874094 0.511689 0.885633 0.311351
H4    H     H_    0.125906 0.488311 0.114367 0.311352
H5    H     H_    0.655296 0.197063 0.371574 0.339964
H6    H     H_    0.344678 0.802955 0.628378 0.339942
H7    H     H_    0.180199 0.506105 0.681278 0.135739
H8    H     H_    0.974892 0.491139 0.207353 0.093066
H9    H     H_    0.025108 0.508861 0.792647 0.093067
H10   H     H_    0.603332 0.881470 0.343490 0.157511
H11   H     H_    0.396659 0.118529 0.656505 0.157506
H12   H     H_    0.377664 0.369509 0.111284 0.146283
H13   H     H_    0.622336 0.630491 0.888716 0.146282
H14   H     H_    0.377784 0.369369 0.850120 0.113251
N1    N     N_R   0.500030 0.500030 0.852080 -0.227779
N2    N     N_R   0.499970 0.499970 0.147920 -0.227782
O1    O     O_R   0.499990 0.319660 0.618740 -0.508957
O2    O     O_3   0.178177 0.491062 0.198968 -0.688395
O3    O     O_3   0.633265 0.115678 0.330645 -0.677079
O4    O     O_3   0.366734 0.884310 0.669372 -0.677023
O5    O     O_R   0.500010 0.680340 0.381260 -0.508962
O6    O     O_R   0.499990 0.319630 0.381170 -0.491806
O7    O     O_R   0.500010 0.680370 0.618830 -0.491771
O8    O     O_R   0.349000 0.499990 0.599490 -0.537868
O9    O     O_R   0.651000 0.500010 0.400510 -0.537877
O10   O     O_R   0.348990 0.499960 0.361920 -0.434753
O11   O     O_R   0.651010 0.500040 0.638080 -0.434758
O12   O     O_3   0.821823 0.508938 0.801032 -0.688397

loop_
_geom_bond_atom_site_label_1
_geom_bond_atom_site_label_2
_ccdc_geom_bond_type
C10   H1    S    
C24   O10   A    
C15   C18   A    
C20   N2    A    
C10   C13   A    
C1    O6    A    
H5    O3    S    
Cu2   O10   S    
C9    C11   A    
C5    C13   A    
C21   H13   S    
Cu2   O6    S    
C22   H14   S    
C5    H8    S    
Cu1   O1    S    
C21   C23   A    
C2    C3    S    
Cu1   Cu2   S    
C3    C10   A    
C17   H11   S    
Cu2   O9    S    
C16   H10   S    
C9    H7    S    
C11   C13   A    
H4    O2    S    
C23   N2    A    
Cu2   O5    S    
C12   O5    A    
C21   N1    A    
C15   C17   A    
C17   C19   A    
Cu1   O11   S    
C12   O7    A    
C14   O3    S    
Cu1   O7    S    
C4    C7    A    
C24   O8    A    
C4    C24   S    
C14   C16   A    
C1    C19   S    
C22   N1    A    
C23   H2    S    
H3    O12   S    
Cu1   N1    S    
C20   H12   S    
C6    H9    S    
Cu2   N2    S    
C16   C18   A    
C3    C8    A    
C2    O9    A    
C8    O12   S    
C6    C11   A    
C5    C7    A    
Cu1   O8    S    
C6    C8    A    
C15   O4    S    
C4    C9    A    
C7    O2    S    
H6    O4    S    
C14   C19   A    
C1    O1    A    
C20   C22   A    
C2    O11   A    
C12   C18   S    
