data_mof_unit_46717.cif
_audit_creation_date              2013-03-05T16:00:02-0500
_audit_creation_method            fapswitch 2.2
_symmetry_space_group_name_H-M    P1
_symmetry_Int_Tables_number       1
_space_group_crystal_system       triclinic
_cell_length_a                    20.661011
_cell_length_b                    21.173409
_cell_length_c                    14.720182
_cell_angle_alpha                 90.206688
_cell_angle_beta                  128.126542
_cell_angle_gamma                 89.622112
_cell_volume                      5065.55532613

loop_
_atom_site_label
_atom_site_type_symbol
_atom_site_description
_atom_site_fract_x
_atom_site_fract_y
_atom_site_fract_z
_atom_type_partial_charge
O1    O     O_R   0.600040 0.935040 0.546740 -0.554062
O2    O     O_R   0.399960 0.064960 0.453260 -0.558660
O3    O     O_R   0.399960 0.935040 0.453260 -0.552038
O4    O     O_R   0.600040 0.064960 0.546740 -0.563788
O5    O     O_R   0.100040 0.435040 0.546740 -0.554953
O6    O     O_R   0.899960 0.564960 0.453260 -0.567610
O7    O     O_R   0.899960 0.435040 0.453260 -0.557918
O8    O     O_R   0.100040 0.564960 0.546740 -0.574756
O9    O     O_R   0.555010 0.935070 0.653220 -0.551678
O10   O     O_R   0.444990 0.064930 0.346780 -0.570158
O11   O     O_R   0.444990 0.935070 0.346780 -0.530236
O12   O     O_R   0.555010 0.064930 0.653220 -0.531226
O13   O     O_R   0.055010 0.435070 0.653220 -0.544135
O14   O     O_R   0.944990 0.564930 0.346780 -0.532442
O15   O     O_R   0.944990 0.435070 0.346780 -0.546717
O16   O     O_R   0.055010 0.564930 0.653220 -0.527156
C1    C     C_R   0.603081 0.912975 0.631421 0.853875
C2    C     C_R   0.397980 0.087399 0.369831 0.897539
C3    C     C_R   0.397079 0.912809 0.368354 0.878557
C4    C     C_R   0.600823 0.088517 0.629103 0.858987
C5    C     C_R   0.104010 0.413274 0.632410 0.884666
C6    C     C_R   0.897913 0.587616 0.369863 0.867609
C7    C     C_R   0.895422 0.414336 0.366386 0.859667
C8    C     C_R   0.100576 0.588527 0.628753 0.883610
Cu1   Cu    Cu3+1 0.526640 0.000000 0.436960 1.074483
Cu2   Cu    Cu3+1 0.473360 0.000000 0.563040 1.087510
Cu3   Cu    Cu3+1 0.026640 0.500000 0.436960 1.082751
Cu4   Cu    Cu3+1 0.973360 0.500000 0.563040 1.081254
C9    C     C_R   0.649703 0.146409 0.690651 -0.257246
C10   C     C_R   0.333382 0.865085 0.289076 -0.263083
C11   C     C_R   0.351694 0.145935 0.311300 -0.230967
C12   C     C_R   0.667112 0.865722 0.710827 -0.269353
C13   C     C_R   0.145593 0.648082 0.686169 -0.261542
C14   C     C_R   0.826302 0.372435 0.280065 -0.267158
C15   C     C_R   0.845845 0.643583 0.305590 -0.256007
C16   C     C_R   0.165395 0.362335 0.706757 -0.271520
C17   C     C_R   0.734024 0.235384 0.711905 -0.121186
C18   C     C_R   0.213162 0.801136 0.225439 -0.115355
C19   C     C_R   0.332824 0.257725 0.331141 -0.127327
C20   C     C_R   0.799332 0.812955 0.795773 -0.106511
C21   C     C_R   0.197260 0.751427 0.682356 -0.123149
C22   C     C_R   0.685099 0.334802 0.180784 -0.100418
C23   C     C_R   0.769118 0.737812 0.288553 -0.130663
C24   C     C_R   0.245962 0.269398 0.729318 -0.126584
C25   C     C_R   0.684375 0.182538 0.649100 0.240476
C26   C     C_R   0.276835 0.842606 0.306022 0.259751
C27   C     C_R   0.354603 0.196207 0.377024 0.242581
C28   C     C_R   0.735362 0.853521 0.712011 0.264855
C29   C     C_R   0.159355 0.693124 0.628732 0.246930
C30   C     C_R   0.754548 0.367800 0.272683 0.263313
C31   C     C_R   0.819667 0.685247 0.353195 0.240794
C32   C     C_R   0.193287 0.320382 0.662118 0.222808
C33   C     C_R   0.658640 0.167824 0.788904 0.290880
C34   C     C_R   0.326197 0.844054 0.191945 0.245060
C35   C     C_R   0.318115 0.156103 0.195252 0.221929
C36   C     C_R   0.663181 0.835747 0.792609 0.211647
C37   C     C_R   0.168435 0.662726 0.795602 0.248358
C38   C     C_R   0.828102 0.342131 0.196159 0.211838
C39   C     C_R   0.825122 0.657318 0.197178 0.261209
C40   C     C_R   0.196170 0.355540 0.822746 0.282981
C41   C     C_R   0.694787 0.226994 0.837620 -0.012031
C42   C     C_R   0.255860 0.810315 0.103472 -0.009939
C43   C     C_R   0.312697 0.218852 0.157616 0.000152
C44   C     C_R   0.733522 0.805058 0.887887 -0.011903
C45   C     C_R   0.189772 0.724983 0.837417 -0.006502
C46   C     C_R   0.754653 0.318283 0.095107 -0.009171
C47   C     C_R   0.792449 0.716884 0.147389 -0.007412
C48   C     C_R   0.249339 0.304313 0.891509 -0.021643
C49   C     C_R   0.741014 0.256772 0.808695 -0.011126
C50   C     C_R   0.203846 0.783741 0.125237 0.006542
C51   C     C_R   0.317811 0.269713 0.225080 -0.001744
C52   C     C_R   0.798294 0.788358 0.883883 -0.002071
C53   C     C_R   0.211833 0.767758 0.787054 -0.017562
C54   C     C_R   0.685140 0.309791 0.091759 -0.016696
C55   C     C_R   0.755507 0.753826 0.184669 -0.007726
C56   C     C_R   0.268608 0.258721 0.840392 -0.010013
C57   C     C_R   0.689592 0.255847 0.919802 0.093794
C58   C     C_R   0.239837 0.797778 0.996555 0.091728
C59   C     C_R   0.302617 0.232627 0.054778 0.113151
C60   C     C_R   0.739282 0.788030 0.985583 0.111811
C61   C     C_R   0.192408 0.744985 0.931615 0.110049
C62   C     C_R   0.750174 0.299192 0.998958 0.112534
C63   C     C_R   0.794366 0.739950 0.059123 0.108954
C64   C     C_R   0.279353 0.294222 0.007542 0.091053
C65   C     C_R   0.262128 0.840008 0.946761 -0.086177
C66   C     C_R   0.621081 0.247686 0.917164 -0.090123
C67   C     C_R   0.698740 0.822574 0.019121 -0.123236
C68   C     C_R   0.321893 0.188434 0.003173 -0.124434
C69   C     C_R   0.798437 0.327084 0.972728 -0.117515
C70   C     C_R   0.142332 0.717834 0.955237 -0.124462
C71   C     C_R   0.292418 0.343780 0.080868 -0.108361
C72   C     C_R   0.856320 0.721480 0.051414 -0.125871
C73   C     C_R   0.245504 0.826414 0.841579 -0.099615
C74   C     C_R   0.618200 0.274878 0.000463 -0.116151
C75   C     C_R   0.708921 0.807121 0.119035 -0.105228
C76   C     C_R   0.307635 0.202013 0.900050 -0.120363
C77   C     C_R   0.791107 0.308273 0.876049 -0.101479
C78   C     C_R   0.146340 0.737946 0.048485 -0.142205
C79   C     C_R   0.311487 0.331798 0.187414 -0.117651
C80   C     C_R   0.859283 0.746127 0.966887 -0.121769
H1    H     H_    0.259533 0.862436 0.804389 0.178857
H2    H     H_    0.563725 0.266623 0.993492 0.190159
H3    H     H_    0.680204 0.837692 0.143899 0.185977
H4    H     H_    0.323211 0.165640 0.864713 0.182006
H5    H     H_    0.826034 0.334046 0.856356 0.183391
H6    H     H_    0.105743 0.715465 0.061392 0.171414
H7    H     H_    0.322417 0.371866 0.240682 0.191079
H8    H     H_    0.909157 0.730703 0.966634 0.177979
H9    H     H_    0.285548 0.886305 0.983242 0.205469
H10   H     H_    0.566322 0.224614 0.845441 0.221268
H11   H     H_    0.665602 0.865518 0.975132 0.168070
H12   H     H_    0.351044 0.143731 0.044004 0.158020
H13   H     H_    0.836517 0.367401 0.020389 0.165349
H14   H     H_    0.094912 0.684537 0.896606 0.195817
H15   H     H_    0.292815 0.392464 0.060094 0.207362
H16   H     H_    0.907367 0.692341 0.116921 0.196553
N1    N     N_R   0.433280 0.000000 0.657760 -0.195151
N2    N     N_R   0.566720 0.000000 0.342240 -0.202680
N3    N     N_R   0.933280 0.500000 0.657760 -0.214211
N4    N     N_R   0.066720 0.500000 0.342240 -0.192621
C81   C     C_R   0.320625 0.007591 0.663033 -0.240074
C82   C     C_R   0.679407 0.994220 0.336939 -0.195493
C83   C     C_R   0.820538 0.499367 0.663736 -0.188899
C84   C     C_R   0.177884 0.513816 0.335449 -0.236764
C85   C     C_R   0.351297 0.004283 0.601602 0.181427
C86   C     C_R   0.648754 0.997678 0.398346 0.200301
C87   C     C_R   0.851357 0.504069 0.602472 0.191754
C88   C     C_R   0.147429 0.511126 0.397084 0.171905
C89   C     C_R   0.487476 0.996783 0.775244 0.182818
C90   C     C_R   0.512449 0.003193 0.224770 0.111972
C91   C     C_R   0.987298 0.494440 0.774964 0.114785
C92   C     C_R   0.013458 0.491223 0.225591 0.175861
C93   C     C_R   0.460531 0.000435 0.844083 -0.011188
C94   C     C_R   0.539349 0.999484 0.155883 -0.014198
C95   C     C_R   0.960549 0.492997 0.844063 -0.026929
C96   C     C_R   0.039987 0.494574 0.156314 -0.018349
C97   C     C_R   0.374603 0.007934 0.784879 0.051115
C98   C     C_R   0.625356 0.992519 0.215131 0.047610
C99   C     C_R   0.874385 0.491760 0.784886 0.045824
C100  C     C_R   0.125468 0.504006 0.214905 0.061926
C101  C     C_R   0.515647 0.997364 0.968355 0.080716
C102  C     C_R   0.484183 0.002272 0.031602 0.080586
C103  C     C_R   0.016001 0.493725 0.968547 0.064328
C104  C     C_R   0.984649 0.490717 0.031966 0.068275
C105  C     C_R   0.398658 0.010831 0.968844 -0.254776
C106  C     C_R   0.601168 0.988748 0.031133 -0.211772
C107  C     C_R   0.898798 0.485068 0.968962 -0.220455
C108  C     C_R   0.101686 0.499568 0.031313 -0.179269
C109  C     C_R   0.344392 0.014440 0.848298 -0.037895
C110  C     C_R   0.655579 0.985688 0.151772 -0.024438
C111  C     C_R   0.844091 0.484855 0.848039 -0.027846
C112  C     C_R   0.156087 0.505309 0.151574 -0.026361
H17   H     H_    0.448716 0.007426 0.187777 0.166959
H18   H     H_    0.551253 0.992585 0.812316 0.150903
H19   H     H_    0.950794 0.481776 0.189267 0.159941
H20   H     H_    0.050485 0.490050 0.811668 0.219181
H21   H     H_    0.690652 0.998453 0.491607 0.186258
H22   H     H_    0.309407 0.005619 0.508244 0.174148
H23   H     H_    0.188477 0.518562 0.489471 0.155168
H24   H     H_    0.809541 0.510153 0.509877 0.187464
H25   H     H_    0.254603 0.009378 0.613796 0.205462
H26   H     H_    0.745445 0.993707 0.386170 0.208697
H27   H     H_    0.754698 0.503234 0.615414 0.203474
H28   H     H_    0.242125 0.525150 0.383462 0.201874
H29   H     H_    0.371673 0.016846 0.011673 0.177988
H30   H     H_    0.628076 0.982569 0.988246 0.165880
H31   H     H_    0.871734 0.480407 0.011789 0.178015
H32   H     H_    0.128954 0.500087 0.988653 0.230708
N5    N     N_R   0.398589 0.840263 0.198689 0.143066
O17   O     O_R   0.440393 0.787743 0.231872 -0.272944
O18   O     O_R   0.419157 0.886286 0.163150 -0.380719
N6    N     N_R   0.648047 0.124709 0.854135 0.114372
O19   O     O_R   0.712643 0.100771 0.949506 -0.302337
O20   O     O_R   0.576055 0.116062 0.828041 -0.377043
N7    N     N_R   0.584184 0.820544 0.762597 0.151430
O21   O     O_R   0.557244 0.762997 0.732319 -0.256331
O22   O     O_R   0.544163 0.860461 0.778956 -0.353381
N8    N     N_R   0.276085 0.105265 0.112264 0.117218
O23   O     O_R   0.206483 0.116731 0.011275 -0.283875
O24   O     O_R   0.298824 0.046653 0.141335 -0.377141
N9    N     N_R   0.905455 0.320127 0.226865 0.154406
O25   O     O_R   0.922313 0.260022 0.243798 -0.247463
O26   O     O_R   0.952769 0.357018 0.220887 -0.338214
N10   N     N_R   0.189582 0.612622 0.875124 0.146310
O27   O     O_R   0.266479 0.602746 0.961981 -0.249190
O28   O     O_R   0.133136 0.584298 0.872779 -0.385982
N11   N     N_R   0.168244 0.398568 0.867122 0.088027
O29   O     O_R   0.121053 0.378997 0.891664 -0.366290
O30   O     O_R   0.191448 0.457251 0.884757 -0.354185
N12   N     N_R   0.816879 0.606869 0.125016 0.121977
O31   O     O_R   0.743705 0.587421 0.039784 -0.279589
O32   O     O_R   0.879579 0.586929 0.132468 -0.403341
N13   N     N_R   0.286144 0.858803 0.408223 0.141126
O33   O     O_R   0.346664 0.834654 0.507105 -0.271968
O34   O     O_R   0.228639 0.890472 0.400236 -0.344119
N14   N     N_R   0.671136 0.165163 0.544494 0.155096
O35   O     O_R   0.600032 0.175799 0.445117 -0.314205
O36   O     O_R   0.731950 0.144072 0.548041 -0.319256
N15   N     N_R   0.740177 0.881462 0.627798 0.140513
O37   O     O_R   0.695955 0.858652 0.523548 -0.298492
O38   O     O_R   0.799288 0.920572 0.660596 -0.334116
N16   N     N_R   0.377514 0.184537 0.489279 0.151329
O39   O     O_R   0.452240 0.195502 0.581241 -0.343113
O40   O     O_R   0.324878 0.159250 0.499030 -0.313001
N17   N     N_R   0.751090 0.396679 0.357871 0.138324
O41   O     O_R   0.788483 0.369878 0.458249 -0.289883
O42   O     O_R   0.698582 0.442039 0.327974 -0.342663
N18   N     N_R   0.137325 0.679204 0.517495 0.157367
O43   O     O_R   0.060948 0.683476 0.425503 -0.340870
O44   O     O_R   0.194087 0.664851 0.507729 -0.294418
N19   N     N_R   0.166242 0.328072 0.546686 0.160440
O45   O     O_R   0.091483 0.313047 0.459416 -0.238312
O46   O     O_R   0.218315 0.344368 0.529138 -0.322064
N20   N     N_R   0.842794 0.673883 0.465855 0.159032
O47   O     O_R   0.918707 0.681830 0.557122 -0.323446
O48   O     O_R   0.787230 0.659623 0.477743 -0.305322
C113  C     C_2   0.218647 0.795475 0.626194 0.948342
O49   O     O_2   0.166906 0.810043 0.524760 -0.483907
O50   O     O_R   0.298236 0.819892 0.689393 -0.717146
H33   H     H_    0.304409 0.851286 0.643444 0.378862
C114  C     C_2   0.612505 0.328048 0.178554 0.929002
O51   O     O_2   0.620912 0.304987 0.261348 -0.480612
O52   O     O_R   0.535116 0.349296 0.082957 -0.738224
H34   H     H_    0.490756 0.342067 0.091738 0.342361
C115  C     C_2   0.735345 0.777563 0.333952 0.971788
O53   O     O_2   0.781613 0.800390 0.430678 -0.450587
O54   O     O_R   0.650537 0.788327 0.266237 -0.713837
H35   H     H_    0.635001 0.816744 0.305686 0.383201
C116  C     C_2   0.276192 0.226823 0.681960 0.971792
O55   O     O_2   0.227932 0.204044 0.585539 -0.458655
O56   O     O_R   0.360279 0.213021 0.748431 -0.753855
H36   H     H_    0.373522 0.182147 0.709178 0.380906
C117  C     C_2   0.774704 0.269475 0.671613 0.958196
O57   O     O_2   0.733320 0.290988 0.573654 -0.454716
O58   O     O_R   0.860243 0.276079 0.745024 -0.727505
H37   H     H_    0.880482 0.300438 0.707830 0.364826
C118  C     C_2   0.157084 0.776226 0.247783 0.945342
O59   O     O_2   0.185451 0.749391 0.338851 -0.463185
O60   O     O_R   0.072051 0.784455 0.165414 -0.732542
H38   H     H_    0.040579 0.765907 0.191086 0.347462
C119  C     C_2   0.325075 0.308835 0.393651 0.950433
O61   O     O_2   0.379225 0.316974 0.496999 -0.508860
O62   O     O_R   0.254923 0.347386 0.333516 -0.701114
H39   H     H_    0.256483 0.380526 0.384690 0.376666
C120  C     C_2   0.867903 0.798488 0.791502 0.929363
O63   O     O_2   0.853154 0.776321 0.703674 -0.466788
O64   O     O_R   0.948950 0.811754 0.886860 -0.722179
H40   H     H_    0.989806 0.801026 0.872455 0.344494
C121  C     C_2   0.256406 0.027874 0.792485 0.830176
O65   O     O_2   0.222371 0.000388 0.825408 -0.548238
O66   O     O_R   0.213639 0.074069 0.706515 -0.749083
H41   H     H_    0.154873 0.079759 0.677331 0.370585
C122  C     C_2   0.743811 0.972910 0.207832 0.824183
O67   O     O_2   0.776873 0.999317 0.172472 -0.508054
O68   O     O_R   0.788025 0.928591 0.297058 -0.764497
H42   H     H_    0.846736 0.923100 0.325908 0.362155
C123  C     C_2   0.755411 0.474791 0.790994 0.825835
O69   O     O_2   0.723594 0.500570 0.829215 -0.506684
O70   O     O_R   0.709259 0.433516 0.697179 -0.755575
H43   H     H_    0.650324 0.429530 0.667806 0.360434
C124  C     C_2   0.245047 0.512629 0.207053 0.859688
O71   O     O_2   0.265876 0.546401 0.161988 -0.496936
O72   O     O_R   0.304783 0.479370 0.307755 -0.776880
H44   H     H_    0.362670 0.487963 0.335671 0.354182

loop_
_geom_bond_atom_site_label_1
_geom_bond_atom_site_label_2
_geom_bond_distance
_ccdc_geom_bond_type
C112  C124  1.489497 S    
O16   Cu4   1.936568 S    
C18   C50   1.412367 A    
C120  O64   1.397923 S    
C47   C63   1.413028 A    
N12   O31   1.300630 A    
O8    C8    1.298373 A    
C17   C49   1.413525 A    
O2    C2    1.295190 A    
N5    O18   1.299023 A    
N5    O17   1.300583 A    
C54   C74   1.405893 A    
O60   H38   1.013779 S    
C34   N5    1.438236 S    
Cu2   N1    2.013831 S    
C53   C73   1.409027 A    
C93   C97   1.422446 A    
C96   C100  1.423174 A    
C44   C52   1.417893 A    
Cu1   N2    2.013830 S    
C68   C76   1.386944 A    
C20   C120  1.486307 S    
C55   C75   1.406578 A    
O66   H41   1.013724 S    
N7    O22   1.300480 A    
C5    C16   1.498706 S    
C43   C59   1.425862 A    
Cu3   N4    2.013830 S    
C98   C110  1.413378 A    
C95   C99   1.419250 A    
C6    C15   1.480251 S    
C10   C34   1.413796 A    
O11   C3    1.303184 A    
C121  O65   1.223236 D    
C114  O51   1.222984 D    
C62   C69   1.406054 A    
N16   O40   1.300358 A    
C26   N13   1.434485 S    
C38   N9    1.440585 S    
C19   C27   1.406624 A    
C91   H20   1.064274 S    
C66   H10   1.077933 S    
O12   Cu2   1.936568 S    
C123  O69   1.223260 D    
C60   C67   1.407238 A    
C91   C95   1.426730 A    
C60   C63   1.405296 A    
C89   H18   1.073753 S    
N10   O28   1.296264 A    
N11   O30   1.301135 A    
N20   O48   1.301046 A    
C11   C35   1.408220 A    
C67   H11   1.078627 S    
O11   Cu1   1.936571 S    
C13   C29   1.418265 A    
C103  C104  1.429260 A    
C46   C54   1.418955 A    
C83   C99   1.412025 A    
O68   H42   1.013751 S    
C92   H19   1.072375 S    
C45   C53   1.416049 A    
N10   O27   1.300730 A    
C42   C50   1.417225 A    
C15   C39   1.404485 A    
C119  O61   1.222601 D    
C81   C97   1.410980 A    
C24   C56   1.414206 A    
O54   H35   1.013593 S    
C23   C115  1.485241 S    
C66   C74   1.386774 A    
C33   N6    1.439338 S    
C39   C47   1.402858 A    
C106  C110  1.398676 A    
C65   C73   1.392647 A    
C38   C46   1.409916 A    
O6    Cu4   1.940479 S    
O52   H34   1.014115 S    
C41   C57   1.415036 A    
N18   O43   1.300938 A    
N13   O34   1.301029 A    
C35   C43   1.418243 A    
N6    O20   1.300433 A    
C32   N19   1.433309 S    
N3    C91   1.363128 A    
O58   H37   1.013993 S    
C36   C44   1.406626 A    
O13   Cu4   1.927551 S    
O3    C3    1.300552 A    
C78   H6    1.081151 S    
C11   C27   1.412179 A    
C64   C71   1.405266 A    
O14   Cu3   1.927550 S    
C22   C114  1.487670 S    
N1    C89   1.363062 A    
C117  O57   1.222723 D    
C100  C112  1.413770 A    
C16   C32   1.417566 A    
C84   C88   1.388579 A    
C77   H5    1.080388 S    
C24   C32   1.411080 A    
C25   N14   1.434692 S    
O15   C7    1.302565 A    
C106  H30   1.075437 S    
N15   O37   1.300820 A    
O16   C8    1.300709 A    
O5    Cu3   1.940480 S    
C120  O63   1.222967 D    
O1    Cu1   1.940480 S    
C12   C28   1.421382 A    
C102  C105  1.410668 A    
C97   C109  1.413355 A    
C90   C94   1.427609 A    
C33   C41   1.409313 A    
C104  C107  1.411159 A    
C44   C60   1.415678 A    
C1    C12   1.482910 S    
C21   C29   1.415183 A    
C59   C68   1.405266 A    
C75   H3    1.079981 S    
O9    Cu2   1.927551 S    
O4    Cu1   1.946384 S    
C4    C9    1.490564 S    
N9    O26   1.300112 A    
C109  C121  1.487024 S    
C103  C108  1.409049 A    
C69   H13   1.078380 S    
C80   H8    1.081090 S    
C121  O66   1.398474 S    
N16   O39   1.300704 A    
C28   N15   1.433501 S    
C96   C104  1.442323 A    
C48   C64   1.428482 A    
N8    O23   1.301963 A    
O72   H44   1.013841 S    
C82   C98   1.411007 A    
N14   O36   1.301008 A    
C19   C119  1.488575 S    
C73   H1    1.080409 S    
O50   H33   1.013167 S    
C124  O72   1.397675 S    
N20   O47   1.301220 A    
C110  C122  1.488268 S    
C105  H29   1.075677 S    
C36   N7    1.441626 S    
C18   C118  1.486158 S    
Cu1   Cu2   2.679360 S    
N9    O25   1.300882 A    
C51   C79   1.402158 A    
O7    Cu4   1.946386 S    
C27   N16   1.432188 S    
C69   C77   1.391920 A    
C119  O62   1.398577 S    
O4    C4    1.300197 A    
C82   C86   1.389003 A    
C107  C111  1.400599 A    
C24   C116  1.488082 S    
N19   O45   1.300257 A    
C81   C85   1.389522 A    
C116  O55   1.222803 D    
N2    C90   1.362937 A    
C94   C102  1.440337 A    
C83   H27   1.080404 S    
O15   Cu3   1.936571 S    
N7    O21   1.300705 A    
C29   N18   1.432890 S    
C92   C96   1.427115 A    
C7    C14   1.486283 S    
C81   H25   1.079898 S    
O12   C4    1.301465 A    
C115  O53   1.222760 D    
O13   C5    1.306709 A    
O2    Cu2   1.940479 S    
C85   H22   1.081526 S    
C117  O58   1.398090 S    
C40   C48   1.423726 A    
C22   C54   1.412120 A    
C107  H31   1.075324 S    
C101  C106  1.410716 A    
C22   C30   1.409466 A    
C89   C93   1.427648 A    
C61   C70   1.405463 A    
C58   C65   1.405654 A    
O9    C1    1.301750 A    
N19   O46   1.300756 A    
C49   C77   1.408280 A    
C43   C51   1.421727 A    
C57   C66   1.403675 A    
C40   N11   1.429594 S    
C118  O60   1.397921 S    
C15   C31   1.420945 A    
C108  H32   1.071833 S    
C35   N8    1.448457 S    
C47   C55   1.414845 A    
C17   C25   1.412657 A    
O70   H43   1.013771 S    
C83   C87   1.392537 A    
O56   H36   1.013001 S    
C79   H7    1.079208 S    
N6    O19   1.300627 A    
C72   C80   1.386890 A    
C23   C55   1.415612 A    
C122  O68   1.398631 S    
C52   C80   1.404335 A    
C86   H21   1.080212 S    
C41   C49   1.415277 A    
C20   C28   1.408986 A    
N17   O41   1.301082 A    
C67   C75   1.391020 A    
N12   O32   1.298510 A    
C20   C52   1.411829 A    
N4    C92   1.364215 A    
O1    C1    1.297361 A    
C42   C58   1.418386 A    
C84   C100  1.411378 A    
O3    Cu2   1.946386 S    
C108  C112  1.398307 A    
C37   C45   1.406259 A    
N14   O35   1.301237 A    
C16   C40   1.414283 A    
Cu4   N3    2.013831 S    
C82   H26   1.079730 S    
C94   C98   1.422630 A    
C14   C30   1.422035 A    
N8    O24   1.300703 A    
O64   H40   1.013520 S    
N4    C88   1.352546 A    
C17   C117  1.485218 S    
C2    C11   1.472280 S    
C13   C37   1.404754 A    
C122  O67   1.223251 D    
C48   C56   1.419912 A    
C34   C42   1.410075 A    
C65   H9    1.079381 S    
C8    C13   1.485464 S    
C72   H16   1.078324 S    
C10   C26   1.421885 A    
C114  O52   1.398547 S    
C71   C79   1.384895 A    
O14   C6    1.301153 A    
C76   H4    1.080626 S    
C113  O49   1.222851 D    
N11   O29   1.301630 A    
C116  O56   1.399073 S    
N18   O44   1.300604 A    
C101  C102  1.430339 A    
C56   C76   1.408372 A    
C46   C62   1.417663 A    
O10   Cu1   1.927550 S    
C3    C10   1.492496 S    
C58   C61   1.404859 A    
C23   C31   1.414242 A    
C59   C64   1.414553 A    
C9    C33   1.413536 A    
C57   C62   1.404720 A    
O10   C2    1.297906 A    
O7    C7    1.297966 A    
C99   C111  1.413522 A    
C95   C103  1.441644 A    
C115  O54   1.398375 S    
C71   H15   1.077784 S    
C90   H17   1.073260 S    
C70   H14   1.078160 S    
C111  C123  1.487146 S    
C12   C36   1.409102 A    
C113  O50   1.398409 S    
N15   O38   1.301060 A    
C18   C26   1.410510 A    
C21   C53   1.417727 A    
C68   H12   1.081415 S    
C30   N17   1.433871 S    
C50   C78   1.406447 A    
O5    C5    1.298233 A    
C74   H2    1.080605 S    
C63   C72   1.405941 A    
N13   O33   1.301217 A    
C9    C25   1.422704 A    
Cu3   Cu4   2.679360 S    
C14   C38   1.410429 A    
O8    Cu3   1.946384 S    
C124  O71   1.223331 D    
C45   C61   1.416984 A    
C39   N12   1.438472 S    
C31   N20   1.435042 S    
C93   C101  1.440481 A    
N2    C86   1.352011 A    
C123  O70   1.398706 S    
C118  O59   1.222427 D    
N17   O42   1.301060 A    
N1    C85   1.352855 A    
C87   H24   1.080068 S    
C70   C78   1.388595 A    
C37   N10   1.434555 S    
C105  C109  1.398141 A    
O62   H39   1.013577 S    
C88   H23   1.081463 S    
N3    C87   1.353638 A    
C21   C113  1.486817 S    
C84   H28   1.078625 S    
C19   C51   1.414910 A    
O6    C6    1.295697 A    
