data_mof_unit_12151.cif
_audit_creation_date              2012-12-11T14:52:33-0500
_audit_creation_method            fapswitch 2.2
_symmetry_space_group_name_H-M    P1
_symmetry_Int_Tables_number       1
_space_group_crystal_system       triclinic
_cell_length_a                    18.997182
_cell_length_b                    10.987104
_cell_length_c                    18.744553
_cell_angle_alpha                 90.05056
_cell_angle_beta                  90.702709
_cell_angle_gamma                 90.137142
_cell_volume                      3912.13126503

loop_
_atom_site_label
_atom_site_type_symbol
_atom_type_description
_atom_site_fract_x
_atom_site_fract_y
_atom_site_fract_z
_atom_type_partial_charge
C1    C     C_R   0.273324 0.038829 0.854831 0.555948
C2    C     C_R   0.728503 0.042851 0.147082 0.532158
C3    C     C_R   0.774220 0.536174 0.855705 0.564048
C4    C     C_R   0.228636 0.543990 0.147518 0.528484
C5    C     C_3   0.546041 0.723722 0.960808 -0.135650
C6    C     C_3   0.495922 0.726620 0.025680 -0.127329
C7    C     C_3   0.049014 0.226833 0.959628 -0.137077
C8    C     C_3   0.998379 0.223084 0.024079 -0.128749
C9    C     C_R   0.310488 0.549842 0.966900 0.021176
C10   C     C_R   0.693971 0.522483 0.038780 -0.011751
C11   C     C_R   0.805738 0.031357 0.964099 0.017499
C12   C     C_R   0.192786 0.027884 0.037455 -0.013917
C13   C     C_R   0.302253 0.527199 0.040080 -0.086153
C14   C     C_R   0.700101 0.512696 0.964372 -0.096627
C15   C     C_R   0.800281 0.016491 0.038415 -0.089954
C16   C     C_R   0.198238 0.020441 0.962939 -0.106648
C17   C     C_R   0.251698 0.590218 0.079040 0.037860
C18   C     C_R   0.761130 0.555912 0.930852 0.058036
C19   C     C_R   0.750382 0.082832 0.076925 0.040074
C20   C     C_R   0.259232 0.063223 0.929353 0.053890
C21   C     C_R   0.213747 0.683703 0.047286 -0.097300
C22   C     C_R   0.817099 0.599898 0.971773 -0.115791
C23   C     C_R   0.711123 0.172291 0.043404 -0.101561
C24   C     C_R   0.315046 0.108627 0.970165 -0.116747
C25   C     C_R   0.220884 0.707226 0.975532 -0.126341
C26   C     C_R   0.810108 0.616936 0.043375 -0.082046
C27   C     C_R   0.714923 0.186910 0.970771 -0.126734
C28   C     C_R   0.309030 0.122372 0.042091 -0.085664
C29   C     C_R   0.266725 0.639241 0.934182 0.047381
C30   C     C_R   0.748828 0.582778 0.077633 0.062549
C31   C     C_R   0.758795 0.113215 0.929862 0.064154
C32   C     C_R   0.248105 0.086452 0.076556 0.063425
C33   C     C_R   0.446449 0.723363 0.521356 -0.131308
C34   C     C_R   0.463744 0.725575 0.449825 -0.119254
C35   C     C_R   0.946445 0.223364 0.521355 -0.131099
C36   C     C_R   0.963741 0.225576 0.449823 -0.119250
C37   C     C_R   0.490415 0.832198 0.419218 0.031907
C38   C     C_R   0.456181 0.827029 0.563614 0.027578
C39   C     C_R   0.990413 0.332198 0.419217 0.031989
C40   C     C_R   0.956179 0.327030 0.563613 0.027697
C41   C     C_R   0.493098 0.939451 0.459516 -0.147365
C42   C     C_R   0.478967 0.935836 0.532177 -0.141955
C43   C     C_R   0.993097 0.439451 0.459516 -0.147448
C44   C     C_R   0.978965 0.435836 0.532177 -0.142004
C45   C     C_R   0.472363 0.821541 0.853924 0.581660
C46   C     C_R   0.562654 0.816979 0.137932 0.557133
C47   C     C_R   0.972864 0.321717 0.853561 0.585350
C48   C     C_R   0.062394 0.316826 0.137867 0.558296
C49   C     C_R   0.175906 0.579838 0.549607 -0.098100
C50   C     C_R   0.822682 0.589097 0.451743 -0.113314
C51   C     C_R   0.675904 0.079826 0.549611 -0.097765
C52   C     C_R   0.322682 0.089095 0.451744 -0.113410
C53   C     C_R   0.168315 0.555922 0.477975 -0.136725
C54   C     C_R   0.829382 0.571195 0.523715 -0.148740
C55   C     C_R   0.668314 0.055915 0.477978 -0.136649
C56   C     C_R   0.329382 0.071192 0.523715 -0.148619
C57   C     C_R   0.224978 0.512744 0.438421 0.023425
C58   C     C_R   0.774088 0.521147 0.562362 -0.007426
C59   C     C_R   0.724977 0.012740 0.438424 0.023375
C60   C     C_R   0.274088 0.021146 0.562363 -0.007566
C61   C     C_R   0.290118 0.482544 0.474498 0.005223
C62   C     C_R   0.710895 0.483266 0.526285 0.007900
C63   C     C_R   0.790116 0.982538 0.474501 0.005217
C64   C     C_R   0.210894 0.983267 0.526285 0.007513
C65   C     C_R   0.295348 0.505412 0.547179 -0.164699
C66   C     C_R   0.704711 0.505127 0.453496 -0.099887
C67   C     C_R   0.795345 0.005402 0.547183 -0.164393
C68   C     C_R   0.204710 0.005129 0.453496 -0.099950
C69   C     C_R   0.241357 0.563679 0.582639 0.019321
C70   C     C_R   0.758180 0.565963 0.417944 0.001657
C71   C     C_R   0.741355 0.063669 0.582643 0.020250
C72   C     C_R   0.258179 0.065964 0.417945 0.001502
C73   C     C_R   0.272146 0.676069 0.859394 0.544326
C74   C     C_R   0.739174 0.634657 0.148769 0.529679
C75   C     C_R   0.762732 0.142771 0.854046 0.575703
C76   C     C_R   0.239049 0.135330 0.148483 0.530552
C77   C     C_R   0.288311 0.001255 0.637774 0.539226
C78   C     C_R   0.711188 0.998942 0.362014 0.564339
C79   C     C_R   0.788311 0.501257 0.637774 0.538231
C80   C     C_R   0.211188 0.498942 0.362013 0.564486
C81   C     C_R   0.439689 0.819553 0.639376 0.548859
C82   C     C_R   0.527882 0.823644 0.351733 0.559610
C83   C     C_R   0.939688 0.319553 0.639376 0.547166
C84   C     C_R   0.027881 0.323644 0.351732 0.560757
C85   C     C_R   0.258103 0.631209 0.646703 0.562887
C86   C     C_R   0.741734 0.631385 0.353362 0.552562
C87   C     C_R   0.758103 0.131207 0.646703 0.558188
C88   C     C_R   0.241734 0.131385 0.353363 0.552244
C89   C     C_3   0.500889 0.926256 0.025809 0.002435
C90   C     C_3   0.549953 0.923377 0.961048 -0.022229
C91   C     C_3   0.997807 0.422561 0.026734 0.002410
C92   C     C_3   0.047504 0.426702 0.962490 -0.021776
C93   C     C_3   0.453821 0.830059 0.990402 -0.001262
C94   C     C_3   0.593150 0.821405 0.997113 -0.014849
C95   C     C_3   0.953626 0.324009 0.989641 0.004014
C96   C     C_3   0.093145 0.326982 0.997611 -0.024356
C97   C     C_3   0.502800 0.827222 0.925951 0.010737
C98   C     C_3   0.543453 0.824078 0.061540 -0.007030
C99   C     C_3   0.003330 0.327878 0.925564 0.016137
C100  C     C_3   0.042977 0.323055 0.061461 -0.007976
Cr1   Cr    Cr6+3 0.229630 0.835900 0.747350 1.031129
Cr2   Cr    Cr6+3 0.770370 0.835900 0.252650 1.078104
Cr3   Cr    Cr6+3 0.729630 0.335900 0.747350 1.027861
Cr4   Cr    Cr6+3 0.270370 0.335900 0.252650 1.078893
Cr5   Cr    Cr6+3 0.387410 0.989850 0.750850 1.027314
Cr6   Cr    Cr6+3 0.612590 0.989850 0.249150 1.051113
Cr7   Cr    Cr6+3 0.887410 0.489850 0.750850 1.041237
Cr8   Cr    Cr6+3 0.112590 0.489850 0.249150 1.046219
Cr9   Cr    Cr6+3 0.385800 0.677120 0.749340 0.997165
Cr10  Cr    Cr6+3 0.614200 0.677120 0.250660 1.005245
Cr11  Cr    Cr6+3 0.885800 0.177120 0.749340 0.996501
Cr12  Cr    Cr6+3 0.114200 0.177120 0.250660 1.006063
H1    H     H_    0.132332 0.621017 0.577421 0.178742
H2    H     H_    0.865893 0.632238 0.424245 0.180909
H3    H     H_    0.632330 0.121004 0.577426 0.178123
H4    H     H_    0.365893 0.132236 0.424245 0.180934
H5    H     H_    0.119053 0.579108 0.452455 0.146284
H6    H     H_    0.877441 0.601248 0.549643 0.140300
H7    H     H_    0.619052 0.079103 0.452457 0.146214
H8    H     H_    0.377441 0.101243 0.549643 0.140310
H9    H     H_    0.344559 0.487529 0.575182 0.118914
H10   H     H_    0.655203 0.486017 0.426227 0.174047
H11   H     H_    0.844557 0.987518 0.575186 0.118999
H12   H     H_    0.155202 0.986021 0.426228 0.173993
H13   H     H_    0.564995 0.641707 0.932447 0.133100
H14   H     H_    0.472209 0.645890 0.051734 0.143399
H15   H     H_    0.070013 0.147497 0.930276 0.134017
H16   H     H_    0.976581 0.139894 0.049163 0.140360
H17   H     H_    0.331612 0.455878 0.066456 0.120870
H18   H     H_    0.658145 0.472449 0.932681 0.110700
H19   H     H_    0.831570 0.949296 0.066269 0.121993
H20   H     H_    0.156161 0.980534 0.931262 0.110481
H21   H     H_    0.176570 0.734750 0.078069 0.137799
H22   H     H_    0.867276 0.621418 0.948428 0.123705
H23   H     H_    0.675507 0.227100 0.073871 0.140601
H24   H     H_    0.364991 0.131404 0.946725 0.124094
H25   H     H_    0.190230 0.778516 0.951248 0.118009
H26   H     H_    0.851845 0.664281 0.071403 0.153692
H27   H     H_    0.683564 0.257163 0.946083 0.122999
H28   H     H_    0.351472 0.167653 0.070294 0.158153
H29   H     H_    0.427986 0.639388 0.544535 0.116612
H30   H     H_    0.460016 0.642128 0.419342 0.143680
H31   H     H_    0.927982 0.139390 0.544533 0.116884
H32   H     H_    0.960012 0.142130 0.419341 0.143708
H33   H     H_    0.509504 0.024215 0.435771 0.128643
H34   H     H_    0.486954 0.017399 0.563696 0.133523
H35   H     H_    0.009505 0.524214 0.435771 0.128608
H36   H     H_    0.986954 0.517399 0.563695 0.133990
O1    O     O_R   0.214270 0.709000 0.827470 -0.471365
O2    O     O_R   0.785730 0.709000 0.172530 -0.511602
O3    O     O_R   0.714270 0.209000 0.827470 -0.491427
O4    O     O_R   0.285730 0.209000 0.172530 -0.510252
O5    O     O_R   0.445950 0.919440 0.676520 -0.503216
O6    O     O_R   0.554050 0.919440 0.323480 -0.511705
O7    O     O_R   0.945950 0.419440 0.676520 -0.502955
O8    O     O_R   0.054050 0.419440 0.323480 -0.511434
O9    O     O_R   0.456730 0.717630 0.669840 -0.502375
O10   O     O_R   0.543270 0.717630 0.330160 -0.509144
O11   O     O_R   0.956730 0.217630 0.669840 -0.503530
O12   O     O_R   0.043270 0.217630 0.330160 -0.508895
O13   O     O_R   0.320620 0.625640 0.672920 -0.523036
O14   O     O_R   0.679380 0.625640 0.327080 -0.513689
O15   O     O_R   0.820620 0.125640 0.672920 -0.525276
O16   O     O_R   0.179380 0.125640 0.327080 -0.513822
O17   O     O_3   0.334280 0.834290 0.749180 -0.313715
O18   O     O_3   0.665720 0.834290 0.250820 -0.313836
O19   O     O_3   0.834280 0.334290 0.749180 -0.305176
O20   O     O_3   0.165720 0.334290 0.250820 -0.312934
O21   O     O_R   0.236160 0.958490 0.823130 -0.522946
O22   O     O_R   0.763840 0.958490 0.176870 -0.512580
O23   O     O_R   0.736160 0.458490 0.823130 -0.514722
O24   O     O_R   0.263840 0.458490 0.176870 -0.512372
O25   O     O_R   0.332080 0.075470 0.831280 -0.525583
O26   O     O_R   0.667920 0.075470 0.168720 -0.534423
O27   O     O_R   0.832080 0.575470 0.831280 -0.524532
O28   O     O_R   0.167920 0.575470 0.168720 -0.537402
O29   O     O_R   0.446300 0.918110 0.826620 -0.490097
O30   O     O_R   0.553700 0.918110 0.173380 -0.430690
O31   O     O_R   0.946300 0.418110 0.826620 -0.474599
O32   O     O_R   0.053700 0.418110 0.173380 -0.437149
O33   O     O_R   0.457110 0.716200 0.831760 -0.544944
O34   O     O_R   0.542890 0.716200 0.168240 -0.522529
O35   O     O_R   0.957110 0.216200 0.831760 -0.543166
O36   O     O_R   0.042890 0.216200 0.168240 -0.520061
O37   O     O_R   0.320980 0.624310 0.823030 -0.528453
O38   O     O_R   0.679020 0.624310 0.176970 -0.554015
O39   O     O_R   0.820980 0.124310 0.823030 -0.539784
O40   O     O_R   0.179020 0.124310 0.176970 -0.553955
O41   O     O_R   0.213890 0.710430 0.665540 -0.507374
O42   O     O_R   0.786110 0.710430 0.334460 -0.458986
O43   O     O_R   0.713890 0.210430 0.665540 -0.509894
O44   O     O_R   0.286110 0.210430 0.334460 -0.458865
O45   O     O_R   0.235810 0.959820 0.673020 -0.519014
O46   O     O_R   0.764190 0.959820 0.326980 -0.435621
O47   O     O_R   0.735810 0.459820 0.673020 -0.518796
O48   O     O_R   0.264190 0.459820 0.326980 -0.435776
O49   O     O_R   0.331700 0.076900 0.669350 -0.510192
O50   O     O_R   0.668300 0.076900 0.330650 -0.515288
O51   O     O_R   0.831700 0.576900 0.669350 -0.510590
O52   O     O_R   0.168300 0.576900 0.330650 -0.515600
C101  C     C_2   0.375843 0.838898 0.990446 0.230899
H37   H     H_    0.347129 0.849835 0.940713 0.073003
O53   O     O_2   0.344691 0.838269 0.046939 -0.477170
C102  C     C_2   0.671425 0.819818 0.999678 0.222576
H38   H     H_    0.698980 0.824182 0.050483 0.078302
O54   O     O_2   0.704443 0.815539 0.944371 -0.493198
C103  C     C_2   0.875178 0.323993 0.987958 0.232550
H39   H     H_    0.846882 0.324890 0.937457 0.087697
O55   O     O_2   0.842881 0.324728 0.043765 -0.476841
C104  C     C_2   0.171494 0.330471 0.001009 0.215608
H40   H     H_    0.198500 0.331959 0.052175 0.081973
O56   O     O_2   0.205174 0.332568 0.946059 -0.496484
C105  C     C_2   0.358242 0.442411 0.443168 0.229808
H41   H     H_    0.407097 0.469158 0.469273 0.087782
O57   O     O_2   0.362679 0.372085 0.393493 -0.467149
C106  C     C_2   0.647288 0.433374 0.561415 0.249589
H42   H     H_    0.629798 0.467793 0.612326 0.148178
O58   O     O_2   0.611069 0.356396 0.531426 -0.541621
C107  C     C_2   0.858241 0.942408 0.443171 0.229913
H43   H     H_    0.907095 0.969156 0.469276 0.087791
O59   O     O_2   0.862678 0.872085 0.393494 -0.467313
C108  C     C_2   0.147286 0.933379 0.561416 0.249544
H44   H     H_    0.129798 0.967798 0.612328 0.148282
O60   O     O_2   0.111064 0.856407 0.531427 -0.541365
C109  C     C_2   0.473227 0.040032 0.057973 0.244370
H45   H     H_    0.469857 0.119873 0.025066 0.032896
O61   O     O_2   0.449523 0.040934 0.118147 -0.452532
C110  C     C_2   0.578800 0.030768 0.922400 0.247614
H46   H     H_    0.579450 0.118899 0.947933 0.057243
O62   O     O_2   0.603191 0.018750 0.862920 -0.452173
C111  C     C_2   0.968646 0.531642 0.062476 0.249899
H47   H     H_    0.969265 0.616829 0.034399 0.032395
O63   O     O_2   0.940598 0.523489 0.120498 -0.446903
C112  C     C_2   0.074974 0.540207 0.928848 0.246985
H48   H     H_    0.091977 0.614622 0.962568 0.070683
O64   O     O_2   0.077811 0.549797 0.864126 -0.456742
C113  C     C_3   0.362793 0.478397 0.922859 -0.224893
C114  C     C_3   0.407913 0.387746 0.961915 -0.348902
C115  C     C_3   0.458330 0.325864 0.910242 -0.447700
H49   H     H_    0.428489 0.276561 0.867837 0.181664
H50   H     H_    0.493383 0.394063 0.885013 0.151646
H51   H     H_    0.491435 0.259715 0.939234 0.129372
H52   H     H_    0.436482 0.439412 0.003268 0.156132
H53   H     H_    0.374644 0.319979 0.988078 0.168641
H54   H     H_    0.333645 0.428974 0.879833 0.214500
H55   H     H_    0.401043 0.544112 0.900588 0.187755
C116  C     C_3   0.629746 0.477632 0.078147 -0.250138
C117  C     C_3   0.574921 0.399704 0.040485 -0.352318
C118  C     C_3   0.524774 0.349984 0.097275 -0.436732
H56   H     H_    0.553496 0.289078 0.134850 0.178471
H57   H     H_    0.500849 0.425843 0.127772 0.161141
H58   H     H_    0.481701 0.296702 0.073177 0.149447
H59   H     H_    0.547386 0.458112 0.001356 0.154820
H60   H     H_    0.597428 0.323424 0.010818 0.148511
H61   H     H_    0.649126 0.426523 0.125720 0.177822
H62   H     H_    0.599802 0.558737 0.094652 0.193336
C119  C     C_3   0.859565 0.962379 0.920362 -0.229242
C120  C     C_3   0.907426 0.877968 0.960994 -0.349859
C121  C     C_3   0.958865 0.815291 0.910731 -0.437057
H63   H     H_    0.929931 0.762890 0.868999 0.188789
H64   H     H_    0.993186 0.883536 0.884555 0.152665
H65   H     H_    0.992566 0.751638 0.941209 0.139660
H66   H     H_    0.935470 0.934923 0.000325 0.157104
H67   H     H_    0.876271 0.810548 0.989738 0.165887
H68   H     H_    0.831724 0.910217 0.877588 0.202460
H69   H     H_    0.896406 0.029476 0.897122 0.188130
C122  C     C_3   0.128934 0.981679 0.076901 -0.249933
C123  C     C_3   0.074253 0.902751 0.039670 -0.351364
C124  C     C_3   0.024113 0.854413 0.096900 -0.442052
H70   H     H_    0.053052 0.796271 0.135804 0.172458
H71   H     H_    0.999128 0.931033 0.125819 0.163187
H72   H     H_    0.981916 0.798428 0.073453 0.142795
H73   H     H_    0.046587 0.959796 0.999861 0.154818
H74   H     H_    0.097002 0.825398 0.011088 0.150886
H75   H     H_    0.148768 0.930527 0.124247 0.177037
H76   H     H_    0.098921 0.062284 0.093838 0.194331

loop_
_geom_bond_atom_site_label_1
_geom_bond_atom_site_label_2
_ccdc_geom_bond_type
Cr2   O22   S    
C87   O15   A    
C49   C53   A    
C58   C62   A    
Cr10  O18   S    
C55   C59   A    
Cr6   O26   S    
C34   C37   A    
C85   O13   A    
C41   C42   A    
C14   C18   A    
Cr5   O5    S    
C120  H66   S    
C28   H28   S    
C48   O32   A    
C121  H65   S    
Cr9   O9    S    
C68   H12   S    
C110  O62   D    
C5    C94   S    
C84   O12   A    
Cr3   O43   S    
C81   O5    A    
C7    C8    S    
Cr12  O36   S    
C55   H7    S    
C105  H41   S    
C46   C98   S    
Cr3   O19   S    
C7    C96   S    
C122  H75   S    
C118  H56   S    
C50   C54   A    
C7    C99   S    
C46   O30   A    
C22   H22   S    
C73   O37   A    
C64   C68   A    
C29   C73   S    
C90   C110  S    
C115  H49   S    
C106  O58   D    
C39   C84   S    
C38   C42   A    
C109  O61   D    
Cr1   O41   S    
C78   O46   A    
C5    C6    S    
C30   C74   S    
C53   H5    S    
C83   O7    A    
C76   O4    A    
C95   C99   S    
C85   O41   A    
Cr12  O20   S    
C114  H53   S    
C92   C96   S    
C47   C99   S    
Cr8   O32   S    
C3    C18   S    
C119  C120  S    
C101  H37   S    
C49   H1    S    
C63   C107  S    
C9    C13   A    
C77   O45   A    
C118  H57   S    
Cr1   O1    S    
C83   O11   A    
Cr2   O42   S    
C15   C19   A    
C9    C113  S    
C11   C15   A    
C8    H16   S    
Cr10  O38   S    
C20   C24   A    
C75   O3    A    
Cr6   O6    S    
C123  H73   S    
C47   O31   A    
C66   H10   S    
Cr1   O21   S    
C86   O14   A    
C23   C27   A    
C91   C100  S    
Cr12  O12   S    
C90   C97   S    
C67   C71   A    
C122  H76   S    
C76   O40   A    
C9    C29   A    
Cr6   O50   S    
Cr7   O31   S    
C116  H62   S    
C24   H24   S    
C52   H4    S    
Cr8   O20   S    
C11   C31   A    
Cr2   O18   S    
C49   C69   A    
C124  H70   S    
C12   C32   A    
C95   C103  S    
Cr11  O39   S    
C56   H8    S    
C57   C80   S    
C40   C83   S    
C102  O54   D    
C8    C95   S    
C112  O64   D    
C101  O53   D    
C80   O48   A    
C45   O33   A    
Cr2   O46   S    
C59   C78   S    
C21   H21   S    
C110  H46   S    
C72   C88   S    
Cr1   O45   S    
C90   C94   S    
C63   C67   A    
C105  O57   D    
C25   C29   A    
Cr12  O16   S    
Cr7   O19   S    
C60   C77   S    
C86   O42   A    
C81   O9    A    
C62   C66   A    
C27   C31   A    
C103  H39   S    
C61   C105  S    
C12   C16   A    
C28   C32   A    
C48   C100  S    
C96   C104  S    
C106  H42   S    
C6    H14   S    
C115  H50   S    
C10   C14   A    
C89   C109  S    
C107  H43   S    
C48   O36   A    
C42   H34   S    
C53   C57   A    
C117  H59   S    
C113  H54   S    
C39   C43   A    
C1    O21   A    
C51   C55   A    
Cr9   O37   S    
C108  O60   D    
C88   O16   A    
C114  H52   S    
C89   C93   S    
C17   C21   A    
C25   H25   S    
C56   C60   A    
C91   C111  S    
C68   C72   A    
Cr5   O49   S    
C35   C36   A    
Cr8   O52   S    
C19   C23   A    
C43   C44   A    
Cr12  O40   S    
C52   C72   A    
C107  O59   D    
C10   C30   A    
C93   C97   S    
C31   C75   S    
Cr8   O8    S    
C116  H61   S    
C16   C20   A    
C6    C93   S    
C1    O25   A    
Cr11  O35   S    
C33   C34   A    
Cr4   O48   S    
C119  H68   S    
C23   H23   S    
C111  O63   D    
C82   O10   A    
C102  H38   S    
Cr1   O17   S    
C74   O38   A    
Cr9   O17   S    
Cr11  O11   S    
Cr2   O2    S    
C71   C87   S    
C4    C17   S    
C58   C79   S    
C47   O35   A    
C5    C97   S    
C26   C30   A    
C79   O47   A    
C65   H9    S    
C11   C119  S    
C38   C81   S    
C22   C26   A    
C54   C58   A    
C37   C82   S    
C124  H72   S    
C36   H32   S    
C94   C102  S    
C112  H48   S    
C123  H74   S    
C121  H63   S    
C70   C86   S    
C54   H6    S    
C6    C98   S    
Cr4   O24   S    
C91   C92   S    
C69   C85   S    
C117  C118  S    
Cr9   O33   S    
C87   O43   A    
C14   H18   S    
C3    O27   A    
C59   C63   A    
C88   O44   A    
C21   C25   A    
C114  C115  S    
C34   H30   S    
C1    C20   S    
C13   H17   S    
C4    O24   A    
C79   O51   A    
C73   O1    A    
C2    C19   S    
C18   C22   A    
C62   C106  S    
C36   C39   A    
C75   O39   A    
C119  H69   S    
C24   C28   A    
Cr5   O29   S    
C26   H26   S    
Cr10  O10   S    
C32   C76   S    
C120  H67   S    
C116  C117  S    
C51   C71   A    
C27   H27   S    
C57   C61   A    
Cr3   O47   S    
Cr3   O3    S    
C93   C101  S    
C96   C100  S    
C104  O56   D    
C33   C38   A    
Cr4   O20   S    
C13   C17   A    
C89   C98   S    
C60   C64   A    
C122  C123  S    
C33   H29   S    
Cr10  O14   S    
Cr4   O4    S    
C124  H71   S    
C120  C121  S    
C50   C70   A    
C12   C122  S    
C41   H33   S    
C67   H11   S    
C2    O22   A    
Cr11  O15   S    
Cr9   O13   S    
C2    O26   A    
Cr7   O51   S    
C45   O29   A    
C84   O8    A    
Cr3   O23   S    
C46   O34   A    
C8    C100  S    
C66   C70   A    
Cr7   O27   S    
Cr6   O18   S    
C64   C108  S    
C65   C69   A    
C52   C56   A    
Cr8   O28   S    
C92   C112  S    
C44   H36   S    
Cr5   O17   S    
C113  H55   S    
C35   C40   A    
C115  H51   S    
C117  H60   S    
C121  H64   S    
C37   C41   A    
C108  H44   S    
C16   H20   S    
C51   H3    S    
C118  H58   S    
C43   H35   S    
Cr11  O19   S    
C91   C95   S    
C82   O6    A    
C61   C65   A    
C40   C44   A    
C15   H19   S    
C123  C124  S    
Cr10  O34   S    
C104  H40   S    
C4    O28   A    
C80   O52   A    
C5    H13   S    
C111  H47   S    
C103  O55   D    
C94   C98   S    
C74   O2    A    
C50   H2    S    
Cr5   O25   S    
C10   C116  S    
C78   O50   A    
C7    H15   S    
C89   C90   S    
C113  C114  S    
C77   O49   A    
Cr6   O30   S    
Cr7   O7    S    
C45   C97   S    
C3    O23   A    
C92   C99   S    
C35   H31   S    
C109  H45   S    
Cr4   O44   S    
