data_mof_unit_21438.cif
_audit_creation_date              2012-10-26T19:46:28-0400
_audit_creation_method            fapswitch 2.2
_symmetry_space_group_name_H-M    P1
_symmetry_Int_Tables_number       1
_space_group_crystal_system       triclinic
_cell_length_a                    10.9171
_cell_length_b                    9.484955
_cell_length_c                    15.10795
_cell_angle_alpha                 89.914263
_cell_angle_beta                  90.29481
_cell_angle_gamma                 89.980654
_cell_volume                      1564.37850826

loop_
_atom_site_label
_atom_site_type_symbol
_atom_type_description
_atom_site_fract_x
_atom_site_fract_y
_atom_site_fract_z
_atom_type_partial_charge
C1    C     C_R   0.262432 0.500081 0.499716 0.555403
C2    C     C_R   0.940362 0.628119 0.513767 0.015662
C3    C     C_R   0.940311 0.373229 0.485448 0.018120
C4    C     C_R   0.064323 0.615113 0.536600 -0.001487
C5    C     C_R   0.422907 0.585724 0.092840 0.282246
C6    C     C_R   0.423951 0.410410 0.906138 0.278347
C7    C     C_R   0.589966 0.582943 0.905230 0.281979
C8    C     C_R   0.589414 0.413706 0.095868 0.278474
C9    C     C_R   0.420132 0.585741 0.185321 0.201796
C10   C     C_R   0.421480 0.411180 0.813619 0.200055
C11   C     C_R   0.589236 0.582395 0.812682 0.214222
C12   C     C_R   0.738560 0.500067 0.500095 0.573122
C13   C     C_R   0.588383 0.415055 0.188421 0.214217
C14   C     C_R   0.502987 0.500316 0.233275 -0.060657
C15   C     C_R   0.503510 0.498348 0.766744 -0.061844
C16   C     C_R   0.506901 0.499172 0.048473 0.005751
C17   C     C_R   0.507298 0.497162 0.951573 0.005893
C18   C     C_R   0.873494 0.500501 0.499754 0.031750
C19   C     C_R   0.129237 0.500510 0.499351 0.039786
C20   C     C_3   0.118993 0.282369 0.396147 -0.281336
C21   C     C_3   0.170211 0.356567 0.314456 -0.361840
C22   C     C_3   0.888297 0.776217 0.499001 -0.262929
C23   C     C_R   0.500813 0.500143 0.329918 0.601772
C24   C     C_3   0.854425 0.801360 0.401740 -0.377470
C25   C     C_3   0.890949 0.225461 0.504745 -0.263279
C26   C     C_3   0.865543 0.206443 0.603540 -0.396670
C27   C     C_3   0.120780 0.716723 0.604041 -0.275882
C28   C     C_3   0.170438 0.639455 0.685528 -0.351248
C29   C     C_R   0.501237 0.499670 0.670085 0.601012
C30   C     C_R   0.439927 0.074677 0.435258 0.034785
C31   C     C_R   0.560164 0.925421 0.564644 0.015747
C32   C     C_R   0.559476 0.074325 0.564964 0.032810
C33   C     C_R   0.439292 0.925722 0.435597 0.027196
C34   C     C_R   0.063584 0.386242 0.462090 0.006731
Cl1   Cl    Cl    0.320374 0.693850 0.032092 -0.375620
Cl2   Cl    Cl    0.321957 0.300964 0.965585 -0.376657
Cl3   Cl    Cl    0.694699 0.691266 0.963472 -0.363608
Cl4   Cl    Cl    0.694221 0.304690 0.038942 -0.365074
Cl5   Cl    Cl    0.308578 0.688869 0.239917 -0.538375
Cl6   Cl    Cl    0.312469 0.305205 0.757523 -0.498861
Cl7   Cl    Cl    0.701201 0.680972 0.755116 -0.529328
Cl8   Cl    Cl    0.698429 0.314248 0.247455 -0.493518
Cu1   Cu    Cu3+1 0.500000 0.640660 0.500000 0.991345
Cu2   Cu    Cu3+1 0.500000 0.359340 0.500000 1.008258
H1    H     H_    0.392132 0.130941 0.383261 0.127966
H2    H     H_    0.790863 0.720368 0.375519 0.198430
H3    H     H_    0.810296 0.906330 0.394663 0.153874
H4    H     H_    0.938589 0.799902 0.360723 0.183085
H5    H     H_    0.811076 0.798638 0.544087 0.185902
H6    H     H_    0.956806 0.859216 0.513804 0.122191
H7    H     H_    0.951416 0.222101 0.642073 0.195881
H8    H     H_    0.796221 0.282266 0.627842 0.185016
H9    H     H_    0.832217 0.097641 0.615955 0.132747
H10   H     H_    0.810492 0.198793 0.463044 0.200354
H11   H     H_    0.959268 0.142628 0.489483 0.125030
H12   H     H_    0.608549 0.869328 0.616294 0.171587
H13   H     H_    0.248949 0.571374 0.668494 0.182218
H14   H     H_    0.202338 0.717348 0.735371 0.188440
H15   H     H_    0.097408 0.573637 0.715585 0.209586
H16   H     H_    0.192469 0.783630 0.573693 0.180047
H17   H     H_    0.050946 0.790110 0.630607 0.164203
H18   H     H_    0.606157 0.130338 0.617371 0.135297
H19   H     H_    0.390140 0.869802 0.384371 0.180652
H20   H     H_    0.098264 0.422805 0.282866 0.216311
H21   H     H_    0.249476 0.423661 0.331633 0.180332
H22   H     H_    0.201429 0.276733 0.265832 0.179380
H23   H     H_    0.189313 0.215057 0.428153 0.162587
H24   H     H_    0.048122 0.209623 0.369747 0.166119
N1    N     N_R   0.500000 0.852070 0.500000 -0.247760
N2    N     N_R   0.500000 0.147930 0.500000 -0.229419
O1    O     O_R   0.319640 0.618740 0.499990 -0.510297
O2    O     O_R   0.680360 0.381260 0.500010 -0.508256
O3    O     O_R   0.680360 0.618740 0.500010 -0.510475
O4    O     O_R   0.319640 0.381260 0.499990 -0.502812
O5    O     O_R   0.499990 0.618780 0.371460 -0.471785
O6    O     O_R   0.500010 0.381220 0.628540 -0.467422
O7    O     O_R   0.500010 0.618780 0.628540 -0.480540
O8    O     O_R   0.499990 0.381220 0.371460 -0.479264

loop_
_geom_bond_atom_site_label_1
_geom_bond_atom_site_label_2
_ccdc_geom_bond_type
Cu1   O3    S    
C8    C13   A    
C21   H22   S    
C2    C18   A    
C30   H1    S    
Cu1   Cu2   S    
C29   O6    A    
C28   H13   S    
C7    C11   A    
C1    O1    A    
C1    O4    A    
C27   H16   S    
C9    Cl5   S    
C3    C18   A    
C10   Cl6   S    
Cu2   O6    S    
C21   H20   S    
C27   H17   S    
C4    C19   A    
C11   C15   A    
C16   C17   S    
C7    C17   A    
C2    C22   S    
Cu2   O2    S    
C31   H12   S    
C33   N1    A    
C22   H6    S    
C20   C34   S    
C12   O2    A    
C8    C16   A    
C13   C14   A    
C8    Cl4   S    
C13   Cl8   S    
C30   N2    A    
C15   C29   S    
Cu1   O5    S    
C1    C19   S    
C20   H23   S    
C24   H4    S    
C3    C25   S    
C25   H10   S    
C32   N2    A    
C3    C34   A    
C25   C26   S    
C14   C23   S    
C2    C4    A    
C9    C14   A    
C5    C9    A    
C26   H8    S    
C31   C32   A    
C33   H19   S    
C7    Cl3   S    
Cu2   O4    S    
C22   H5    S    
C22   C24   S    
C26   H9    S    
C4    C27   S    
Cu2   N2    S    
C28   H15   S    
C6    C17   A    
Cu1   O1    S    
C30   C33   A    
C21   H21   S    
C24   H3    S    
C20   H24   S    
C25   H11   S    
C23   O5    A    
C19   C34   A    
C6    C10   A    
C28   H14   S    
Cu1   O7    S    
C10   C15   A    
C24   H2    S    
Cu2   O8    S    
C32   H18   S    
C5    C16   A    
C26   H7    S    
C5    Cl1   S    
C6    Cl2   S    
C11   Cl7   S    
C23   O8    A    
C31   N1    A    
C29   O7    A    
C20   C21   S    
Cu1   N1    S    
C12   C18   S    
C27   C28   S    
C12   O3    A    
