data_mof_unit_53133.cif
_audit_creation_date              2012-12-11T17:17:02-0500
_audit_creation_method            fapswitch 2.2
_symmetry_space_group_name_H-M    P1
_symmetry_Int_Tables_number       1
_space_group_crystal_system       triclinic
_cell_length_a                    6.967372
_cell_length_b                    13.385045
_cell_length_c                    14.725714
_cell_angle_alpha                 99.209264
_cell_angle_beta                  90.842327
_cell_angle_gamma                 89.452928
_cell_volume                      1355.41550593

loop_
_atom_site_label
_atom_site_type_symbol
_atom_type_description
_atom_site_fract_x
_atom_site_fract_y
_atom_site_fract_z
_atom_type_partial_charge
O1    O     O_R   0.354890 0.151580 0.148210 -0.541862
O2    O     O_R   0.645110 0.848420 0.851790 -0.541862
O3    O     O_R   0.682370 0.152980 0.336770 -0.512765
O4    O     O_R   0.317630 0.847020 0.663230 -0.512765
O5    O     O_R   0.854980 0.348430 0.351800 -0.536564
O6    O     O_R   0.145020 0.651570 0.648200 -0.536563
C1    C     C_R   0.515704 0.132731 0.367358 0.841183
C2    C     C_R   0.484296 0.867269 0.632642 0.841183
O7    O     O_R   0.684450 0.139580 0.148000 -0.534537
O8    O     O_R   0.315550 0.860420 0.852000 -0.534537
O9    O     O_R   0.857080 0.334940 0.161680 -0.522545
O10   O     O_R   0.142920 0.665060 0.838320 -0.522545
C3    C     C_R   0.515303 0.112709 0.114116 0.754186
C4    C     C_R   0.484697 0.887291 0.885884 0.754186
O11   O     O_R   0.352790 0.165070 0.338330 -0.530863
O12   O     O_R   0.647210 0.834930 0.661670 -0.530862
O13   O     O_3   0.522170 0.314120 0.254710 -0.380080
O14   O     O_3   0.477830 0.685880 0.745290 -0.380080
V1    V     V_3+5 0.796120 0.238110 0.249130 1.635015
V2    V     V_3+5 0.203880 0.761890 0.750870 1.635015
O15   O     O_R   0.186930 0.347040 0.163240 -0.544187
O16   O     O_R   0.813070 0.652960 0.836760 -0.544188
C5    C     C_R   0.016970 0.368767 0.134285 0.806793
C6    C     C_R   0.983030 0.631233 0.865715 0.806792
O17   O     O_R   0.184850 0.360440 0.352010 -0.545321
O18   O     O_R   0.815150 0.639560 0.647990 -0.545321
C7    C     C_R   0.016140 0.387243 0.385911 0.760157
C8    C     C_R   0.983859 0.612757 0.614089 0.760157
V3    V     V_3+5 0.296410 0.261900 0.250880 1.570321
V4    V     V_3+5 0.703590 0.738100 0.749120 1.570320
O19   O     O_3   0.020490 0.185890 0.245290 -0.359067
O20   O     O_3   0.979510 0.814110 0.754710 -0.359066
C9    C     C_1   0.005515 0.466891 0.466326 -0.121591
C10   C     C_1   0.994485 0.533109 0.533674 -0.121592
C11   C     C_3   0.058031 0.593704 0.038505 0.112653
C12   C     C_3   0.941969 0.406296 0.961494 0.112653
C13   C     C_3   0.885193 0.535891 0.068892 0.320666
C14   C     C_3   0.114807 0.464108 0.931108 0.320664
C15   C     C_3   0.005796 0.437834 0.063588 -0.308754
C16   C     C_3   0.994204 0.562166 0.936412 -0.308754
C17   C     C_3   0.177834 0.495105 0.032017 0.290982
C18   C     C_3   0.822166 0.504895 0.967983 0.290977
C19   C     C_3   0.323146 0.033950 0.482083 0.207878
C20   C     C_3   0.676854 0.966050 0.517917 0.207879
C21   C     C_3   0.390562 0.922223 0.466349 0.294380
C22   C     C_3   0.609438 0.077777 0.533651 0.294381
C23   C     C_3   0.489449 0.936931 0.561883 -0.293585
C24   C     C_3   0.510551 0.063069 0.438117 -0.293585
C25   C     C_3   0.423595 0.049346 0.578024 0.170075
C26   C     C_3   0.576405 0.950654 0.421976 0.170076
C27   C     C_1   0.504663 0.033121 0.033697 -0.097793
C28   C     C_1   0.495337 0.966879 0.966303 -0.097793
O21   O     O_3   0.762430 0.572757 0.141004 -0.590482
H1    H     H_    0.703881 0.635119 0.124058 0.356522
O22   O     O_3   0.237570 0.427243 0.858996 -0.590483
H2    H     H_    0.296111 0.364878 0.875938 0.356523
Br1   Br    Br    0.142925 0.726738 0.095681 -0.461245
Br2   Br    Br    0.857075 0.273262 0.904319 -0.461245
O23   O     O_3   0.366166 0.488797 0.064544 -0.565167
H3    H     H_    0.363694 0.521155 0.129944 0.335573
O24   O     O_3   0.633833 0.511203 0.935456 -0.565169
H4    H     H_    0.636305 0.478847 0.870056 0.335577
O25   O     O_3   0.279506 0.838425 0.430268 -0.577206
H5    H     H_    0.228910 0.853119 0.370494 0.362141
O26   O     O_3   0.720494 0.161575 0.569732 -0.577205
H6    H     H_    0.771089 0.146881 0.629506 0.362140
Br3   Br    Br    0.078854 0.094412 0.455141 -0.388985
Br4   Br    Br    0.921146 0.905588 0.544859 -0.388985
Br5   Br    Br    0.316715 0.121314 0.690985 -0.405924
Br6   Br    Br    0.683285 0.878685 0.309015 -0.405922

loop_
_geom_bond_atom_site_label_1
_geom_bond_atom_site_label_2
_ccdc_geom_bond_type
V4    O20   S    
O22   H2    S    
O6    C8    A    
O13   V3    S    
C12   C18   S    
O4    C2    A    
V1    O19   S    
C23   C25   S    
O21   H1    S    
C7    C9    S    
C22   C25   S    
O9    V1    S    
C11   C13   S    
O3    C1    A    
C3    C27   S    
O12   V4    S    
C13   C18   S    
O7    C3    A    
O13   V1    S    
O5    C7    A    
O7    V1    S    
C4    C28   S    
C14   O22   S    
O8    V2    S    
O3    V1    S    
O14   V4    S    
C19   C24   S    
C20   C23   S    
C13   O21   S    
C24   C26   S    
C8    C10   S    
O23   H3    S    
C2    O12   A    
C25   Br5   S    
O2    C4    A    
C20   C22   S    
O11   V3    S    
C21   C23   S    
O17   V3    S    
C13   C15   S    
C22   C24   S    
C12   Br2   S    
C27   C28   T    
C17   O23   S    
C14   C17   S    
C15   C17   S    
O8    C4    A    
C19   C25   S    
C1    O11   A    
O15   V3    S    
C21   O25   S    
O10   V2    S    
O1    V3    S    
C9    C10   T    
C19   C21   S    
C18   O24   S    
C22   O26   S    
O18   V4    S    
O15   C5    A    
O16   C6    A    
C20   Br4   S    
O1    C3    A    
V2    O20   S    
C20   C26   S    
O16   V4    S    
C12   C15   S    
C16   C18   S    
O5    V1    S    
O17   C7    A    
O6    V2    S    
O10   C6    A    
O18   C8    A    
C11   Br1   S    
O2    V4    S    
C1    C24   S    
C12   C14   S    
C11   C16   S    
C26   Br6   S    
C2    C23   S    
V3    O19   S    
C14   C16   S    
C21   C26   S    
C5    C15   S    
O9    C5    A    
C6    C16   S    
O14   V2    S    
O24   H4    S    
C11   C17   S    
O25   H5    S    
O4    V2    S    
C19   Br3   S    
O26   H6    S    
