data_mof_unit_42185.cif
_audit_creation_date              2013-03-05T16:21:44-0500
_audit_creation_method            fapswitch 2.2
_symmetry_space_group_name_H-M    P1
_symmetry_Int_Tables_number       1
_space_group_crystal_system       triclinic
_cell_length_a                    12.998034
_cell_length_b                    15.211958
_cell_length_c                    14.10965
_cell_angle_alpha                 90.884452
_cell_angle_beta                  95.632711
_cell_angle_gamma                 95.895758
_cell_volume                      2760.76406518

loop_
_atom_site_label
_atom_site_type_symbol
_atom_site_description
_atom_site_fract_x
_atom_site_fract_y
_atom_site_fract_z
_atom_type_partial_charge
O1    O     O_R   0.500010 0.371450 0.581430 -0.552349
O2    O     O_R   0.499990 0.628550 0.418570 -0.549665
O3    O     O_R   0.500010 0.371460 0.418560 -0.490007
O4    O     O_R   0.499990 0.628540 0.581440 -0.524774
C1    C     C_R   0.509492 0.331172 0.500784 0.871678
C2    C     C_R   0.495252 0.669736 0.499697 0.889840
O5    O     O_R   0.349000 0.499980 0.568210 -0.544350
O6    O     O_R   0.651000 0.500020 0.431790 -0.523686
O7    O     O_R   0.349000 0.499990 0.405340 -0.481970
O8    O     O_R   0.651000 0.500010 0.594660 -0.485252
C3    C     C_R   0.302301 0.510758 0.483065 0.863482
C4    C     C_R   0.700099 0.498614 0.517714 0.818135
Cu1   Cu    Cu3+1 0.500000 0.499990 0.596430 1.082149
Cu2   Cu    Cu3+1 0.500000 0.500010 0.403570 1.101194
C5    C     C_R   0.815827 0.507352 0.527561 -0.378065
C6    C     C_R   0.192516 0.534195 0.474008 -0.349369
C7    C     C_R   0.035747 0.534633 0.368168 0.380755
C8    C     C_R   0.972500 0.578845 0.612157 0.392290
C9    C     C_R   0.144438 0.556060 0.385624 0.370414
C10   C     C_R   0.872411 0.536774 0.615041 0.381808
C11   C     C_R   0.137813 0.550925 0.552816 0.428104
C12   C     C_R   0.870141 0.497334 0.445543 0.477243
C13   C     C_R   0.029615 0.557050 0.537574 -0.235524
C14   C     C_R   0.976964 0.528348 0.448664 -0.254705
C15   C     C_R   0.499017 0.101018 0.591146 0.359747
C16   C     C_R   0.465519 0.907800 0.425977 0.342680
C17   C     C_R   0.521371 0.192083 0.591757 0.220153
C18   C     C_R   0.471211 0.815298 0.415524 0.353696
C19   C     C_R   0.527134 0.235952 0.504976 -0.353737
C20   C     C_R   0.490112 0.766960 0.500013 -0.372914
C21   C     C_R   0.555277 0.188564 0.426461 0.288081
C22   C     C_R   0.503891 0.813207 0.588080 0.272488
C23   C     C_R   0.566311 0.096660 0.436513 0.336345
C24   C     C_R   0.535920 0.903046 0.591593 0.341826
C25   C     C_R   0.525176 0.051197 0.513705 -0.142832
C26   C     C_R   0.510478 0.952951 0.510947 -0.197524
C27   C     C_R   0.592083 0.516023 0.116343 0.252020
C28   C     C_R   0.444246 0.423433 0.881374 0.212228
C29   C     C_R   0.587628 0.529067 0.216204 0.413353
C30   C     C_R   0.440537 0.432169 0.779550 0.460788
N1    N     N_R   0.500000 0.500020 0.258690 -0.308947
N2    N     N_R   0.500000 0.499980 0.741310 -0.300312
C31   C     C_R   0.414127 0.461160 0.199224 0.421112
C32   C     C_R   0.559222 0.563414 0.802201 0.402467
C33   C     C_R   0.408785 0.470517 0.098580 0.223273
C34   C     C_R   0.549894 0.564029 0.901714 0.238243
C35   C     C_R   0.499840 0.491785 0.054235 -0.155317
C36   C     C_R   0.498309 0.491606 0.944548 -0.110548
O9    O     O_3   0.826139 0.440749 0.371390 -0.475763
C37   C     C_3   0.817131 0.352913 0.404855 0.106005
H1    H     H_    0.738217 0.336951 0.427405 0.173544
H2    H     H_    0.874473 0.341876 0.466872 0.116131
C38   C     C_3   0.834104 0.288008 0.326246 -0.689404
H3    H     H_    0.917895 0.292038 0.315607 0.245456
H4    H     H_    0.809265 0.219679 0.346921 0.184896
H5    H     H_    0.789012 0.302420 0.258540 0.258773
O10   O     O_3   0.189061 0.562147 0.643056 -0.540205
C39   C     C_3   0.166177 0.484909 0.694007 0.126637
H6    H     H_    0.197599 0.428582 0.660581 0.180714
H7    H     H_    0.081767 0.466181 0.695722 0.156485
C40   C     C_3   0.213355 0.500462 0.795817 -0.654771
H8    H     H_    0.164395 0.540412 0.835176 0.257817
H9    H     H_    0.218907 0.436458 0.830484 0.231309
H10   H     H_    0.291993 0.536238 0.798454 0.221090
S1    S     S_3+6 0.309532 0.386776 0.236657 0.041302
O11   O     O_2   0.277821 0.315978 0.160974 -0.300972
O12   O     O_2   0.332920 0.340585 0.327651 -0.297673
O13   O     O_3   0.206466 0.442220 0.246998 -0.498970
H11   H     H_    0.151524 0.396906 0.264055 0.369630
S2    S     S_3+6 0.655838 0.647915 0.768514 0.140197
O14   O     O_2   0.624972 0.735967 0.797858 -0.276972
O15   O     O_2   0.755957 0.635767 0.827313 -0.168107
O16   O     O_3   0.682657 0.654365 0.654972 -0.492396
H12   H     H_    0.699865 0.718071 0.643846 0.353719
O17   O     O_3   0.317030 0.443458 0.042861 -0.475031
C41   C     C_3   0.250184 0.510809 0.039293 0.120163
H13   H     H_    0.271654 0.558167 0.983663 0.097916
H14   H     H_    0.253755 0.548306 0.107541 0.194575
C42   C     C_3   0.138394 0.469028 0.015759 -0.595127
H15   H     H_    0.110353 0.434429 0.078340 0.299769
H16   H     H_    0.086871 0.520768 0.994778 0.210670
H17   H     H_    0.132471 0.418979 0.957208 0.222368
O18   O     O_3   0.601383 0.633813 0.958136 -0.464267
C43   C     C_3   0.529891 0.691714 0.984119 0.138423
H18   H     H_    0.485757 0.664027 0.042290 0.092441
H19   H     H_    0.474052 0.705212 0.923087 0.132600
C44   C     C_3   0.589033 0.779617 0.019286 -0.720173
H20   H     H_    0.635084 0.809145 0.963397 0.286407
H21   H     H_    0.533518 0.826496 0.037402 0.177763
H22   H     H_    0.642734 0.769864 0.083401 0.216422
S3    S     S_3+6 0.857446 0.471577 0.717569 -0.013686
O19   O     O_2   0.930974 0.509105 0.800554 -0.285746
O20   O     O_2   0.749467 0.463855 0.747233 -0.271592
O21   O     O_3   0.887073 0.369702 0.690226 -0.643478
H23   H     H_    0.925712 0.349635 0.748564 0.353245
S4    S     S_3+6 0.201650 0.654801 0.338840 0.067443
O22   O     O_2   0.120168 0.707413 0.291370 -0.287282
O23   O     O_2   0.260122 0.710590 0.419279 -0.322047
O24   O     O_3   0.285177 0.630389 0.261421 -0.471957
H24   H     H_    0.274973 0.671788 0.208812 0.353577
S5    S     S_3+6 0.978462 0.525465 0.248010 0.038783
O25   O     O_2   0.952368 0.429778 0.219604 -0.326921
O26   O     O_2   0.880852 0.570487 0.237868 -0.240108
O27   O     O_3   0.060000 0.570581 0.172529 -0.514550
H25   H     H_    0.019731 0.610610 0.132564 0.370477
S6    S     S_3+6 0.010733 0.677526 0.680602 0.053418
O28   O     O_2   0.058665 0.657896 0.778022 -0.268788
O29   O     O_2   0.087951 0.735946 0.630997 -0.305154
O30   O     O_3   0.905597 0.731016 0.691995 -0.512211
H26   H     H_    0.931861 0.784741 0.731125 0.370153
O31   O     O_3   0.464438 0.063024 0.672102 -0.491788
C45   C     C_3   0.356252 0.039425 0.656401 0.097758
H27   H     H_    0.337997 0.984626 0.602597 0.120419
H28   H     H_    0.314441 0.096867 0.632684 0.109547
C46   C     C_3   0.316810 0.006920 0.748889 -0.754476
H29   H     H_    0.332305 0.060206 0.804394 0.234776
H30   H     H_    0.231853 0.986822 0.737558 0.202149
H31   H     H_    0.357072 0.949419 0.773974 0.264537
O32   O     O_3   0.420463 0.954538 0.352255 -0.545159
C47   C     C_3   0.319393 0.970177 0.372121 0.063138
H32   H     H_    0.320200 0.005296 0.441798 0.116211
H33   H     H_    0.268301 0.906735 0.372008 0.195470
C48   C     C_3   0.273571 0.028989 0.296250 -0.755238
H34   H     H_    0.271392 0.997583 0.224476 0.244743
H35   H     H_    0.193166 0.039927 0.310109 0.211195
H36   H     H_    0.321318 0.093982 0.297937 0.255105
O33   O     O_3   0.544688 0.236206 0.678582 -0.577974
C49   C     C_3   0.653920 0.246383 0.699635 0.161519
H37   H     H_    0.688520 0.300733 0.657203 0.198646
H38   H     H_    0.689714 0.184660 0.684347 0.115268
C50   C     C_3   0.680840 0.269204 0.804995 -0.740675
H39   H     H_    0.649905 0.213941 0.848104 0.218098
H40   H     H_    0.766470 0.279698 0.821810 0.222997
H41   H     H_    0.647144 0.330510 0.823866 0.242669
O34   O     O_3   0.441903 0.768948 0.329146 -0.510378
C51   C     C_3   0.477204 0.813285 0.248544 0.142789
H42   H     H_    0.516454 0.767050 0.206943 0.093483
H43   H     H_    0.536666 0.870852 0.266046 0.157798
C52   C     C_3   0.385413 0.838691 0.181988 -0.710302
H44   H     H_    0.316279 0.844045 0.221085 0.287021
H45   H     H_    0.406888 0.902912 0.148780 0.209693
H46   H     H_    0.363637 0.787738 0.124138 0.176587
O35   O     O_3   0.586664 0.237952 0.350349 -0.572732
C53   C     C_3   0.571730 0.191590 0.262255 0.203555
H47   H     H_    0.500773 0.143175 0.255172 0.177685
H48   H     H_    0.641890 0.158289 0.251437 0.178694
C54   C     C_3   0.560641 0.257722 0.184420 -0.879953
H49   H     H_    0.616786 0.317379 0.199782 0.248606
H50   H     H_    0.576310 0.226611 0.116457 0.186044
H51   H     H_    0.480835 0.278010 0.179142 0.282456
O36   O     O_3   0.478516 0.773280 0.670882 -0.493017
C55   C     C_3   0.368868 0.764072 0.669357 0.184402
H52   H     H_    0.333405 0.711519 0.616919 0.195827
H53   H     H_    0.335236 0.826964 0.651289 0.125057
C56   C     C_3   0.339202 0.737910 0.766910 -0.711459
H54   H     H_    0.371346 0.790234 0.820550 0.219885
H55   H     H_    0.253492 0.729040 0.766417 0.274048
H56   H     H_    0.370498 0.674821 0.785753 0.216205
O37   O     O_3   0.612420 0.050781 0.369419 -0.568423
C57   C     C_3   0.712429 0.033197 0.408045 0.035509
H57   H     H_    0.706674 0.979897 0.460737 0.136278
H58   H     H_    0.757920 0.093333 0.442688 0.127364
C58   C     C_3   0.771460 0.001261 0.328516 -0.799223
H59   H     H_    0.780397 0.053151 0.274583 0.239377
H60   H     H_    0.849805 0.986159 0.358267 0.214752
H61   H     H_    0.728799 0.940401 0.293621 0.237628
O38   O     O_3   0.579388 0.940992 0.677768 -0.477096
C59   C     C_3   0.688024 0.956062 0.675898 0.125009
H62   H     H_    0.708012 0.010390 0.626938 0.095743
H63   H     H_    0.721436 0.895137 0.653780 0.129404
C60   C     C_3   0.737530 0.983956 0.775347 -0.718652
H64   H     H_    0.720010 0.930641 0.826095 0.267363
H65   H     H_    0.823129 0.996881 0.774865 0.184742
H66   H     H_    0.706719 0.045177 0.799206 0.242779
O39   O     O_3   0.687281 0.530647 0.080319 -0.478431
C61   C     C_3   0.725595 0.448386 0.066104 0.109143
H67   H     H_    0.665978 0.398781 0.028219 0.072780
H68   H     H_    0.753557 0.421862 0.135851 0.203514
C62   C     C_3   0.815782 0.461227 0.005154 -0.558912
H69   H     H_    0.877597 0.510450 0.039429 0.274513
H70   H     H_    0.848589 0.397496 0.995383 0.175900
H71   H     H_    0.787898 0.485300 0.934459 0.288095
O40   O     O_3   0.385288 0.352913 0.916593 -0.518399
C63   C     C_3   0.451284 0.293434 0.958728 0.099076
H72   H     H_    0.491265 0.322372 0.025861 0.157283
H73   H     H_    0.511013 0.277469 0.912115 0.110943
C64   C     C_3   0.386971 0.207592 0.978702 -0.746173
H74   H     H_    0.342426 0.179862 0.912200 0.232489
H75   H     H_    0.438432 0.158309 0.007269 0.193040
H76   H     H_    0.331510 0.219540 0.031052 0.295324
O41   O     O_3   0.676544 0.563025 0.271891 -0.464096
C65   C     C_3   0.679215 0.655955 0.276852 0.139935
H77   H     H_    0.602086 0.676617 0.287373 0.134075
H78   H     H_    0.706513 0.684568 0.210646 0.162518
C66   C     C_3   0.752505 0.694112 0.361961 -0.706370
H79   H     H_    0.832098 0.675079 0.358570 0.284270
H80   H     H_    0.756215 0.767413 0.362454 0.171417
H81   H     H_    0.723432 0.670706 0.429500 0.221763
O42   O     O_3   0.362180 0.386515 0.717536 -0.566766
C67   C     C_3   0.349364 0.293527 0.725093 0.213254
H82   H     H_    0.408614 0.266483 0.774275 0.196894
H83   H     H_    0.355671 0.264798 0.653582 0.172574
C68   C     C_3   0.240159 0.261003 0.749332 -0.895584
H84   H     H_    0.180868 0.280533 0.693895 0.227414
H85   H     H_    0.231626 0.187799 0.751683 0.211579
H86   H     H_    0.224814 0.287173 0.819593 0.292739

loop_
_geom_bond_atom_site_label_1
_geom_bond_atom_site_label_2
_geom_bond_distance
_ccdc_geom_bond_type
C28   C30   1.441424 A    
C60   H64   1.111008 S    
C22   C24   1.385794 A    
S5    O25   1.499436 D    
C17   C19   1.408243 A    
C18   O34   1.398138 S    
O16   H12   0.990399 S    
O27   H25   0.990373 S    
C58   H59   1.110274 S    
C41   C42   1.527938 S    
C44   H20   1.109170 S    
C50   H41   1.109771 S    
C49   H37   1.111759 S    
C45   H28   1.114337 S    
C48   H34   1.109626 S    
C29   N1    1.375034 A    
C38   H3    1.109567 S    
O5    C3    1.312238 A    
C68   H85   1.109029 S    
C6    C11   1.410827 A    
O18   C43   1.413764 S    
O1    C1    1.306488 A    
C54   H50   1.108667 S    
C41   H14   1.106173 S    
C53   C54   1.507227 S    
O37   C57   1.412522 S    
C52   H46   1.112277 S    
C48   H35   1.110410 S    
C56   H55   1.107684 S    
S6    O28   1.499842 D    
C39   H7    1.107588 S    
C46   H29   1.107625 S    
S4    O24   1.677186 S    
C16   C26   1.416044 A    
C63   H72   1.097540 S    
C33   C35   1.403523 A    
O4    Cu1   1.970157 S    
C40   H9    1.102102 S    
C7    S5    1.780947 S    
C45   H27   1.109948 S    
C64   H76   1.107059 S    
C54   H49   1.109024 S    
C23   C25   1.418449 A    
C17   O33   1.379532 S    
C5    C12   1.427550 A    
O39   C61   1.412087 S    
C32   C34   1.421088 A    
C67   H82   1.101311 S    
S1    O12   1.493204 D    
S4    O23   1.501474 D    
C37   H2    1.118757 S    
O36   C55   1.415685 S    
C21   C23   1.427762 A    
C32   S2    1.805483 S    
S2    O14   1.500789 D    
C27   C35   1.426324 A    
C28   C36   1.436173 A    
C40   H8    1.105051 S    
C47   C48   1.521514 S    
C31   S1    1.803055 S    
O7    C3    1.320428 A    
C62   H71   1.108147 S    
C46   H31   1.109730 S    
C39   C40   1.510735 S    
C59   H63   1.115936 S    
O42   C67   1.414127 S    
S5    O26   1.498378 D    
Cu1   Cu2   2.721192 S    
C56   H56   1.106371 S    
N1    C31   1.401635 A    
O2    C2    1.306224 A    
N2    C32   1.397784 A    
C51   C52   1.529947 S    
Cu1   N2    2.044210 S    
C68   H86   1.106338 S    
C47   H33   1.113761 S    
C1    C19   1.490777 S    
C41   H13   1.110011 S    
C38   H4    1.108439 S    
C5    C10   1.414882 A    
C60   H66   1.111035 S    
C34   C36   1.406018 A    
C7    C14   1.428850 A    
O41   C65   1.410990 S    
C37   C38   1.520746 S    
C65   C66   1.525372 S    
O34   C51   1.421732 S    
C54   H51   1.108215 S    
C43   H18   1.110678 S    
C51   H43   1.114468 S    
C23   O37   1.385411 S    
O38   C59   1.410019 S    
C42   H16   1.110034 S    
O7    Cu2   1.965282 S    
O13   H11   0.990358 S    
C48   H36   1.110637 S    
C46   H30   1.110376 S    
C39   H6    1.104831 S    
S3    O20   1.497266 D    
C28   O40   1.381068 S    
C34   O18   1.389946 S    
C25   C26   1.486509 S    
C65   H78   1.110802 S    
C40   H10   1.104521 S    
O17   C41   1.408205 S    
C57   C58   1.520745 S    
O40   C63   1.408506 S    
C11   O10   1.377484 S    
C27   O39   1.381802 S    
C29   O41   1.380752 S    
C3    C6    1.499964 S    
C30   N2    1.373978 A    
C35   C36   1.545775 S    
C55   C56   1.513689 S    
O6    C4    1.315027 A    
S1    O13   1.671530 S    
S4    O22   1.504091 D    
C58   H61   1.110797 S    
S2    O16   1.674858 S    
C37   H1    1.107970 S    
C16   O32   1.385371 S    
C31   C33   1.424980 A    
C8    C13   1.400587 A    
O3    Cu2   1.970157 S    
O8    C4    1.313205 A    
C15   C25   1.408616 A    
Cu2   N1    2.044208 S    
C53   H48   1.109690 S    
C59   H62   1.111965 S    
C2    C20   1.487272 S    
C55   H53   1.114880 S    
S1    O11   1.502328 D    
C4    C5    1.488965 S    
C11   C13   1.414541 A    
C12   C14   1.416044 A    
C42   H15   1.107993 S    
O4    C2    1.320258 A    
O1    Cu1   1.963531 S    
C50   H39   1.110267 S    
C49   C50   1.519846 S    
O3    C1    1.321411 A    
S3    O19   1.502626 D    
C47   H32   1.110248 S    
C52   H44   1.108778 S    
C38   H5    1.107769 S    
C12   O9    1.384316 S    
C67   C68   1.527365 S    
C61   H67   1.114328 S    
O6    Cu2   1.963994 S    
O31   C45   1.409984 S    
C58   H60   1.110456 S    
C43   H19   1.106306 S    
C51   H42   1.104184 S    
C50   H40   1.109531 S    
O8    Cu1   1.965280 S    
C49   H38   1.117023 S    
C42   H17   1.106406 S    
O32   C47   1.412589 S    
C63   C64   1.522087 S    
C18   C20   1.424369 A    
O33   C49   1.413746 S    
C43   C44   1.522712 S    
C62   H69   1.108630 S    
C15   C17   1.385620 A    
C16   C18   1.422812 A    
O24   H24   0.988665 S    
C33   O17   1.383824 S    
C53   H47   1.114956 S    
C65   H77   1.103808 S    
C61   C62   1.519200 S    
C44   H21   1.109440 S    
O35   C53   1.406243 S    
C64   H74   1.106604 S    
C19   C21   1.410601 A    
O30   H26   0.990480 S    
C57   H57   1.110319 S    
S3    O21   1.682881 S    
C20   C22   1.405163 A    
C52   H45   1.111590 S    
O10   C39   1.407848 S    
C22   O36   1.378046 S    
S6    O29   1.503623 D    
C8    S6    1.772226 S    
C6    C9    1.399591 A    
C61   H68   1.111549 S    
C7    C9    1.413303 A    
C30   O42   1.395082 S    
C63   H73   1.108288 S    
C8    C10   1.394234 A    
C45   C46   1.519694 S    
C21   O35   1.390002 S    
O21   H23   0.990471 S    
O2    Cu2   1.963529 S    
C64   H75   1.109655 S    
C15   O31   1.381523 S    
C13   C14   1.409215 A    
C66   H79   1.107815 S    
C66   H81   1.109603 S    
C60   H65   1.110503 S    
C10   S3    1.781597 S    
O5    Cu1   1.963995 S    
C55   H52   1.112678 S    
C24   C26   1.408836 A    
C27   C29   1.427499 A    
O9    C37   1.421324 S    
C44   H22   1.108626 S    
C56   H54   1.109909 S    
S2    O15   1.502722 D    
S5    O27   1.680245 S    
C59   C60   1.520307 S    
C68   H84   1.109005 S    
C66   H80   1.111014 S    
C67   H83   1.107148 S    
C9    S4    1.772671 S    
C24   O38   1.381049 S    
C57   H58   1.115218 S    
C62   H70   1.110440 S    
S6    O30   1.680157 S    
