data_mof_unit_61103.cif
_audit_creation_date              2012-12-10T19:19:26-0500
_audit_creation_method            fapswitch 2.2
_symmetry_space_group_name_H-M    P1
_symmetry_Int_Tables_number       1
_space_group_crystal_system       triclinic
_cell_length_a                    38.908401
_cell_length_b                    38.984585
_cell_length_c                    39.077571
_cell_angle_alpha                 89.871638
_cell_angle_beta                  89.867492
_cell_angle_gamma                 90.319743
_cell_volume                      59272.7166677

loop_
_atom_site_label
_atom_site_type_symbol
_atom_type_description
_atom_site_fract_x
_atom_site_fract_y
_atom_site_fract_z
_atom_type_partial_charge
C1    C     C_R   0.000143 0.567078 0.499940 0.992581
C2    C     C_R   0.432915 0.999876 0.500098 1.016156
C3    C     C_R   0.520722 0.341312 0.977316 -0.193849
C4    C     C_R   0.487434 0.972351 0.341658 -0.198279
C5    C     C_R   0.478943 0.341139 0.023208 -0.193657
C6    C     C_R   0.479341 0.022844 0.658785 -0.192564
C7    C     C_R   0.479478 0.658754 0.976995 -0.193818
C8    C     C_R   0.032345 0.657585 0.491457 -0.201715
C9    C     C_R   0.658396 0.978509 0.476971 -0.191404
C10   C     C_R   0.977909 0.341085 0.478415 -0.193051
C11   C     C_R   0.341402 0.021725 0.478463 -0.191465
C12   C     C_R   0.974714 0.658811 0.514639 -0.195027
C13   C     C_R   0.500002 0.999965 0.567120 1.029502
C14   C     C_R   0.341128 0.977955 0.522445 -0.194032
C15   C     C_R   0.021615 0.341515 0.522303 -0.190959
C16   C     C_R   0.659084 0.022199 0.520829 -0.193859
C17   C     C_R   0.658890 0.521051 0.976805 -0.193981
C18   C     C_R   0.978183 0.522165 0.341480 -0.190087
C19   C     C_R   0.341214 0.520485 0.023017 -0.194448
C20   C     C_R   0.028575 0.512344 0.658032 -0.197519
C21   C     C_R   0.658715 0.479280 0.022659 -0.194344
C22   C     C_R   0.971012 0.488706 0.658234 -0.199476
C23   C     C_R   0.341172 0.478806 0.977268 -0.193940
C24   C     C_R   0.567087 0.000121 0.499994 1.015998
C25   C     C_R   0.021889 0.478355 0.341185 -0.192642
C26   C     C_R   0.999949 0.500337 0.823671 0.079819
C27   C     C_R   0.000454 0.176644 0.499926 0.062743
C28   C     C_R   0.999501 0.499924 0.176654 0.062451
C29   C     C_R   0.003998 0.823747 0.504467 0.079825
C30   C     C_R   0.500113 0.176563 0.000349 0.063191
C31   C     C_R   0.176556 0.500058 0.999833 0.063283
C32   C     C_R   0.499927 0.823433 0.000179 0.063193
C33   C     C_R   0.823444 0.499889 0.999657 0.063320
C34   C     C_R   0.176570 0.000239 0.500678 0.063256
C35   C     C_R   0.500122 0.067103 0.999946 1.017411
C36   C     C_R   0.500131 0.999936 0.823303 0.064992
C37   C     C_R   0.823425 0.999719 0.499167 0.063172
C38   C     C_R   0.498439 0.001402 0.176328 0.079587
C39   C     C_R   0.498521 0.001551 0.323710 0.079520
C40   C     C_R   0.500342 0.676630 0.999904 0.062936
C41   C     C_R   0.499994 0.999785 0.676574 0.061530
C42   C     C_R   0.499830 0.323371 0.000325 0.062936
C43   C     C_R   0.004587 0.676297 0.504324 0.079503
C44   C     C_R   0.676592 0.000216 0.498805 0.062765
C45   C     C_R   0.999979 0.323418 0.500264 0.063740
C46   C     C_R   0.499948 0.999933 0.067069 1.010282
C47   C     C_R   0.323416 0.000046 0.500687 0.062664
C48   C     C_R   0.676643 0.500168 0.999668 0.063038
C49   C     C_R   0.999831 0.500178 0.323429 0.063786
C50   C     C_R   0.323352 0.499632 0.000118 0.063088
C51   C     C_R   0.999790 0.500546 0.676270 0.078992
C52   C     C_R   0.000025 0.500124 0.895498 -0.183578
C53   C     C_R   0.000238 0.104719 0.499904 -0.192009
C54   C     C_R   0.999754 0.499903 0.104757 -0.194562
C55   C     C_R   0.999914 0.895461 0.500700 -0.182307
C56   C     C_R   0.500416 0.104658 0.000177 -0.184697
C57   C     C_R   0.499877 0.932896 0.999946 1.017422
C58   C     C_R   0.104632 0.500413 0.999860 -0.183431
C59   C     C_R   0.499581 0.895338 0.000145 -0.184952
C60   C     C_R   0.895368 0.499591 0.999825 -0.183289
C61   C     C_R   0.104629 0.999974 0.499804 -0.182009
C62   C     C_R   0.500112 0.000023 0.895248 -0.195529
C63   C     C_R   0.895363 0.999698 0.500173 -0.182856
C64   C     C_R   0.499698 0.000034 0.104523 -0.184019
C65   C     C_R   0.499910 0.000302 0.395509 -0.182824
C66   C     C_R   0.500189 0.604699 0.999895 -0.189162
C67   C     C_R   0.499983 0.999885 0.604721 -0.193768
C68   C     C_R   0.500037 0.000011 0.932856 1.030264
C69   C     C_R   0.499904 0.395303 0.000122 -0.189031
C70   C     C_R   0.000862 0.604561 0.500268 -0.176183
C71   C     C_R   0.604662 0.000414 0.499529 -0.184012
C72   C     C_R   0.999539 0.395332 0.500202 -0.187246
C73   C     C_R   0.395341 0.999583 0.500128 -0.183547
C74   C     C_R   0.604690 0.500095 0.999874 -0.188363
C75   C     C_R   0.000299 0.500133 0.395323 -0.188350
C76   C     C_R   0.395307 0.499802 0.000112 -0.188484
C77   C     C_R   0.999858 0.500324 0.604468 -0.176588
C78   C     C_R   0.977498 0.478778 0.767741 -0.157663
C79   C     C_R   0.067058 0.000080 0.499933 1.014841
C80   C     C_R   0.969127 0.231881 0.499873 -0.160784
C81   C     C_R   0.968414 0.500918 0.232320 -0.159104
C82   C     C_R   0.984155 0.767379 0.528313 -0.156976
C83   C     C_R   0.022162 0.522218 0.767554 -0.157574
C84   C     C_R   0.029138 0.768114 0.485451 -0.159233
C85   C     C_R   0.030744 0.499398 0.232042 -0.159826
C86   C     C_R   0.031513 0.232429 0.500501 -0.160013
C87   C     C_R   0.468782 0.231929 0.000857 -0.159405
C88   C     C_R   0.232406 0.531012 0.999759 -0.159652
C89   C     C_R   0.531312 0.768095 0.000428 -0.159294
C90   C     C_R   0.999769 0.932960 0.500084 1.007955
C91   C     C_R   0.767624 0.468874 0.999475 -0.159670
C92   C     C_R   0.531174 0.232410 0.000175 -0.159202
C93   C     C_R   0.768103 0.531173 0.999498 -0.159984
C94   C     C_R   0.468921 0.767559 0.999961 -0.159195
C95   C     C_R   0.231861 0.468713 0.999883 -0.160001
C96   C     C_R   0.231960 0.969077 0.499832 -0.160657
C97   C     C_R   0.531267 0.000633 0.767518 -0.159166
C98   C     C_R   0.767549 0.968739 0.499638 -0.159745
C99   C     C_R   0.476062 0.979799 0.232501 -0.157091
C100  C     C_R   0.232379 0.031327 0.502053 -0.161305
C101  C     C_R   0.932939 0.000001 0.500063 1.014593
C102  C     C_R   0.519250 0.024702 0.232181 -0.157808
C103  C     C_R   0.768127 0.030998 0.497388 -0.161859
C104  C     C_R   0.468903 0.999012 0.767725 -0.159138
C105  C     C_R   0.475025 0.980946 0.267856 -0.157830
C106  C     C_R   0.469027 0.731921 0.999851 -0.160814
C107  C     C_R   0.468875 0.999088 0.732136 -0.159421
C108  C     C_R   0.468713 0.267580 0.000875 -0.160122
C109  C     C_R   0.520373 0.023675 0.267537 -0.157073
C110  C     C_R   0.531101 0.268050 0.000153 -0.160925
C111  C     C_R   0.531225 0.000472 0.731929 -0.159432
C112  C     C_R   0.999954 0.500150 0.567049 0.993538
C113  C     C_R   0.000059 0.067097 0.499967 1.027672
C114  C     C_R   0.531414 0.732444 0.000360 -0.160115
C115  C     C_R   0.985504 0.731968 0.529326 -0.158697
C116  C     C_R   0.732442 0.031125 0.497344 -0.159323
C117  C     C_R   0.031399 0.268080 0.500562 -0.159465
C118  C     C_R   0.267641 0.969035 0.499826 -0.159402
C119  C     C_R   0.028243 0.732686 0.484244 -0.157133
C120  C     C_R   0.268077 0.031283 0.501981 -0.159695
C121  C     C_R   0.969004 0.267513 0.500040 -0.159355
C122  C     C_R   0.731858 0.968867 0.499538 -0.159507
C123  C     C_R   0.731945 0.468946 0.999487 -0.161484
C124  C     C_R   0.000018 0.500035 0.932952 1.009547
C125  C     C_R   0.030833 0.499557 0.267626 -0.158635
C126  C     C_R   0.267551 0.468608 0.999961 -0.160761
C127  C     C_R   0.978570 0.477745 0.732389 -0.157758
C128  C     C_R   0.732412 0.531241 0.999477 -0.160651
C129  C     C_R   0.021016 0.523346 0.732203 -0.157414
C130  C     C_R   0.268083 0.530904 0.999865 -0.161408
C131  C     C_R   0.968489 0.500948 0.267923 -0.158773
C132  C     C_R   0.999784 0.500558 0.714038 0.125218
C133  C     C_R   0.000139 0.285819 0.500309 0.112662
C134  C     C_R   0.999705 0.500248 0.285817 0.112130
C135  C     C_R   0.932924 0.499879 0.000052 1.015848
C136  C     C_R   0.006394 0.714048 0.506207 0.125338
C137  C     C_R   0.499874 0.285808 0.000473 0.117533
C138  C     C_R   0.285796 0.499706 0.999989 0.117954
C139  C     C_R   0.500269 0.714192 0.000032 0.117504
C140  C     C_R   0.714199 0.500125 0.999520 0.117918
C141  C     C_R   0.285846 0.000134 0.500869 0.111969
C142  C     C_R   0.500032 0.999768 0.714075 0.115607
C143  C     C_R   0.714162 0.000064 0.498499 0.111920
C144  C     C_R   0.497892 0.002150 0.285952 0.125067
C145  C     C_R   0.497826 0.002047 0.214086 0.125049
C146  C     C_R   0.999941 0.499966 0.067133 1.029386
C147  C     C_R   0.500062 0.785842 0.000203 0.112361
C148  C     C_R   0.500102 0.999856 0.785677 0.112892
C149  C     C_R   0.500015 0.214155 0.000471 0.112356
C150  C     C_R   0.005999 0.786018 0.506347 0.125559
C151  C     C_R   0.785841 0.999810 0.498636 0.117819
C152  C     C_R   0.000375 0.214181 0.500090 0.117211
C153  C     C_R   0.214162 0.000221 0.500942 0.118010
C154  C     C_R   0.785862 0.499986 0.999534 0.112636
C155  C     C_R   0.999542 0.500071 0.214195 0.116251
C156  C     C_R   0.214136 0.499919 0.999812 0.112624
C157  C     C_R   0.067075 0.500122 0.000057 1.015621
C158  C     C_R   0.999867 0.500453 0.785905 0.125129
C159  C     C_2   0.032791 0.557190 0.893752 0.946956
C160  C     C_2   0.045744 0.106010 0.547193 0.940090
C161  C     C_2   0.044730 0.452180 0.106271 0.940307
C162  C     C_2   0.032567 0.893026 0.443904 0.944394
C163  C     C_2   0.967280 0.443056 0.893881 0.947006
C164  C     C_2   0.965786 0.894510 0.556775 0.949413
C165  C     C_2   0.954701 0.547570 0.105943 0.940604
C166  C     C_2   0.954788 0.106005 0.452582 0.939949
C167  C     C_2   0.544665 0.106406 0.951541 0.940391
C168  C     C_R   0.013733 0.528585 0.877237 -0.042894
C169  C     C_2   0.105271 0.458372 0.949828 0.939316
C170  C     C_2   0.455377 0.893854 0.951670 0.940731
C171  C     C_2   0.895012 0.541852 0.949787 0.939215
C172  C     C_2   0.457999 0.105047 0.050137 0.938651
C173  C     C_2   0.893661 0.455565 0.048592 0.940155
C174  C     C_2   0.541934 0.894664 0.049967 0.939159
C175  C     C_2   0.106067 0.544274 0.048579 0.940168
C176  C     C_2   0.106418 0.048578 0.455582 0.938564
C177  C     C_2   0.452708 0.045339 0.893859 0.942018
C178  C     C_2   0.893852 0.048010 0.544475 0.938650
C179  C     C_R   0.021521 0.123009 0.523217 -0.046286
C180  C     C_2   0.556857 0.032705 0.106349 0.945857
C181  C     C_2   0.104910 0.950038 0.542215 0.936553
C182  C     C_2   0.442739 0.966937 0.106031 0.947135
C183  C     C_2   0.894762 0.950077 0.457582 0.938528
C184  C     C_2   0.547570 0.954757 0.893971 0.942100
C185  C     C_2   0.533533 0.056876 0.393992 0.947340
C186  C     C_2   0.546646 0.605979 0.046208 0.939539
C187  C     C_2   0.545665 0.952815 0.605975 0.940077
C188  C     C_2   0.546380 0.394262 0.953628 0.939511
C189  C     C_2   0.466695 0.943533 0.393733 0.945755
C190  C     C_R   0.020635 0.476383 0.123132 -0.045880
C191  C     C_2   0.453400 0.393898 0.046603 0.939287
C192  C     C_2   0.454269 0.046922 0.606116 0.940202
C193  C     C_2   0.453810 0.605873 0.953517 0.939482
C194  C     C_2   0.057038 0.605617 0.466066 0.946837
C195  C     C_2   0.604963 0.957673 0.450076 0.940114
C196  C     C_2   0.954460 0.393710 0.452470 0.941071
C197  C     C_2   0.394597 0.042352 0.450531 0.939322
C198  C     C_2   0.944127 0.606781 0.533292 0.943072
C199  C     C_2   0.393964 0.954953 0.548363 0.940475
C200  C     C_2   0.042374 0.394720 0.549617 0.939230
C201  C     C_R   0.014570 0.876739 0.473311 -0.041385
C202  C     C_2   0.606478 0.044911 0.547659 0.940364
C203  C     C_2   0.606060 0.546595 0.953464 0.939568
C204  C     C_2   0.957344 0.549410 0.394526 0.939704
C205  C     C_2   0.394165 0.546164 0.046439 0.939611
C206  C     C_2   0.056135 0.534489 0.605783 0.945251
C207  C     C_2   0.605691 0.453621 0.046296 0.939695
C208  C     C_2   0.943405 0.466416 0.606323 0.945415
C209  C     C_2   0.394070 0.453358 0.953855 0.939768
C210  C     C_2   0.045372 0.452451 0.393785 0.941051
C211  C     C_R   0.986308 0.471760 0.877290 -0.042414
C212  C     C_R   0.999866 0.432893 0.499952 1.020570
C213  C     C_R   0.986492 0.877729 0.529586 -0.044248
C214  C     C_R   0.978690 0.523386 0.122977 -0.045842
C215  C     C_R   0.979121 0.123009 0.476554 -0.046099
C216  C     C_R   0.522156 0.123179 0.977338 -0.044364
C217  C     C_R   0.122691 0.479098 0.976625 -0.049610
C218  C     C_R   0.477871 0.876944 0.977356 -0.044038
C219  C     C_R   0.877443 0.520992 0.976554 -0.049330
C220  C     C_R   0.478937 0.122586 0.023401 -0.048866
C221  C     C_R   0.876850 0.477940 0.022725 -0.044369
C222  C     C_R   0.521036 0.877278 0.023270 -0.049431
C223  C     C_R   0.000082 0.499949 0.432885 1.020774
C224  C     C_R   0.123020 0.521973 0.022768 -0.044155
C225  C     C_R   0.123197 0.022925 0.478233 -0.044074
C226  C     C_R   0.476735 0.021103 0.876939 -0.046129
C227  C     C_R   0.876929 0.022413 0.521782 -0.044135
C228  C     C_R   0.527851 0.014055 0.122874 -0.041903
C229  C     C_R   0.122519 0.976848 0.521394 -0.048655
C230  C     C_R   0.471024 0.986461 0.122631 -0.043219
C231  C     C_R   0.877326 0.976633 0.478514 -0.049451
C232  C     C_R   0.523529 0.978931 0.876988 -0.045544
C233  C     C_R   0.513734 0.028806 0.377396 -0.042756
C234  C     C_R   0.567082 0.500030 0.999963 1.024362
C235  C     C_R   0.521899 0.622998 0.022789 -0.046273
C236  C     C_R   0.521324 0.976678 0.622973 -0.046538
C237  C     C_R   0.521551 0.377116 0.977181 -0.045796
C238  C     C_R   0.485615 0.972317 0.377177 -0.042507
C239  C     C_R   0.478192 0.376942 0.023146 -0.046353
C240  C     C_R   0.478629 0.023025 0.623038 -0.046039
C241  C     C_R   0.478612 0.622949 0.976957 -0.045898
C242  C     C_R   0.029801 0.622364 0.486782 -0.032989
C243  C     C_R   0.622560 0.978791 0.476444 -0.049316
C244  C     C_R   0.977526 0.376893 0.477723 -0.044070
C245  C     C_R   0.499969 0.432912 0.000035 1.024970
C246  C     C_R   0.377233 0.021301 0.477290 -0.049736
C247  C     C_R   0.973455 0.623191 0.515096 -0.047509
C248  C     C_R   0.376982 0.977671 0.522919 -0.043724
C249  C     C_R   0.021261 0.377304 0.523107 -0.049515
C250  C     C_R   0.623232 0.022343 0.521948 -0.044364
C251  C     C_R   0.623049 0.521809 0.976875 -0.046753
C252  C     C_R   0.978532 0.522963 0.377225 -0.049461
C253  C     C_R   0.377057 0.521368 0.023040 -0.046094
C254  C     C_R   0.027956 0.514783 0.622560 -0.048820
C255  C     C_R   0.622873 0.478445 0.022789 -0.046064
C256  C     C_R   0.432917 0.499951 0.000036 1.024094
C257  C     C_R   0.971681 0.486058 0.622789 -0.031454
C258  C     C_R   0.377013 0.478091 0.977239 -0.046622
C259  C     C_R   0.022292 0.477682 0.376944 -0.043784
C260  C     C_R   0.011124 0.529271 0.841788 -0.199630
C261  C     C_R   0.020865 0.158808 0.523146 -0.193914
C262  C     C_R   0.019758 0.476488 0.158882 -0.192912
C263  C     C_R   0.014122 0.841123 0.474621 -0.197440
C264  C     C_R   0.988849 0.471283 0.841826 -0.199591
C265  C     C_R   0.991218 0.842542 0.532143 -0.203492
C266  C     C_R   0.979315 0.523301 0.158729 -0.192735
C267  C     C_R   0.500047 0.567089 0.999965 1.024703
C268  C     C_R   0.979996 0.158809 0.476643 -0.194015
C269  C     C_R   0.521914 0.158991 0.978131 -0.192636
C270  C     C_R   0.158521 0.478759 0.977461 -0.191315
C271  C     C_R   0.478136 0.841132 0.978079 -0.192809
C272  C     C_R   0.841610 0.521294 0.977315 -0.191415
C273  C     C_R   0.478636 0.158380 0.022646 -0.190951
C274  C     C_R   0.840999 0.478168 0.021924 -0.193739
C275  C     C_R   0.521361 0.841486 0.022445 -0.190851
C276  C     C_R   0.158872 0.521717 0.022039 -0.193849
C277  C     C_R   0.159056 0.022302 0.478713 -0.193298
C278  C     C_R   0.500037 0.000052 0.432956 1.009430
C279  C     C_R   0.476871 0.020357 0.841193 -0.192918
C280  C     C_R   0.841072 0.021663 0.521243 -0.193882
C281  C     C_R   0.527792 0.012221 0.158391 -0.198378
C282  C     C_R   0.158346 0.977865 0.522021 -0.191881
C283  C     C_R   0.469797 0.989717 0.158011 -0.200205
C284  C     C_R   0.841503 0.977517 0.477842 -0.191290
C285  C     C_R   0.523409 0.979587 0.841237 -0.192862
C286  C     C_R   0.510468 0.030048 0.342016 -0.200401
C287  C     C_R   0.521185 0.658799 0.022759 -0.193619
C288  C     C_R   0.520628 0.976763 0.658724 -0.192369
H1    H     H_    0.019047 0.552365 0.828526 0.161320
H2    H     H_    0.172571 0.462847 0.959576 0.170243
H3    H     H_    0.068193 0.927223 0.427642 0.350032
H4    H     H_    0.930665 0.428379 0.927629 0.349590
H5    H     H_    0.928132 0.927913 0.568591 0.349990
H6    H     H_    0.920216 0.555974 0.068373 0.348485
H7    H     H_    0.919962 0.068344 0.444428 0.348539
H8    H     H_    0.551389 0.068054 0.917605 0.347844
H9    H     H_    0.067446 0.455025 0.914725 0.349684
H10   H     H_    0.448727 0.932310 0.917699 0.347771
H11   H     H_    0.932986 0.545345 0.914671 0.349585
H12   H     H_    0.454431 0.067107 0.085206 0.349597
H13   H     H_    0.462088 0.826839 0.960429 0.170308
H14   H     H_    0.932040 0.449021 0.082610 0.347851
H15   H     H_    0.545486 0.932460 0.085012 0.349942
H16   H     H_    0.067551 0.550685 0.082612 0.347803
H17   H     H_    0.068065 0.082512 0.448572 0.347978
H18   H     H_    0.444494 0.079863 0.931382 0.348518
H19   H     H_    0.932295 0.082244 0.551455 0.347956
H20   H     H_    0.572075 0.068873 0.072425 0.349577
H21   H     H_    0.067023 0.914615 0.545551 0.349224
H22   H     H_    0.428978 0.930065 0.072476 0.349614
H23   H     H_    0.932503 0.914952 0.454036 0.350098
H24   H     H_    0.827669 0.537263 0.959388 0.170003
H25   H     H_    0.555763 0.920237 0.931617 0.348421
H26   H     H_    0.570530 0.070313 0.427607 0.349606
H27   H     H_    0.581210 0.568277 0.053632 0.348446
H28   H     H_    0.580196 0.944795 0.568240 0.348437
H29   H     H_    0.581147 0.432158 0.946009 0.348384
H30   H     H_    0.430451 0.928662 0.427791 0.349755
H31   H     H_    0.418811 0.431570 0.054053 0.348399
H32   H     H_    0.419761 0.055045 0.568503 0.348253
H33   H     H_    0.418998 0.568046 0.946099 0.348436
H34   H     H_    0.068778 0.572179 0.428491 0.349816
H35   H     H_    0.462607 0.172274 0.040563 0.169713
H36   H     H_    0.567038 0.953908 0.415122 0.349917
H37   H     H_    0.946926 0.432138 0.418656 0.347934
H38   H     H_    0.432330 0.046097 0.415168 0.349826
H39   H     H_    0.928213 0.572336 0.568657 0.354622
H40   H     H_    0.432420 0.948065 0.582222 0.347871
H41   H     H_    0.046139 0.432464 0.584700 0.350068
H42   H     H_    0.568275 0.051628 0.581990 0.347995
H43   H     H_    0.568338 0.581157 0.946094 0.348408
H44   H     H_    0.953438 0.584508 0.432212 0.350633
H45   H     H_    0.432030 0.580963 0.053778 0.348332
H46   H     H_    0.826554 0.462154 0.039616 0.170556
H47   H     H_    0.069730 0.570932 0.571468 0.354189
H48   H     H_    0.567748 0.418878 0.053833 0.348312
H49   H     H_    0.929616 0.429717 0.572592 0.349671
H50   H     H_    0.431822 0.418823 0.946499 0.348419
H51   H     H_    0.052931 0.418590 0.432151 0.347973
H52   H     H_    0.537378 0.827486 0.040276 0.169956
H53   H     H_    0.173211 0.537655 0.039748 0.170364
H54   H     H_    0.173535 0.039434 0.462124 0.171162
H55   H     H_    0.459513 0.036817 0.827113 0.168427
H56   H     H_    0.826700 0.038661 0.537822 0.170819
H57   H     H_    0.036735 0.172998 0.541038 0.170644
H58   H     H_    0.550634 0.020472 0.171822 0.160710
H59   H     H_    0.172227 0.960601 0.538752 0.169983
H60   H     H_    0.446522 0.981907 0.171092 0.162024
H61   H     H_    0.827508 0.960341 0.461035 0.170600
H62   H     H_    0.540776 0.963094 0.827201 0.168211
H63   H     H_    0.518480 0.053209 0.328927 0.162132
H64   H     H_    0.537365 0.672988 0.040375 0.170617
H65   H     H_    0.536657 0.959050 0.672872 0.170995
H66   H     H_    0.536899 0.327209 0.959698 0.170377
H67   H     H_    0.478969 0.949620 0.328235 0.160878
H68   H     H_    0.035411 0.458488 0.173084 0.170350
H69   H     H_    0.462744 0.326900 0.040904 0.170567
H70   H     H_    0.463322 0.040523 0.672981 0.171053
H71   H     H_    0.463337 0.672909 0.959398 0.170359
H72   H     H_    0.055923 0.670264 0.483840 0.162334
H73   H     H_    0.672322 0.962312 0.459244 0.170552
H74   H     H_    0.961675 0.326771 0.460951 0.169981
H75   H     H_    0.327300 0.037976 0.460919 0.170715
H76   H     H_    0.952421 0.672613 0.523582 0.159923
H77   H     H_    0.326803 0.961687 0.540007 0.170743
H78   H     H_    0.037819 0.327555 0.539995 0.169531
H79   H     H_    0.022943 0.827239 0.452383 0.159382
H80   H     H_    0.673579 0.038455 0.538124 0.170866
H81   H     H_    0.673175 0.537242 0.959141 0.170792
H82   H     H_    0.961966 0.539853 0.327529 0.169271
H83   H     H_    0.327014 0.536608 0.040593 0.170410
H84   H     H_    0.051462 0.520878 0.671202 0.161974
H85   H     H_    0.672863 0.463111 0.040241 0.170507
H86   H     H_    0.948086 0.480293 0.671559 0.160797
H87   H     H_    0.326942 0.462639 0.959677 0.170796
H88   H     H_    0.038117 0.460880 0.326985 0.169654
H89   H     H_    0.958935 0.462404 0.780434 0.142047
H90   H     H_    0.980914 0.448260 0.828589 0.161254
H91   H     H_    0.944865 0.218114 0.500011 0.148867
H92   H     H_    0.944076 0.501059 0.218918 0.149135
H93   H     H_    0.965305 0.779628 0.544437 0.142046
H94   H     H_    0.040748 0.538560 0.780097 0.142195
H95   H     H_    0.047683 0.781140 0.469331 0.141865
H96   H     H_    0.055026 0.499206 0.218428 0.149099
H97   H     H_    0.055859 0.219086 0.500296 0.148979
H98   H     H_    0.444486 0.218229 0.000668 0.153237
H99   H     H_    0.219069 0.555324 0.999228 0.153828
H100  H     H_    0.555596 0.781820 0.000191 0.153271
H101  H     H_    0.983716 0.829952 0.555683 0.163661
H102  H     H_    0.780990 0.444578 0.999022 0.153786
H103  H     H_    0.555532 0.219092 0.000371 0.153454
H104  H     H_    0.781848 0.555408 0.999949 0.153548
H105  H     H_    0.444550 0.780852 0.000277 0.153455
H106  H     H_    0.218085 0.444491 0.000334 0.153514
H107  H     H_    0.218256 0.944857 0.498465 0.148935
H108  H     H_    0.555619 0.001812 0.780845 0.152913
H109  H     H_    0.780872 0.944455 0.501048 0.149355
H110  H     H_    0.459803 0.961105 0.220027 0.142073
H111  H     H_    0.218981 0.055575 0.503326 0.148529
H112  H     H_    0.963591 0.541330 0.172809 0.170483
H113  H     H_    0.535503 0.043307 0.219396 0.142149
H114  H     H_    0.781911 0.055189 0.496145 0.148512
H115  H     H_    0.444576 0.997872 0.781216 0.152993
H116  H     H_    0.456243 0.964887 0.280641 0.142123
H117  H     H_    0.444750 0.718181 0.000063 0.148561
H118  H     H_    0.444578 0.998146 0.718680 0.149692
H119  H     H_    0.444375 0.280937 0.000714 0.148675
H120  H     H_    0.539234 0.039752 0.280010 0.142102
H121  H     H_    0.555389 0.281766 0.000300 0.148545
H122  H     H_    0.555496 0.001396 0.718308 0.149629
H123  H     H_    0.964177 0.173003 0.458784 0.170440
H124  H     H_    0.555764 0.719110 0.000096 0.148713
H125  H     H_    0.969488 0.718961 0.547947 0.142445
H126  H     H_    0.719098 0.055407 0.496080 0.153991
H127  H     H_    0.055683 0.281802 0.500341 0.153146
H128  H     H_    0.281042 0.944789 0.498508 0.154205
H129  H     H_    0.044352 0.720413 0.465412 0.141826
H130  H     H_    0.281831 0.055487 0.503179 0.153712
H131  H     H_    0.944618 0.280778 0.500362 0.153429
H132  H     H_    0.718052 0.944689 0.500825 0.154048
H133  H     H_    0.718187 0.444716 0.999073 0.148844
H134  H     H_    0.537991 0.173389 0.960455 0.170473
H135  H     H_    0.055220 0.499556 0.280936 0.153285
H136  H     H_    0.280923 0.444314 0.000450 0.148921
H137  H     H_    0.962618 0.458831 0.719848 0.141988
H138  H     H_    0.719012 0.555520 0.999904 0.148973
H139  H     H_    0.036948 0.542280 0.719510 0.142230
H140  H     H_    0.281868 0.555122 0.999429 0.148847
H141  H     H_    0.944179 0.501038 0.281481 0.152939
H142  H     H_    0.069398 0.571667 0.927360 0.349636
H143  H     H_    0.080249 0.068414 0.555386 0.348479
H144  H     H_    0.079487 0.443746 0.068832 0.348485
O1    O     O_R   0.971200 0.550890 0.500000 -0.603980
O2    O     O_R   0.500000 0.449110 0.028800 -0.601474
O3    O     O_R   0.564919 0.577162 0.035488 -0.775046
O4    O     O_2   0.550347 0.924239 0.618033 -0.607348
O5    O     O_R   0.564244 0.963252 0.577096 -0.772705
O6    O     O_2   0.551593 0.382286 0.925188 -0.607154
O7    O     O_R   0.564811 0.423193 0.964238 -0.775289
O8    O     O_2   0.471918 0.914020 0.384617 -0.608777
O9    O     O_R   0.441784 0.950305 0.418649 -0.764834
O10   O     O_2   0.448076 0.381847 0.075069 -0.607104
O11   O     O_R   0.435132 0.422733 0.035877 -0.775106
O12   O     O_2   0.449539 0.075446 0.618173 -0.607561
O13   O     O_R   0.449110 0.500000 0.028800 -0.602123
O14   O     O_R   0.435728 0.036574 0.577313 -0.772948
O15   O     O_2   0.448683 0.617895 0.925051 -0.607041
O16   O     O_R   0.435305 0.576961 0.964263 -0.775094
O17   O     O_2   0.087182 0.613730 0.470012 -0.612312
O18   O     O_R   0.048059 0.581583 0.441057 -0.766185
O19   O     O_2   0.616278 0.929451 0.442579 -0.603661
O20   O     O_R   0.576378 0.970524 0.432775 -0.786853
O21   O     O_2   0.926614 0.380676 0.445747 -0.610925
O22   O     O_R   0.964790 0.423584 0.435436 -0.774134
O23   O     O_2   0.383141 0.070499 0.442893 -0.604349
O24   O     O_R   0.500000 0.550890 0.028800 -0.601545
O25   O     O_R   0.423137 0.029525 0.433054 -0.787844
O26   O     O_2   0.914807 0.616518 0.527876 -0.603642
O27   O     O_R   0.950182 0.581321 0.557795 -0.779846
O28   O     O_2   0.381160 0.927074 0.555387 -0.610039
O29   O     O_R   0.423721 0.965697 0.565261 -0.776371
O30   O     O_2   0.070600 0.383333 0.557162 -0.604397
O31   O     O_R   0.029519 0.423231 0.566976 -0.785763
O32   O     O_2   0.619366 0.072729 0.554587 -0.610323
O33   O     O_R   0.576833 0.034093 0.564896 -0.776093
O34   O     O_2   0.618118 0.551938 0.924995 -0.606978
O35   O     O_R   0.449110 0.500000 0.971200 -0.601861
O36   O     O_R   0.577189 0.564833 0.964238 -0.775213
O37   O     O_2   0.929117 0.556829 0.383045 -0.603895
O38   O     O_R   0.970118 0.566856 0.423047 -0.784565
O39   O     O_2   0.382144 0.551296 0.074914 -0.607438
O40   O     O_R   0.423100 0.564655 0.035642 -0.775210
O41   O     O_2   0.085911 0.530229 0.614740 -0.604769
O42   O     O_R   0.048450 0.559014 0.580796 -0.782679
O43   O     O_2   0.617670 0.448389 0.074738 -0.607329
O44   O     O_R   0.576729 0.435218 0.035636 -0.775427
O45   O     O_2   0.913635 0.471029 0.615238 -0.610566
O46   O     O_R   0.500000 0.449110 0.971200 -0.601748
O47   O     O_R   0.950963 0.441562 0.581704 -0.765596
O48   O     O_2   0.382085 0.448063 0.925426 -0.606847
O49   O     O_R   0.422919 0.435112 0.964618 -0.775196
O50   O     O_2   0.073214 0.445810 0.380861 -0.610700
O51   O     O_R   0.035058 0.435341 0.423561 -0.773946
O52   O     O_R   0.550890 0.500000 0.971200 -0.601799
O53   O     O_R   0.500000 0.550890 0.971200 -0.601716
O54   O     O_R   0.500000 0.971200 0.449110 -0.603727
O55   O     O_R   0.449110 0.971200 0.500000 -0.599281
O56   O     O_R   0.500000 0.971200 0.550890 -0.600627
O57   O     O_R   0.971200 0.500000 0.550890 -0.600678
O58   O     O_R   0.550890 0.971200 0.500000 -0.605596
O59   O     O_R   0.500000 0.028800 0.550890 -0.600704
O60   O     O_R   0.449110 0.028800 0.500000 -0.605518
O61   O     O_R   0.500000 0.028800 0.449110 -0.604981
O62   O     O_R   0.550890 0.028800 0.500000 -0.599855
O63   O     O_R   0.471200 0.050890 0.000000 -0.605739
O64   O     O_R   0.471200 1.000000 0.050890 -0.604974
O65   O     O_R   0.471200 0.949110 0.000000 -0.599929
O66   O     O_R   0.471200 1.000000 0.949110 -0.601179
O67   O     O_R   0.528800 0.949110 0.000000 -0.605528
O68   O     O_R   0.971200 0.449110 0.500000 -0.598374
O69   O     O_R   0.528800 1.000000 0.050890 -0.603967
O70   O     O_R   0.528800 0.050890 0.000000 -0.599025
O71   O     O_R   0.528800 1.000000 0.949110 -0.601424
O72   O     O_R   0.050890 1.000000 0.528800 -0.605190
O73   O     O_R   1.000000 0.949110 0.528800 -0.606025
O74   O     O_R   0.949110 1.000000 0.528800 -0.599727
O75   O     O_R   1.000000 0.050890 0.528800 -0.600443
O76   O     O_R   0.949110 1.000000 0.471200 -0.604955
O77   O     O_R   0.000000 0.949110 0.471200 -0.602359
O78   O     O_R   0.050890 1.000000 0.471200 -0.597580
O79   O     O_R   0.971200 0.500000 0.449110 -0.604283
O80   O     O_R   1.000000 0.050890 0.471200 -0.600769
O81   O     O_R   0.000000 0.471200 0.949110 -0.604299
O82   O     O_R   0.949110 0.471200 0.000000 -0.599474
O83   O     O_R   0.000000 0.471200 0.050890 -0.600581
O84   O     O_R   0.050890 0.471200 0.000000 -0.605566
O85   O     O_R   0.000000 0.528800 0.050890 -0.600735
O86   O     O_R   0.949110 0.528800 0.000000 -0.605678
O87   O     O_R   1.000000 0.528800 0.949110 -0.604193
O88   O     O_R   0.050890 0.528800 0.000000 -0.599653
O89   O     O_2   0.027380 0.586820 0.885031 -0.609616
O90   O     O_R   0.028800 0.449110 0.500000 -0.604711
O91   O     O_R   0.058013 0.550127 0.918189 -0.764166
O92   O     O_2   0.050274 0.117939 0.575769 -0.607415
O93   O     O_R   0.064388 0.077289 0.536862 -0.773400
O94   O     O_2   0.048803 0.423475 0.118249 -0.607567
O95   O     O_R   0.063777 0.462438 0.077626 -0.771868
O96   O     O_2   0.026610 0.883302 0.414769 -0.607681
O97   O     O_R   0.057504 0.918336 0.449644 -0.764192
O98   O     O_2   0.972739 0.413473 0.885138 -0.609502
O99   O     O_R   0.942028 0.449975 0.918414 -0.764285
O100  O     O_2   0.969827 0.886495 0.586774 -0.610677
O101  O     O_R   0.028800 0.500000 0.550890 -0.605571
O102  O     O_R   0.940679 0.918473 0.547920 -0.766075
O103  O     O_2   0.950509 0.576270 0.117786 -0.607373
O104  O     O_R   0.935885 0.537300 0.077288 -0.772043
O105  O     O_2   0.950404 0.117990 0.423974 -0.607387
O106  O     O_R   0.935873 0.077219 0.462955 -0.773374
O107  O     O_2   0.572388 0.119404 0.944093 -0.610353
O108  O     O_R   0.533903 0.076602 0.934821 -0.775996
O109  O     O_2   0.116751 0.430349 0.941855 -0.604082
O110  O     O_R   0.076652 0.471372 0.932693 -0.787867
O111  O     O_2   0.427608 0.880954 0.944409 -0.610362
O112  O     O_R   0.028800 0.550890 0.500000 -0.603461
O113  O     O_R   0.466207 0.923668 0.934832 -0.776025
O114  O     O_2   0.883609 0.569940 0.941857 -0.604208
O115  O     O_R   0.923682 0.528908 0.932624 -0.788207
O116  O     O_2   0.429863 0.116451 0.058061 -0.604285
O117  O     O_R   0.470925 0.076399 0.067278 -0.788318
O118  O     O_2   0.880685 0.427885 0.056078 -0.610208
O119  O     O_R   0.923469 0.466412 0.065337 -0.777070
O120  O     O_2   0.570032 0.883181 0.057831 -0.604004
O121  O     O_R   0.529016 0.923262 0.067131 -0.787189
O122  O     O_2   0.118967 0.571963 0.055980 -0.610275
O123  O     O_R   0.028800 0.500000 0.449110 -0.598730
O124  O     O_R   0.076215 0.533343 0.065375 -0.777018
O125  O     O_2   0.119415 0.055837 0.427944 -0.606976
O126  O     O_R   0.076621 0.065400 0.466128 -0.777405
O127  O     O_2   0.424057 0.049842 0.881888 -0.610502
O128  O     O_R   0.463068 0.064010 0.922560 -0.771509
O129  O     O_2   0.880986 0.054902 0.572198 -0.607431
O130  O     O_R   0.923628 0.065208 0.533864 -0.777002
O131  O     O_2   0.586384 0.027144 0.115391 -0.608986
O132  O     O_R   0.550289 0.057748 0.081556 -0.764281
O133  O     O_2   0.116162 0.942335 0.570392 -0.602246
O134  O     O_R   0.550890 0.500000 0.028800 -0.602134
O135  O     O_R   0.076374 0.932572 0.529133 -0.789736
O136  O     O_2   0.412915 0.971931 0.114546 -0.610002
O137  O     O_R   0.450334 0.941783 0.081729 -0.764830
O138  O     O_2   0.883406 0.942502 0.429413 -0.601168
O139  O     O_R   0.923259 0.932711 0.470535 -0.786593
O140  O     O_2   0.576267 0.950333 0.881966 -0.610611
O141  O     O_R   0.537174 0.936047 0.922764 -0.771610
O142  O     O_2   0.528838 0.086676 0.385418 -0.609935
O143  O     O_R   0.558605 0.049096 0.418364 -0.765369
O144  O     O_2   0.551930 0.617962 0.074633 -0.606913
Zn1   Zn    Zn3+2 0.961560 0.500000 0.500000 1.078480
Zn2   Zn    Zn3+2 1.000000 1.000000 0.461560 1.077564
Zn3   Zn    Zn3+2 0.000000 0.461560 0.000000 1.076410
Zn4   Zn    Zn3+2 0.000000 0.538440 0.000000 1.076438
Zn5   Zn    Zn3+2 0.038440 0.500000 0.500000 1.078052
Zn6   Zn    Zn3+2 0.500000 0.500000 0.038440 1.075478
Zn7   Zn    Zn3+2 0.500000 0.500000 0.961560 1.075647
Zn8   Zn    Zn3+2 0.500000 0.961560 0.500000 1.076618
Zn9   Zn    Zn3+2 0.500000 0.038440 0.500000 1.076261
Zn10  Zn    Zn3+2 0.461560 0.000000 0.000000 1.076086
Zn11  Zn    Zn3+2 0.538440 0.000000 0.000000 1.076199
Zn12  Zn    Zn3+2 1.000000 1.000000 0.538440 1.076941

loop_
_geom_bond_atom_site_label_1
_geom_bond_atom_site_label_2
_ccdc_geom_bond_type
C100  C153  A    
C185  C233  S    
C116  H126  S    
O54   Zn8   S    
O70   Zn11  S    
C174  C222  S    
C17   C48   A    
C56   C220  A    
C232  C285  A    
C117  C133  A    
C188  O7    S    
H51   O51   S    
O57   Zn1   S    
H9    O110  S    
H17   O126  S    
C160  O92   D    
C200  O31   S    
C181  O135  S    
C58   C217  A    
C57   C59   S    
C115  C136  A    
H7    O106  S    
C25   H88   S    
C67   C240  A    
C288  H65   S    
C16   H80   S    
C85   C155  A    
H26   O143  S    
C104  C148  A    
C35   O70   A    
C111  C142  A    
C177  C226  S    
C89   C114  A    
H16   O124  S    
C36   C148  S    
C100  H111  S    
O13   Zn6   S    
C159  O89   D    
C16   C44   A    
H4    O99   S    
C176  O126  S    
C113  O75   A    
C70   C247  A    
C21   C48   A    
C118  C141  A    
C279  H55   S    
C42   C137  S    
O56   Zn8   S    
C192  O12   D    
C30   C269  A    
O85   Zn4   S    
C31   C276  A    
C53   C113  S    
C80   C121  A    
C22   C257  A    
H49   O47   S    
H50   O49   S    
C65   C278  S    
C245  O2    A    
C205  O39   D    
C135  O86   A    
C60   C219  A    
C198  O27   S    
C30   C149  S    
C63   C227  A    
C15   C249  A    
C88   H99   S    
C282  H59   S    
C1    O112  A    
C284  H61   S    
H22   O137  S    
C77   C112  S    
H39   O27   S    
C36   C279  A    
C128  H138  S    
H23   O139  S    
C200  C249  S    
C233  C286  A    
O134  Zn6   S    
H33   O16   S    
C198  C247  S    
C18   H82   S    
O53   Zn7   S    
H36   O20   S    
C206  O42   S    
C280  H56   S    
C37   C284  A    
C160  O93   S    
C38   C283  A    
H30   O9    S    
C169  O109  D    
C69   C245  S    
C62   C232  A    
C34   C282  A    
C271  H13   S    
C268  H123  S    
C75   C252  A    
C130  C138  A    
C177  O127  D    
O58   Zn8   S    
O46   Zn7   S    
C34   C153  S    
C54   C214  A    
C57   O65   A    
C97   H108  S    
C220  C273  A    
C1    O1    A    
C119  C136  A    
O73   Zn12  S    
C68   O66   A    
C85   H96   S    
C182  O137  S    
H48   O44   S    
H32   O14   S    
C50   C138  S    
C197  O25   S    
C183  O139  S    
C12   C247  A    
C47   C141  S    
C45   C133  S    
C1    C70   S    
C62   C68   S    
C13   O59   A    
C84   H95   S    
H27   O3    S    
C103  C116  A    
C102  C145  A    
C179  C261  A    
C15   H78   S    
C106  C139  A    
C199  O28   D    
C76   C258  A    
C165  O103  D    
C84   C119  A    
O63   Zn10  S    
C26   C158  S    
C109  C144  A    
C68   O71   A    
C90   O73   A    
C37   C280  A    
C212  O90   A    
C92   H103  S    
O52   Zn7   S    
C210  C259  S    
C30   C273  A    
C196  O22   S    
C256  O13   A    
C33   C274  A    
C46   C64   S    
C92   C149  A    
C32   C271  A    
C202  O33   S    
C124  O87   A    
C208  O45   D    
C223  O123  A    
C131  H141  S    
C104  C107  A    
C66   C267  S    
C217  C270  A    
C18   C49   A    
C228  C281  A    
C186  O3    S    
C52   C124  S    
C19   C50   A    
C19   H83   S    
C215  C268  A    
C60   C221  A    
C272  H24   S    
C74   C251  A    
O2    Zn6   S    
C160  C179  S    
C32   C147  S    
C211  C264  A    
C2    O55   A    
C195  O19   D    
C82   C115  A    
C83   C129  A    
C55   C90   S    
C188  O6    D    
C108  C137  A    
C192  C240  S    
O35   Zn7   S    
C55   C201  A    
C213  C265  A    
C24   O62   A    
O74   Zn12  S    
C95   H106  S    
C200  O30   D    
C38   C281  A    
C182  C230  S    
C101  O74   A    
H20   O132  S    
C86   H97   S    
H25   O141  S    
C72   C249  A    
C86   C117  A    
C227  C280  A    
C207  O43   D    
C172  C220  S    
C174  O121  S    
C166  C215  S    
C191  O10   D    
H38   O25   S    
C99   C145  A    
H10   O113  S    
C125  H135  S    
C57   O67   A    
C91   C123  A    
O1    Zn1   S    
C122  C143  A    
C31   C270  A    
C53   C179  A    
H34   O18   S    
C79   O78   A    
C164  O100  D    
C5    H69   S    
O55   Zn8   S    
C111  H122  S    
C67   C236  A    
H29   O7    S    
C48   C140  S    
C165  O104  S    
C171  O114  D    
C223  O79   A    
C194  O17   D    
C46   O69   A    
O82   Zn3   S    
C266  H112  S    
C166  O105  D    
C103  H114  S    
C180  O132  S    
C59   C222  A    
C117  H127  S    
H19   O130  S    
C210  O51   S    
O78   Zn2   S    
C99   H110  S    
C118  H128  S    
C170  O111  D    
C278  O54   A    
C93   H104  S    
C276  H53   S    
C119  H129  S    
C10   C45   A    
C170  O113  S    
C283  H60   S    
O65   Zn10  S    
C208  O47   S    
C173  O119  S    
C162  O96   D    
C178  C227  S    
C89   H100  S    
C199  C248  S    
C115  H125  S    
C203  C251  S    
C75   C259  A    
O59   Zn9   S    
H12   O117  S    
C65   C238  A    
C74   C234  S    
H14   O119  S    
C275  H52   S    
C9    C243  A    
C183  C231  S    
C216  C269  A    
C199  O29   S    
C205  C253  S    
C63   C231  A    
C176  O125  D    
C89   C147  A    
C195  C243  S    
C277  H54   S    
H8    O108  S    
C208  C257  S    
C54   C190  A    
C202  C250  S    
C35   C56   S    
C193  C241  S    
C120  C141  A    
C74   C255  A    
C161  C190  S    
C102  C109  A    
C58   C157  S    
O67   Zn11  S    
C55   C213  A    
C20   C254  A    
O112  Zn5   S    
C66   C241  A    
C46   O64   A    
C81   C155  A    
C66   C235  A    
C129  C132  A    
C128  C140  A    
C93   C128  A    
C41   C142  S    
C106  H117  S    
C202  O32   D    
C64   C230  A    
C95   C126  A    
C92   C110  A    
C269  H134  S    
C61   C79   S    
C44   C143  S    
C2    C73   S    
O81   Zn3   S    
C226  C279  A    
C43   C136  S    
C76   C256  S    
C56   C216  A    
C81   H92   S    
O24   Zn6   S    
C25   C259  A    
C178  O129  D    
O71   Zn11  S    
C39   C144  S    
C212  O68   A    
C20   H84   S    
C4    C238  A    
C204  O37   D    
C171  C219  S    
H144  O95   S    
C84   C150  A    
H142  O91   S    
C13   O56   A    
C121  H131  S    
C125  C134  A    
C169  C217  S    
C5    C42   A    
C3    C42   A    
C29   C265  A    
C72   C244  A    
C11   C47   A    
C8    C43   A    
C131  C134  A    
C173  C221  S    
C105  C144  A    
C8    H72   S    
C27   C152  S    
O62   Zn9   S    
C88   C156  A    
C65   C233  A    
C90   O77   A    
C20   C51   A    
C98   H109  S    
C186  O144  D    
C285  H62   S    
C97   C111  A    
C182  O136  D    
C203  O36   S    
C101  O76   A    
C78   C127  A    
C287  H64   S    
C94   C147  A    
C197  O23   D    
C95   C156  A    
C222  C275  A    
C188  C237  S    
O87   Zn4   S    
C184  O141  S    
C129  H139  S    
C126  C138  A    
C23   C258  A    
H11   O115  S    
C28   C155  S    
C61   C229  A    
O64   Zn10  S    
H143  O93   S    
C187  C236  S    
C193  O16   S    
C103  C151  A    
H5    O102  S    
C54   C146  S    
C278  O61   A    
C79   O72   A    
C53   C215  A    
C3    H66   S    
C36   C285  A    
C189  C238  S    
C31   C156  S    
C191  O11   S    
C98   C151  A    
C224  C276  A    
H43   O36   S    
C273  H35   S    
C24   O58   A    
C214  C266  A    
H42   O33   S    
C123  H133  S    
C157  O88   A    
C10   C244  A    
C91   C154  A    
H18   O128  S    
O76   Zn2   S    
C94   H105  S    
C58   C224  A    
C23   C50   A    
C73   C246  A    
C62   C226  A    
C230  C283  A    
C17   C251  A    
C163  O98   D    
C171  O115  S    
C14   H77   S    
C192  O14   S    
C21   C255  A    
C96   C153  A    
C274  H46   S    
C96   H107  S    
C245  O46   A    
C17   H81   S    
C221  C274  A    
C14   C47   A    
O75   Zn12  S    
C87   H98   S    
H6    O104  S    
C34   C277  A    
O80   Zn2   S    
H31   O11   S    
O79   Zn1   S    
C33   C272  A    
C162  O97   S    
C4    H67   S    
C9    H73   S    
C112  O57   A    
C96   C118  A    
C209  O48   D    
C260  H1    S    
C234  O134  A    
C21   H85   S    
C5    C239  A    
C194  O18   S    
C107  H118  S    
C110  C137  A    
C205  O40   S    
H47   O42   S    
C59   C218  A    
C270  H2    S    
C51   C132  S    
C203  O34   D    
C167  O108  S    
C40   C287  A    
C120  H130  S    
C168  C260  A    
C71   C243  A    
C32   C275  A    
O90   Zn5   S    
C11   H75   S    
C104  H115  S    
C164  O102  S    
C209  C258  S    
C83   C158  A    
C229  C282  A    
C28   C262  A    
C114  H124  S    
C187  O4    D    
C180  C228  S    
C87   C149  A    
C206  O41   D    
C25   C49   A    
C81   C131  A    
C169  O110  S    
C185  O142  D    
C12   H76   S    
C172  O116  D    
O69   Zn11  S    
C177  O128  S    
C52   C168  A    
H45   O40   S    
C262  H68   S    
C265  H101  S    
C49   C134  S    
C82   H93   S    
O60   Zn9   S    
C108  H119  S    
C85   C125  A    
C88   C130  A    
C63   C101  S    
C175  O124  S    
C146  O83   A    
C73   C248  A    
C176  C225  S    
C281  H58   S    
C196  C244  S    
O68   Zn1   S    
C2    O60   A    
C93   C154  A    
H15   O121  S    
C124  O81   A    
C12   C43   A    
C86   C152  A    
O72   Zn12  S    
C10   H74   S    
C35   O63   A    
C26   C264  A    
C198  O26   D    
C166  O106  S    
C83   H94   S    
C27   C261  A    
C40   C139  S    
C197  C246  S    
C28   C266  A    
C159  C168  S    
C219  C272  A    
C22   H86   S    
C207  C255  S    
C267  O24   A    
C135  O82   A    
C29   C150  S    
C127  C132  A    
C87   C108  A    
C27   C268  A    
C181  C229  S    
C196  O21   D    
C6    C41   A    
C52   C211  A    
C235  C287  A    
C175  C224  S    
O66   Zn10  S    
C236  C288  A    
C127  H137  S    
C41   C288  A    
C173  O118  D    
C71   C250  A    
C172  O117  S    
O86   Zn4   S    
H41   O31   S    
C75   C223  S    
O123  Zn5   S    
C185  O143  S    
C91   H102  S    
C7    C241  A    
C167  C216  S    
C37   C151  S    
C19   C253  A    
C14   C248  A    
C6    H70   S    
C39   C286  A    
C191  C239  S    
C99   C105  A    
C234  O52   A    
C78   C158  A    
C162  C201  S    
C195  O20   S    
C184  O140  D    
C231  C284  A    
C184  C232  S    
C18   C252  A    
C163  C211  S    
C33   C154  S    
C189  O8    D    
C6    C240  A    
C123  C140  A    
C61   C225  A    
O101  Zn5   S    
C80   H91   S    
C16   C250  A    
C38   C145  S    
C286  H63   S    
C181  O133  D    
C11   C246  A    
C116  C143  A    
C69   C239  A    
C4    C39   A    
C8    C242  A    
C7    C40   A    
C26   C260  A    
C163  O99   S    
C114  C139  A    
C161  O95   S    
C107  C142  A    
C76   C253  A    
C60   C135  S    
C207  O44   S    
C82   C150  A    
C174  O120  D    
C3    C237  A    
C100  C120  A    
C178  O130  S    
O88   Zn4   S    
C126  H136  S    
C102  H113  S    
C23   H87   S    
H37   O22   S    
C161  O94   D    
C97   C148  A    
C157  O84   A    
C15   C45   A    
C159  O91   S    
C206  C254  S    
C204  O38   S    
C64   C228  A    
C175  O122  D    
C122  H132  S    
C146  O85   A    
C187  O5    S    
C186  C235  S    
C13   C67   S    
C183  O138  D    
H28   O5    S    
C80   C152  A    
C78   H89   S    
C112  O101  A    
C94   C106  A    
C9    C44   A    
C225  C277  A    
C194  C242  S    
O83   Zn3   S    
C77   C254  A    
C201  C263  A    
C130  H140  S    
O84   Zn3   S    
H40   O29   S    
C164  C213  S    
C218  C271  A    
C190  C262  A    
O61   Zn9   S    
C180  O131  D    
C113  O80   A    
C7    H71   S    
C70   C242  A    
C210  O50   D    
C264  H90   S    
C72   C212  S    
C209  O49   S    
O77   Zn2   S    
C189  O9    S    
C29   C263  A    
C263  H79   S    
H21   O135  S    
C261  H57   S    
C204  C252  S    
H44   O38   S    
C165  C214  S    
C109  H120  S    
C98   C122  A    
C267  O53   A    
H3    O97   S    
C110  H121  S    
C167  O107  D    
C256  O35   A    
C77   C257  A    
C121  C133  A    
C105  H116  S    
C69   C237  A    
C193  O15   D    
C24   C71   S    
C22   C51   A    
C170  C218  S    
