data_mof_unit_52232.cif
_audit_creation_date              2012-12-11T16:25:19-0500
_audit_creation_method            fapswitch 2.2
_symmetry_space_group_name_H-M    P1
_symmetry_Int_Tables_number       1
_space_group_crystal_system       triclinic
_cell_length_a                    22.498655
_cell_length_b                    30.629816
_cell_length_c                    19.060823
_cell_angle_alpha                 89.604649
_cell_angle_beta                  127.194586
_cell_angle_gamma                 90.735752
_cell_volume                      10462.6035283

loop_
_atom_site_label
_atom_site_type_symbol
_atom_type_description
_atom_site_fract_x
_atom_site_fract_y
_atom_site_fract_z
_atom_type_partial_charge
C1    C     C_R   0.949349 0.618955 0.071120 0.514003
C2    C     C_R   0.059207 0.385788 0.928038 0.467891
C3    C     C_R   0.047225 0.621282 0.929394 0.510786
C4    C     C_R   0.927222 0.395321 0.070767 0.499973
C5    C     C_R   0.449764 0.118791 0.071649 0.517121
C6    C     C_R   0.562667 0.887321 0.928786 0.485402
C7    C     C_R   0.548704 0.120559 0.929215 0.515532
C8    C     C_R   0.426395 0.896761 0.071193 0.510742
C9    C     C_R   0.976825 0.499625 0.632387 -0.171570
C10   C     C_R   0.116449 0.496533 0.444811 -0.172267
C11   C     C_R   0.548420 0.959640 0.675311 -0.165015
C12   C     C_R   0.610423 0.037608 0.436769 -0.166692
C13   C     C_R   0.977118 0.492197 0.561627 -0.098207
C14   C     C_R   0.116997 0.491851 0.517744 -0.075943
C15   C     C_R   0.577838 0.957869 0.628987 -0.062067
C16   C     C_R   0.620447 0.037201 0.516663 -0.075696
C17   C     C_R   0.046696 0.491186 0.576153 -0.053171
C18   C     C_R   0.047702 0.490294 0.504222 -0.057939
C19   C     C_R   0.598870 0.997255 0.610018 -0.066746
C20   C     C_R   0.612551 0.997111 0.547591 -0.067358
C21   C     C_R   0.114908 0.494469 0.662396 -0.072196
C22   C     C_R   0.979152 0.491194 0.418293 -0.093638
C23   C     C_R   0.596173 0.037430 0.644090 -0.068354
C24   C     C_R   0.607690 0.957385 0.507163 -0.068409
C25   C     C_R   0.909079 0.487505 0.476519 0.419422
C26   C     C_R   0.184906 0.490797 0.603613 0.372402
C27   C     C_R   0.581230 0.917667 0.595811 0.344757
C28   C     C_R   0.628899 0.076587 0.560138 0.357214
C29   C     C_R   0.910223 0.488539 0.404424 0.471799
C30   C     C_R   0.183899 0.493426 0.676190 0.462932
C31   C     C_R   0.599424 0.917318 0.537574 0.469151
C32   C     C_R   0.617128 0.076650 0.624509 0.470517
C33   C     C_R   0.688235 0.315514 0.919693 -0.160623
C34   C     C_R   0.211992 0.748398 0.082415 -0.152854
C35   C     C_R   0.296995 0.308497 0.074303 -0.132951
C36   C     C_R   0.780754 0.742591 0.921187 -0.183300
C37   C     C_R   0.188944 0.816022 0.925413 -0.181358
C38   C     C_R   0.710550 0.247982 0.077850 -0.161931
C39   C     C_R   0.787488 0.797905 0.074355 -0.174887
C40   C     C_R   0.276359 0.239139 0.919726 -0.187709
C41   C     C_R   0.739775 0.339848 0.917873 -0.212127
C42   C     C_R   0.189065 0.705954 0.080514 -0.202136
C43   C     C_R   0.244255 0.329500 0.076956 -0.218330
C44   C     C_R   0.804932 0.701351 0.920749 -0.194506
C45   C     C_R   0.239118 0.840760 0.921456 -0.208373
C46   C     C_R   0.688001 0.205927 0.078628 -0.216165
C47   C     C_R   0.733750 0.819851 0.074078 -0.202257
C48   C     C_R   0.302432 0.198457 0.921576 -0.210125
C49   C     C_R   0.795759 0.363658 0.992387 0.112417
C50   C     C_R   0.115556 0.692860 0.014160 0.098290
C51   C     C_R   0.183189 0.349042 0.000847 0.097646
C52   C     C_R   0.877638 0.688781 0.989302 0.105233
C53   C     C_R   0.294678 0.865546 0.994437 0.121821
C54   C     C_R   0.615211 0.192169 0.011794 0.113822
C55   C     C_R   0.686278 0.848889 0.005809 0.144004
C56   C     C_R   0.376071 0.187729 0.989396 0.121365
C57   C     C_R   0.794408 0.366800 0.064777 -0.264072
C58   C     C_R   0.062634 0.724140 0.956722 -0.324803
C59   C     C_R   0.179590 0.351145 0.924736 -0.241132
C60   C     C_R   0.928817 0.719548 0.052099 -0.319428
C61   C     C_R   0.293786 0.869234 0.067227 -0.297823
C62   C     C_R   0.562261 0.222437 0.950558 -0.340236
C63   C     C_R   0.697733 0.859101 0.942849 -0.325659
C64   C     C_R   0.425991 0.219426 0.050387 -0.348384
C65   C     C_R   0.853386 0.397678 0.923793 -0.272373
C66   C     C_R   0.118322 0.620198 0.075798 -0.220011
C67   C     C_R   0.134973 0.387914 0.074335 -0.270586
C68   C     C_R   0.878064 0.618443 0.923993 -0.202967
C69   C     C_R   0.352639 0.898506 0.924233 -0.271056
C70   C     C_R   0.618573 0.120103 0.075636 -0.220673
C71   C     C_R   0.636081 0.888614 0.075302 -0.276525
C72   C     C_R   0.377967 0.118265 0.924256 -0.212931
C73   C     C_R   0.742783 0.342684 0.066989 0.482606
C74   C     C_R   0.085652 0.766814 0.956906 0.491297
C75   C     C_R   0.231632 0.330109 0.920710 0.477206
C76   C     C_R   0.904589 0.761082 0.052934 0.494172
C77   C     C_R   0.243169 0.844681 0.071460 0.490145
C78   C     C_R   0.585018 0.264844 0.948430 0.488961
C79   C     C_R   0.753605 0.838311 0.944795 0.487424
C80   C     C_R   0.400226 0.260977 0.048634 0.542807
C81   C     C_R   0.692455 0.314676 0.996094 -0.008711
C82   C     C_R   0.161848 0.778184 0.017406 -0.001198
C83   C     C_R   0.288809 0.306431 0.995269 -0.012814
C84   C     C_R   0.829062 0.771411 0.990332 0.012563
C85   C     C_R   0.193794 0.815795 0.002316 0.007152
C86   C     C_R   0.660592 0.276735 0.010023 -0.002922
C87   C     C_R   0.794859 0.805507 0.007325 0.031558
C88   C     C_R   0.323886 0.269878 0.985164 -0.026881
C89   C     C_R   0.455218 0.540388 0.353357 0.549387
C90   C     C_R   0.568492 0.466634 0.509579 0.533640
C91   C     C_R   0.625367 0.519640 0.469174 0.575821
C92   C     C_R   0.447145 0.464373 0.310101 0.562687
C93   C     C_R   0.954958 0.042320 0.378109 0.542862
C94   C     C_R   0.080105 0.963821 0.496759 0.528664
C95   C     C_R   0.123624 0.031013 0.470418 0.577049
C96   C     C_R   0.947724 0.976411 0.301312 0.586900
C97   C     C_R   0.377686 0.541450 0.302779 -0.388939
C98   C     C_R   0.632684 0.467726 0.596159 -0.378099
C99   C     C_R   0.687221 0.522722 0.558027 -0.406065
C100  C     C_R   0.370045 0.465462 0.263500 -0.312496
C101  C     C_R   0.877845 0.041155 0.330495 -0.393138
C102  C     C_R   0.145169 0.962957 0.582794 -0.384615
C103  C     C_R   0.186514 0.031068 0.558800 -0.389957
C104  C     C_R   0.871066 0.974100 0.258922 -0.338494
C105  C     C_R   0.335565 0.503053 0.264394 0.028392
C106  C     C_R   0.689949 0.497283 0.621128 0.045058
C107  C     C_R   0.836572 0.005605 0.275799 0.025997
C108  C     C_R   0.195623 0.997970 0.615568 0.051479
C109  C     C_R   0.490186 0.500676 0.362588 -0.155010
C110  C     C_R   0.564069 0.493473 0.445992 -0.149570
C111  C     C_R   0.990463 0.008425 0.367174 -0.150140
C112  C     C_R   0.067678 0.999233 0.441807 -0.141671
C113  C     C_R   0.795134 0.536095 0.760409 -0.134628
C114  C     C_R   0.212539 0.464769 0.207410 -0.139373
C115  C     C_R   0.210847 0.537594 0.203016 -0.128065
C116  C     C_R   0.795143 0.463289 0.761080 -0.163888
C117  C     C_R   0.296710 0.036116 0.758892 -0.133144
C118  C     C_R   0.713251 0.965125 0.210360 -0.145146
C119  C     C_R   0.710835 0.038054 0.207252 -0.136959
C120  C     C_R   0.296972 0.963391 0.759031 -0.156540
C121  C     C_R   0.037553 0.463819 0.239959 -0.095655
C122  C     C_R   0.012302 0.537132 0.803322 -0.133320
C123  C     C_R   0.013473 0.464593 0.803855 -0.177821
C124  C     C_R   0.036511 0.536517 0.239068 -0.128545
C125  C     C_R   0.545344 0.963846 0.243638 -0.049819
C126  C     C_R   0.494973 0.036495 0.783382 -0.139843
C127  C     C_R   0.495093 0.963767 0.784144 -0.166061
C128  C     C_R   0.544429 0.036116 0.243531 -0.139004
C129  C     C_R   0.897682 0.643072 0.995565 -0.093365
C130  C     C_R   0.125690 0.370170 0.001435 0.003584
C131  C     C_R   0.097167 0.646122 0.005208 -0.084469
C132  C     C_R   0.856480 0.384295 0.995697 -0.029159
C133  C     C_R   0.397813 0.142656 0.996164 -0.089241
C134  C     C_R   0.628439 0.871494 0.003280 -0.012525
C135  C     C_R   0.597912 0.145548 0.004663 -0.089915
C136  C     C_R   0.355334 0.885880 0.996528 -0.041421
C137  C     C_R   0.754174 0.499289 0.713089 0.126482
C138  C     C_R   0.256554 0.501860 0.227991 0.119250
C139  C     C_R   0.257297 0.999425 0.709311 0.126520
C140  C     C_R   0.757064 0.002682 0.234608 0.122223
C141  C     C_R   0.046070 0.500109 0.286283 -0.007563
C142  C     C_R   0.037242 0.501503 0.785586 0.024658
C143  C     C_R   0.560018 0.999780 0.295312 0.010491
C144  C     C_R   0.509879 0.000134 0.753437 0.039548
C145  C     C_R   0.112221 0.499414 0.732909 -0.156440
C146  C     C_R   0.980864 0.496168 0.347695 -0.133217
C147  C     C_R   0.567454 0.037993 0.691746 -0.175647
C148  C     C_R   0.599874 0.958789 0.429108 -0.164247
C149  C     C_R   0.043399 0.501733 0.716344 0.083329
C150  C     C_R   0.048669 0.499016 0.361815 0.079780
C151  C     C_R   0.541478 0.999465 0.705130 0.081697
C152  C     C_R   0.593781 0.998802 0.389514 0.081764
H1    H     H_    0.738943 0.337367 0.860681 0.133028
H2    H     H_    0.230229 0.682508 0.126959 0.139010
H3    H     H_    0.249410 0.328359 0.137169 0.134822
H4    H     H_    0.765177 0.678231 0.870653 0.134888
H5    H     H_    0.237785 0.837830 0.863965 0.132230
H6    H     H_    0.729095 0.183167 0.127455 0.139635
H7    H     H_    0.726710 0.812458 0.124316 0.130794
H8    H     H_    0.263467 0.174315 0.873632 0.137318
H9    H     H_    0.835031 0.386633 0.121389 0.179736
H10   H     H_    0.004790 0.714795 0.907712 0.190424
H11   H     H_    0.134976 0.368088 0.866383 0.181901
H12   H     H_    0.986442 0.711039 0.102449 0.195211
H13   H     H_    0.334302 0.889606 0.122790 0.188049
H14   H     H_    0.504972 0.212424 0.900654 0.186408
H15   H     H_    0.663022 0.882891 0.891824 0.149531
H16   H     H_    0.483733 0.211568 0.101677 0.187054
H17   H     H_    0.351734 0.571570 0.299782 0.149414
H18   H     H_    0.636276 0.446880 0.644767 0.158468
H19   H     H_    0.732856 0.544830 0.577791 0.150153
H20   H     H_    0.337952 0.436055 0.230334 0.156975
H21   H     H_    0.851148 0.066699 0.340975 0.151728
H22   H     H_    0.153560 0.936289 0.625463 0.152429
H23   H     H_    0.226751 0.057555 0.583418 0.147483
H24   H     H_    0.838760 0.947472 0.213672 0.161084
H25   H     H_    0.806846 0.393825 0.855278 0.138280
H26   H     H_    0.146854 0.631490 0.142770 0.148177
H27   H     H_    0.175392 0.378014 0.141691 0.124264
H28   H     H_    0.847164 0.629562 0.856574 0.146085
H29   H     H_    0.305697 0.894962 0.855733 0.138263
H30   H     H_    0.646752 0.131675 0.142360 0.146897
H31   H     H_    0.676538 0.878869 0.142806 0.129027
H32   H     H_    0.346604 0.129385 0.856784 0.144979
H33   H     H_    0.784604 0.569317 0.736363 0.106292
H34   H     H_    0.232287 0.431873 0.224333 0.096067
H35   H     H_    0.226281 0.571547 0.208660 0.101531
H36   H     H_    0.785280 0.430262 0.736259 0.098505
H37   H     H_    0.287202 0.069483 0.735816 0.102296
H38   H     H_    0.733909 0.932365 0.227420 0.100056
H39   H     H_    0.726340 0.072133 0.214803 0.105691
H40   H     H_    0.288724 0.930354 0.734756 0.098383
H41   H     H_    0.050322 0.430958 0.264907 0.149691
H42   H     H_    0.011951 0.569977 0.784297 0.146338
H43   H     H_    0.015829 0.431909 0.785683 0.163044
H44   H     H_    0.047980 0.569784 0.262124 0.156505
H45   H     H_    0.564651 0.931248 0.266974 0.120515
H46   H     H_    0.494082 0.069711 0.765651 0.145699
H47   H     H_    0.496174 0.930438 0.769111 0.158758
H48   H     H_    0.560950 0.069299 0.266261 0.143212
H49   H     H_    0.162525 0.501453 0.800204 0.153954
H50   H     H_    0.929720 0.497908 0.280952 0.153943
H51   H     H_    0.562906 0.068653 0.715683 0.147697
H52   H     H_    0.589157 0.928633 0.394302 0.150792
H53   H     H_    0.924760 0.502850 0.623661 0.139318
H54   H     H_    0.167735 0.499177 0.451514 0.148468
H55   H     H_    0.528427 0.929794 0.685039 0.152977
H56   H     H_    0.608741 0.068467 0.407896 0.139265
H57   H     H_    0.650310 0.293838 0.865054 0.164989
H58   H     H_    0.270719 0.756618 0.129200 0.166839
H59   H     H_    0.339419 0.289840 0.131483 0.172176
H60   H     H_    0.722350 0.750345 0.872629 0.146924
H61   H     H_    0.151251 0.793783 0.871818 0.162776
H62   H     H_    0.768985 0.256628 0.125468 0.171262
H63   H     H_    0.819202 0.772466 0.122692 0.152054
H64   H     H_    0.217203 0.245008 0.871612 0.182495
N1    N     N_R   0.963040 0.582050 0.045950 -0.087952
N2    N     N_R   0.036960 0.417950 0.954050 -0.105003
N3    N     N_R   0.036960 0.582050 0.954050 -0.083728
N4    N     N_R   0.963040 0.417950 0.045950 -0.106467
N5    N     N_R   0.463040 0.082050 0.045950 -0.087072
N6    N     N_R   0.536960 0.917950 0.954050 -0.108461
N7    N     N_R   0.536960 0.082050 0.954050 -0.086389
N8    N     N_R   0.463040 0.917950 0.045950 -0.105044
N9    N     N_R   0.917940 0.418000 0.954160 -0.075147
N10   N     N_R   0.082060 0.582000 0.045840 -0.065678
N11   N     N_R   0.082060 0.418000 0.045840 -0.062198
N12   N     N_R   0.917940 0.582000 0.954160 -0.066691
N13   N     N_R   0.417940 0.918000 0.954160 -0.074651
N14   N     N_R   0.582060 0.082000 0.045840 -0.065672
N15   N     N_R   0.582060 0.918000 0.045840 -0.062115
N16   N     N_R   0.417940 0.082000 0.954160 -0.066308
N17   N     N_R   0.858490 0.522630 0.835610 -0.037415
N18   N     N_R   0.141510 0.477370 0.164390 -0.040450
N19   N     N_R   0.141510 0.522630 0.164390 -0.038288
N20   N     N_R   0.858490 0.477370 0.835610 -0.040703
N21   N     N_R   0.358490 0.022630 0.835610 -0.037310
N22   N     N_R   0.641510 0.977370 0.164390 -0.040984
N23   N     N_R   0.641510 0.022630 0.164390 -0.038734
N24   N     N_R   0.358490 0.977370 0.835610 -0.039707
N25   N     N_R   0.022480 0.477420 0.164500 -0.050724
N26   N     N_R   0.977520 0.522580 0.835500 -0.034537
N27   N     N_R   0.977520 0.477420 0.835500 -0.050667
N28   N     N_R   0.022480 0.522580 0.164500 -0.044764
N29   N     N_R   0.522480 0.977420 0.164500 -0.051954
N30   N     N_R   0.477520 0.022580 0.835500 -0.033599
N31   N     N_R   0.477520 0.977420 0.835500 -0.046800
N32   N     N_R   0.522480 0.022580 0.164500 -0.046609
Ni1   Ni    Ni4+2 0.051820 0.551870 0.104030 0.237771
Ni2   Ni    Ni4+2 0.948180 0.448130 0.895970 0.184412
Ni3   Ni    Ni4+2 0.948180 0.551870 0.895970 0.243747
Ni4   Ni    Ni4+2 0.051820 0.448130 0.104030 0.191160
Ni5   Ni    Ni4+2 0.551820 0.051870 0.104030 0.231323
Ni6   Ni    Ni4+2 0.448180 0.948130 0.895970 0.187076
Ni7   Ni    Ni4+2 0.448180 0.051870 0.895970 0.241080
Ni8   Ni    Ni4+2 0.551820 0.948130 0.104030 0.190312
O1    O     O_3   0.994561 0.634599 0.156315 -0.651876
C153  C     C_3   0.950648 0.640178 0.185824 0.196530
H65   H     H_    0.929885 0.608016 0.190957 0.098390
H66   H     H_    0.901826 0.661525 0.141312 0.111075
C154  C     C_3   0.998083 0.661451 0.276379 -0.839218
H67   H     H_    0.018166 0.694034 0.272457 0.266665
H68   H     H_    0.964307 0.665583 0.300571 0.212336
H69   H     H_    0.046867 0.640767 0.323718 0.247673
O2    O     O_3   0.016646 0.364792 0.846930 -0.657447
C155  C     C_3   0.940465 0.363987 0.811483 0.256436
H70   H     H_    0.916803 0.397303 0.793716 0.099880
H71   H     H_    0.932554 0.349016 0.858811 0.102117
C156  C     C_3   0.897178 0.336715 0.727773 -0.896430
H72   H     H_    0.918652 0.302840 0.742679 0.264851
H73   H     H_    0.837135 0.335800 0.699344 0.207687
H74   H     H_    0.903100 0.351243 0.678693 0.254630
O3    O     O_3   0.998990 0.637527 0.844692 -0.649203
C157  C     C_3   0.040236 0.652870 0.815202 0.211729
H75   H     H_    0.083664 0.629332 0.829456 0.076746
H76   H     H_    0.068839 0.684276 0.846147 0.126645
C158  C     C_3   0.987038 0.660409 0.716221 -0.855805
H77   H     H_    0.945243 0.685311 0.700818 0.262551
H78   H     H_    0.018755 0.672238 0.692287 0.213827
H79   H     H_    0.957488 0.629587 0.681423 0.246884
O4    O     O_3   0.959483 0.378761 0.153954 -0.657198
C159  C     C_3   0.021309 0.353174 0.179051 0.240445
H80   H     H_    0.066836 0.373945 0.188945 0.089889
H81   H     H_    0.004942 0.327691 0.128587 0.098187
C160  C     C_3   0.051176 0.330138 0.265325 -0.885519
H82   H     H_    0.007117 0.308685 0.256982 0.266847
H83   H     H_    0.099772 0.309876 0.285608 0.210847
H84   H     H_    0.069146 0.354455 0.317826 0.245976
O5    O     O_3   0.496750 0.134867 0.156380 -0.652309
C161  C     C_3   0.455585 0.139318 0.189689 0.173603
H85   H     H_    0.436993 0.106716 0.196386 0.102771
H86   H     H_    0.405693 0.160201 0.146763 0.113345
C162  C     C_3   0.504984 0.160604 0.280183 -0.809254
H87   H     H_    0.522879 0.193652 0.274910 0.254630
H88   H     H_    0.473576 0.163668 0.307678 0.221919
H89   H     H_    0.555152 0.140502 0.325606 0.249702
O6    O     O_3   0.522861 0.866559 0.847766 -0.663094
C163  C     C_3   0.448135 0.859620 0.815766 0.237519
H90   H     H_    0.418639 0.891053 0.801322 0.102862
H91   H     H_    0.445646 0.840666 0.864093 0.105311
C164  C     C_3   0.407147 0.833710 0.730451 -0.896575
H92   H     H_    0.434957 0.801920 0.742091 0.264654
H93   H     H_    0.348571 0.827564 0.705313 0.216402
H94   H     H_    0.406971 0.852383 0.680161 0.257151
O7    O     O_3   0.503674 0.136076 0.843774 -0.649854
C165  C     C_3   0.548953 0.148766 0.818228 0.187854
H95   H     H_    0.584914 0.121506 0.826331 0.073970
H96   H     H_    0.586231 0.176744 0.857110 0.120642
C166  C     C_3   0.499280 0.162618 0.722027 -0.817176
H97   H     H_    0.464765 0.190802 0.713186 0.256442
H98   H     H_    0.534283 0.172426 0.701363 0.238949
H99   H     H_    0.461947 0.135252 0.679594 0.242922
O8    O     O_3   0.457698 0.882705 0.155691 -0.650150
C167  C     C_3   0.512945 0.851717 0.179514 0.213369
H100  H     H_    0.561118 0.867502 0.186393 0.087481
H101  H     H_    0.489926 0.824926 0.129831 0.100332
C168  C     C_3   0.540844 0.831349 0.267432 -0.831213
H102  H     H_    0.493856 0.815060 0.262083 0.271051
H103  H     H_    0.584039 0.806729 0.286529 0.200202
H104  H     H_    0.565662 0.856785 0.319412 0.254691
O9    O     O_3   0.751108 0.340821 0.144858 -0.631876
C169  C     C_3   0.691143 0.362612 0.133692 0.266471
H105  H     H_    0.636064 0.351535 0.073976 0.081545
H106  H     H_    0.696805 0.398401 0.128742 0.080654
C170  C     C_3   0.692617 0.353176 0.212969 -0.929684
H107  H     H_    0.749368 0.359350 0.274425 0.269636
H108  H     H_    0.652518 0.374542 0.211458 0.209399
H109  H     H_    0.677425 0.318443 0.212107 0.252531
O10   O     O_3   0.035904 0.794904 0.889782 -0.629397
C171  C     C_3   0.014466 0.827084 0.923017 0.276876
H110  H     H_    0.058648 0.835490 0.993611 0.062484
H111  H     H_    0.964051 0.815355 0.915699 0.096187
C172  C     C_3   0.995524 0.868742 0.869837 -0.922153
H112  H     H_    0.948533 0.862582 0.799570 0.264125
H113  H     H_    0.979266 0.894457 0.895870 0.208965
H114  H     H_    0.044943 0.880429 0.874907 0.257646
O11   O     O_3   0.215000 0.325594 0.838196 -0.630463
C173  C     C_3   0.273485 0.342151 0.837679 0.280362
H115  H     H_    0.319434 0.318255 0.867223 0.101764
H116  H     H_    0.295756 0.373814 0.873487 0.061094
C174  C     C_3   0.243517 0.349141 0.742409 -0.922652
H117  H     H_    0.197154 0.372903 0.710063 0.248491
H118  H     H_    0.288312 0.361875 0.739539 0.205795
H119  H     H_    0.222506 0.317711 0.705951 0.271212
O12   O     O_3   0.952927 0.789948 0.119669 -0.619122
C175  C     C_3   0.987900 0.815279 0.091747 0.263086
H120  H     H_    0.946199 0.830530 0.026298 0.076726
H121  H     H_    0.026731 0.794875 0.088335 0.089953
C176  C     C_3   0.032334 0.851878 0.157298 -0.898603
H122  H     H_    0.076818 0.838070 0.222830 0.265501
H123  H     H_    0.058178 0.872944 0.134584 0.203011
H124  H     H_    0.994595 0.871938 0.162798 0.270483
O13   O     O_3   0.249961 0.843514 0.148553 -0.623707
C177  C     C_3   0.221027 0.882392 0.155730 0.256081
H125  H     H_    0.160821 0.885626 0.099410 0.074256
H126  H     H_    0.252216 0.911620 0.158211 0.091423
C178  C     C_3   0.228592 0.881103 0.240562 -0.847717
H127  H     H_    0.288446 0.879784 0.298152 0.269150
H128  H     H_    0.203735 0.910833 0.245684 0.198680
H129  H     H_    0.199331 0.851828 0.241239 0.258648
O14   O     O_3   0.536350 0.292611 0.879797 -0.630836
C179  C     C_3   0.488604 0.311267 0.895844 0.271760
H130  H     H_    0.519628 0.322189 0.965318 0.076425
H131  H     H_    0.444390 0.287412 0.880248 0.100978
C180  C     C_3   0.452121 0.351331 0.837876 -0.910985
H132  H     H_    0.415043 0.341609 0.767404 0.260372
H133  H     H_    0.418852 0.368179 0.854689 0.200661
H134  H     H_    0.495580 0.374396 0.848986 0.262583
O15   O     O_3   0.762471 0.846227 0.880106 -0.651937
C181  C     C_3   0.798413 0.887139 0.896673 0.248542
H135  H     H_    0.852602 0.888210 0.964027 0.095813
H136  H     H_    0.762526 0.914156 0.889688 0.089271
C182  C     C_3   0.814189 0.894630 0.830359 -0.955750
H137  H     H_    0.761123 0.898131 0.763115 0.230266
H138  H     H_    0.847889 0.924965 0.847245 0.217593
H139  H     H_    0.845476 0.866640 0.831241 0.271779
O16   O     O_3   0.445734 0.289731 0.117528 -0.649853
C183  C     C_3   0.500258 0.308315 0.111419 0.283708
H140  H     H_    0.514903 0.287635 0.076028 0.056152
H141  H     H_    0.552271 0.312576 0.179392 0.138490
C184  C     C_3   0.475216 0.353199 0.068612 -1.018047
H142  H     H_    0.459073 0.373446 0.102573 0.280294
H143  H     H_    0.521147 0.369969 0.072551 0.227389
H144  H     H_    0.426705 0.349790 0.998457 0.231603
O17   O     O_3   0.497356 0.577604 0.396788 -0.582987
C185  C     C_3   0.497985 0.585888 0.470056 0.269524
H145  H     H_    0.515625 0.556655 0.513174 0.053934
H146  H     H_    0.442020 0.596334 0.448357 0.087065
C186  C     C_3   0.553761 0.622413 0.524792 -0.831616
H147  H     H_    0.537717 0.652510 0.484501 0.257727
H148  H     H_    0.554766 0.629353 0.582609 0.197504
H149  H     H_    0.610476 0.612591 0.548450 0.256306
O18   O     O_3   0.510401 0.438665 0.486593 -0.585347
C187  C     C_3   0.469128 0.457249 0.512309 0.271627
H150  H     H_    0.448365 0.490144 0.482636 0.059003
H151  H     H_    0.503463 0.459769 0.585318 0.087908
C188  C     C_3   0.401566 0.428331 0.479814 -0.852768
H152  H     H_    0.419906 0.395403 0.509926 0.257273
H153  H     H_    0.367848 0.442970 0.498221 0.201079
H154  H     H_    0.366243 0.425165 0.406995 0.254946
O19   O     O_3   0.620670 0.545147 0.405723 -0.597952
C189  C     C_3   0.676501 0.532567 0.397662 0.263040
H155  H     H_    0.679676 0.496367 0.395389 0.089706
H156  H     H_    0.731813 0.545848 0.453359 0.128348
C190  C     C_3   0.658262 0.550825 0.312384 -0.820288
H157  H     H_    0.655937 0.587017 0.312592 0.254840
H158  H     H_    0.701997 0.541163 0.305612 0.247997
H159  H     H_    0.603502 0.537748 0.255364 0.235305
O20   O     O_3   0.479798 0.424685 0.319368 -0.584329
C191  C     C_3   0.517916 0.427524 0.281938 0.254620
H160  H     H_    0.558247 0.455401 0.309003 0.087471
H161  H     H_    0.477316 0.431050 0.209143 0.086095
C192  C     C_3   0.561700 0.385875 0.302759 -0.858299
H162  H     H_    0.523258 0.357188 0.275353 0.279975
H163  H     H_    0.591620 0.387528 0.273310 0.200853
H164  H     H_    0.603180 0.382020 0.375194 0.257127
O21   O     O_3   0.996174 0.076147 0.436705 -0.583797
C193  C     C_3   0.000499 0.070184 0.513229 0.271150
H165  H     H_    0.021796 0.037220 0.542237 0.054351
H166  H     H_    0.945000 0.074824 0.498490 0.081352
C194  C     C_3   0.054638 0.103737 0.581919 -0.848916
H167  H     H_    0.034959 0.137242 0.556003 0.257238
H168  H     H_    0.058494 0.099473 0.642454 0.195488
H169  H     H_    0.110934 0.099451 0.598908 0.256910
O22   O     O_3   0.028102 0.930249 0.466197 -0.582862
C195  C     C_3   0.987768 0.935199 0.500471 0.273289
H170  H     H_    0.961947 0.968019 0.484970 0.054293
H171  H     H_    0.024471 0.930134 0.573040 0.083821
C196  C     C_3   0.925128 0.901338 0.458444 -0.849347
H172  H     H_    0.948611 0.867963 0.473304 0.258001
H173  H     H_    0.892930 0.904871 0.484843 0.195273
H174  H     H_    0.886885 0.905983 0.385918 0.254592
O23   O     O_3   0.110690 0.065217 0.415057 -0.588056
C197  C     C_3   0.164646 0.064884 0.399576 0.253921
H175  H     H_    0.171742 0.031536 0.382611 0.077336
H176  H     H_    0.219297 0.077226 0.458262 0.101947
C198  C     C_3   0.139395 0.094758 0.322327 -0.872744
H177  H     H_    0.132832 0.128555 0.337289 0.264744
H178  H     H_    0.181518 0.094990 0.309651 0.206543
H179  H     H_    0.085178 0.082955 0.262343 0.245280
O24   O     O_3   0.981069 0.942924 0.288511 -0.590001
C199  C     C_3   0.021052 0.959639 0.258364 0.254481
H180  H     H_    0.027513 0.995938 0.261119 0.075694
H181  H     H_    0.990661 0.950040 0.188324 0.096515
C200  C     C_3   0.098525 0.939716 0.311892 -0.872664
H182  H     H_    0.094489 0.903620 0.312535 0.278557
H183  H     H_    0.127091 0.949116 0.282677 0.199850
H184  H     H_    0.132476 0.951614 0.380843 0.238028
O25   O     O_3   0.840421 0.487859 0.461385 -0.624400
C201  C     C_3   0.829238 0.449303 0.494051 0.241584
H185  H     H_    0.800755 0.458555 0.523120 0.109696
H186  H     H_    0.881457 0.432282 0.546853 0.086626
C202  C     C_3   0.779274 0.417108 0.419725 -0.956725
H187  H     H_    0.811359 0.402387 0.399325 0.242046
H188  H     H_    0.760902 0.390616 0.442958 0.230066
H189  H     H_    0.729288 0.433721 0.362795 0.267987
O26   O     O_3   0.253043 0.491231 0.617943 -0.589600
C203  C     C_3   0.269589 0.448371 0.607617 0.279400
H190  H     H_    0.240952 0.441103 0.536861 0.087021
H191  H     H_    0.252598 0.422906 0.634580 0.061580
C204  C     C_3   0.353265 0.444767 0.655679 -0.881100
H192  H     H_    0.383508 0.450523 0.727256 0.260448
H193  H     H_    0.366695 0.411611 0.646075 0.210510
H194  H     H_    0.372136 0.469292 0.629607 0.254121
O27   O     O_3   0.553571 0.879651 0.606584 -0.598475
C205  C     C_3   0.610406 0.859774 0.686818 0.294282
H195  H     H_    0.637498 0.883248 0.742768 0.097820
H196  H     H_    0.653209 0.845818 0.682097 0.132164
C206  C     C_3   0.576467 0.822799 0.706102 -0.809422
H197  H     H_    0.548602 0.798701 0.651405 0.250915
H198  H     H_    0.620687 0.806042 0.767993 0.223029
H199  H     H_    0.534884 0.836019 0.713588 0.267995
O28   O     O_3   0.637687 0.116196 0.531795 -0.589426
C207  C     C_3   0.712810 0.120950 0.563945 0.276244
H200  H     H_    0.728428 0.095419 0.536689 0.074686
H201  H     H_    0.751378 0.119151 0.637099 0.072580
C208  C     C_3   0.723334 0.165308 0.536308 -0.860055
H202  H     H_    0.709234 0.191657 0.563573 0.264740
H203  H     H_    0.782295 0.169562 0.561531 0.201806
H204  H     H_    0.686636 0.167799 0.463345 0.250059
O29   O     O_3   0.843358 0.491968 0.320819 -0.596156
C209  C     C_3   0.822105 0.450984 0.277984 -0.199003
H205  H     H_    0.766796 0.441889 0.260389 0.175577
H206  H     H_    0.861469 0.423730 0.316908 0.115753
H207  H     H_    0.815768 0.454107 0.215744 0.143570
O30   O     O_3   0.250064 0.501213 0.758942 -0.572509
C210  C     C_3   0.277530 0.461402 0.804857 -0.247659
H208  H     H_    0.301662 0.441743 0.779282 0.156177
H209  H     H_    0.234236 0.442127 0.802840 0.119110
H210  H     H_    0.323154 0.468647 0.875023 0.171405
O31   O     O_3   0.595989 0.878007 0.499795 -0.574866
C211  C     C_3   0.669279 0.865329 0.535273 -0.269946
H211  H     H_    0.666812 0.832389 0.509754 0.186521
H212  H     H_    0.705242 0.863229 0.608389 0.123260
H213  H     H_    0.695307 0.887843 0.514702 0.128826
O32   O     O_3   0.615207 0.116266 0.657573 -0.578127
C212  C     C_3   0.682154 0.121732 0.743371 -0.269441
H214  H     H_    0.680161 0.153399 0.769739 0.170685
H215  H     H_    0.731368 0.122778 0.743080 0.130770
H216  H     H_    0.689369 0.095741 0.788910 0.119053

loop_
_geom_bond_atom_site_label_1
_geom_bond_atom_site_label_2
_ccdc_geom_bond_type
C101  C107  A    
C169  H106  S    
C178  H127  S    
C22   C29   A    
C126  N30   A    
C161  C162  S    
O26   C203  S    
C19   C20   A    
C34   C42   A    
C39   C87   A    
C13   C25   A    
C79   C87   A    
O11   C173  S    
C66   C131  A    
C114  N18   A    
C206  H197  S    
C53   C136  S    
C9    C149  A    
C159  H80   S    
C192  H162  S    
C11   H55   S    
C3    C131  A    
N26   Ni3   S    
C144  C151  S    
C1    C129  A    
C188  H153  S    
C92   C109  A    
C164  H94   S    
C169  C170  S    
N30   Ni7   S    
C116  N20   A    
C91   O19   S    
C25   O25   S    
C157  H75   S    
O22   C195  S    
C107  C140  S    
C9    C13   A    
C105  C138  S    
C146  C150  A    
C11   C15   A    
C12   C16   A    
C124  N28   A    
C193  H166  S    
C81   C86   S    
C97   C105  A    
C204  H193  S    
C83   C88   S    
C117  N21   A    
C192  H163  S    
N27   Ni2   S    
C185  H146  S    
C80   C88   A    
N2    Ni2   S    
C117  C139  A    
C38   H62   S    
C118  C140  A    
C41   C49   A    
C197  H175  S    
N6    Ni6   S    
C25   C29   A    
C171  H110  S    
C27   C31   A    
C71   H31   S    
C28   C32   A    
C72   H32   S    
N28   Ni1   S    
C182  H139  S    
C93   C101  A    
C167  H100  S    
C198  H177  S    
C60   C76   A    
C17   C21   A    
C202  H189  S    
C15   C19   A    
C7    N7    A    
C15   C27   A    
C16   C20   A    
C165  H95   S    
C65   N9    A    
C210  H209  S    
C14   C26   A    
N15   Ni8   S    
C36   H60   S    
C78   O14   S    
C178  H129  S    
C209  H206  S    
C156  H73   S    
C94   O22   S    
C184  H142  S    
C113  C137  A    
C190  H159  S    
C185  C186  S    
C163  H90   S    
C37   C45   A    
C58   H10   S    
N8    Ni8   S    
C39   C47   A    
C198  H179  S    
C40   C48   A    
N20   Ni2   S    
C68   N12   A    
C82   C85   S    
O18   C187  S    
N24   Ni6   S    
C98   C106  A    
C39   H63   S    
C40   C88   A    
C147  H51   S    
O28   C207  S    
C160  H83   S    
C180  H132  S    
C72   C133  A    
O30   C210  S    
C187  H150  S    
N1    N12   A    
C57   H9    S    
C94   C102  A    
C208  H203  S    
C205  H195  S    
N29   N32   A    
C89   C97   A    
C2    N2    A    
C71   N15   A    
C75   O11   S    
O20   C191  S    
C190  H157  S    
C104  C107  A    
C69   H29   S    
C6    N6    A    
C118  N22   A    
N10   Ni1   S    
C201  H186  S    
C176  H122  S    
C100  H20   S    
C12   C152  A    
C101  H21   S    
C111  C112  S    
N14   Ni5   S    
C43   C51   A    
C123  N27   A    
O19   C189  S    
C207  H200  S    
C4    C132  A    
C47   H7    S    
C204  H192  S    
C5    C133  A    
C48   H8    S    
C38   C86   A    
C119  C140  A    
C31   O31   S    
C142  C149  S    
C42   H2    S    
C175  H120  S    
C154  H67   S    
C201  C202  S    
C179  H130  S    
C46   H6    S    
C155  H71   S    
C49   C57   A    
C202  H188  S    
O1    C153  S    
C57   C73   A    
C170  H108  S    
C52   C60   A    
C53   C61   A    
C22   C146  A    
C61   C77   A    
C55   C63   A    
N23   Ni5   S    
C184  H144  S    
C56   C64   A    
C29   O29   S    
C35   C43   A    
N7    N14   A    
C127  C144  A    
N12   Ni3   S    
C44   C52   A    
C63   H15   S    
C77   C85   A    
C158  H77   S    
C40   H64   S    
C200  H182  S    
N16   Ni7   S    
N1    Ni1   S    
C56   C133  S    
C95   C103  A    
C141  C150  S    
O29   C209  S    
C41   H1    S    
C174  H118  S    
C96   C111  A    
N5    Ni5   S    
C203  H190  S    
C44   H4    S    
C45   H5    S    
C10   C14   A    
C180  H134  S    
C198  H178  S    
N32   Ni5   S    
C106  C137  S    
C212  H215  S    
C200  H184  S    
C147  C151  A    
C162  H87   S    
C69   N13   A    
C193  C194  S    
C115  H35   S    
C175  H121  S    
C67   N11   A    
C113  H33   S    
C124  H44   S    
C17   C18   A    
C191  H160  S    
C117  H37   S    
C42   C50   A    
C11   C151  A    
C62   H14   S    
O9    C169  S    
C176  H124  S    
C173  H116  S    
C124  C141  A    
C181  H135  S    
C27   O27   S    
C65   C132  A    
C148  H52   S    
C175  C176  S    
C184  H143  S    
C189  H155  S    
C204  H194  S    
C99   C106  A    
N30   N31   A    
C72   N16   A    
C18   C22   A    
C62   C78   A    
C148  C152  A    
C6    O6    S    
C127  H47   S    
C154  H69   S    
C26   C30   A    
C195  C196  S    
C194  H169  S    
C173  C174  S    
C159  H81   S    
C13   C17   A    
N25   N28   A    
C173  H115  S    
C153  H65   S    
C183  H140  S    
C146  H50   S    
C188  H152  S    
C119  N23   A    
C65   H25   S    
C125  C143  A    
C54   C135  S    
N5    N16   A    
C94   C112  A    
C60   H12   S    
C61   H13   S    
C114  C138  A    
N3    N10   A    
N17   N20   A    
C38   C46   A    
C59   H11   S    
C98   H18   S    
N31   Ni6   S    
C7    O7    S    
C159  C160  S    
O25   C201  S    
C158  H79   S    
C210  H208  S    
C122  C142  A    
C32   O32   S    
C91   C99   A    
C199  H180  S    
C164  H93   S    
N9    Ni2   S    
C8    O8    S    
C8    C136  A    
C157  C158  S    
C125  N29   A    
C93   O21   S    
C76   C84   A    
C71   C134  A    
C115  N19   A    
O13   C177  S    
C113  N17   A    
C58   C74   A    
C194  H167  S    
C171  H111  S    
C172  H112  S    
C52   C129  S    
C91   C110  A    
C47   C55   A    
C122  H42   S    
C116  C137  A    
C162  H89   S    
C95   C112  A    
C182  H138  S    
N4    Ni4   S    
C196  H174  S    
C195  H170  S    
C167  H101  S    
C90   O18   S    
C211  H211  S    
C161  H85   S    
O10   C171  S    
C73   C81   A    
C168  H103  S    
C68   C129  A    
C70   H30   S    
C4    N4    A    
C171  C172  S    
C165  H96   S    
C8    N8    A    
C30   O30   S    
C167  C168  S    
C206  H198  S    
C169  H105  S    
C178  H128  S    
N3    Ni3   S    
C156  H72   S    
C64   C80   A    
C123  H43   S    
C163  H91   S    
C74   C82   A    
C43   H3    S    
C121  H41   S    
C95   O23   S    
C3    O3    S    
C1    O1    S    
C172  H113  S    
C49   C132  S    
C165  C166  S    
C50   C58   A    
C121  C141  A    
C104  H24   S    
C188  H154  S    
C35   C83   A    
C54   C62   A    
C196  H172  S    
C23   C147  A    
C155  C156  S    
C174  H119  S    
C163  C164  S    
C21   C145  A    
C121  N25   A    
C128  H48   S    
C160  H82   S    
C74   O10   S    
C108  C139  S    
C66   H26   S    
C207  H201  S    
C66   N10   A    
C79   O15   S    
C103  H23   S    
N26   N27   A    
C187  H151  S    
C93   C111  A    
C143  C152  S    
C69   C136  A    
C205  H196  S    
C70   C135  A    
C67   C130  A    
C127  N31   A    
N18   N19   A    
C183  H141  S    
N2    N11   A    
C89   O17   S    
N17   Ni3   S    
C207  C208  S    
O17   C185  S    
N22   N23   A    
N21   Ni7   S    
C164  H92   S    
C187  C188  S    
C181  H136  S    
C77   O13   S    
C92   O20   S    
C160  H84   S    
C55   C134  S    
C21   C30   A    
C114  H34   S    
C211  H213  S    
C76   O12   S    
C33   C41   A    
C23   C32   A    
C183  C184  S    
C120  H40   S    
C185  H145  S    
C24   C31   A    
C64   H16   S    
C67   H27   S    
C109  C110  S    
C10   C150  A    
C118  H38   S    
C75   C83   A    
O8    C167  S    
C179  H131  S    
C50   C131  S    
C123  C142  A    
C2    C130  A    
C210  H210  S    
C80   O16   S    
C10   H54   S    
C170  H107  S    
C128  C143  A    
C181  C182  S    
C26   O26   S    
C3    N3    A    
C209  H205  S    
C156  H74   S    
C186  H148  S    
C1    N1    A    
C145  C149  A    
N11   Ni4   S    
C179  C180  S    
C16   C28   A    
C5    N5    A    
C168  H104  S    
O6    C163  S    
C14   C18   A    
C19   C23   A    
C84   C87   S    
O21   C193  S    
O27   C205  S    
C122  N26   A    
C63   C79   A    
C166  H97   S    
C116  H36   S    
C100  C105  A    
C208  H202  S    
C203  H191  S    
O7    C165  S    
C209  H207  S    
C12   H56   S    
C37   C85   A    
C119  H39   S    
O15   C181  S    
C208  H204  S    
C180  H133  S    
C190  H158  S    
C99   H19   S    
C89   C109  A    
C97   H17   S    
C212  H214  S    
C126  C144  A    
C200  H183  S    
N13   Ni6   S    
C35   H59   S    
C33   H57   S    
C96   O24   S    
C20   C24   A    
C203  C204  S    
O31   C211  S    
C102  C108  A    
C103  C108  A    
C34   H58   S    
O2    C155  S    
C157  H76   S    
C78   C86   A    
C201  H185  S    
C125  H45   S    
C194  H168  S    
C46   C54   A    
C202  H187  S    
N25   Ni4   S    
C51   C130  S    
C172  H114  S    
C189  H156  S    
C196  H173  S    
N29   Ni8   S    
C128  N32   A    
C205  C206  S    
N8    N13   A    
C191  C192  S    
C24   C148  A    
N18   Ni4   S    
C154  H68   S    
O4    C159  S    
C2    O2    S    
C68   H28   S    
N22   Ni8   S    
C170  H109  S    
C153  H66   S    
C70   N14   A    
C7    C135  A    
C28   O28   S    
C186  H149  S    
C189  C190  S    
C115  C138  A    
C4    O4    S    
C120  C139  A    
C192  H164  S    
O16   C183  S    
C120  N24   A    
N6    N15   A    
C177  H125  S    
C177  H126  S    
C158  H78   S    
N21   N24   A    
C153  C154  S    
C51   C59   A    
N19   Ni1   S    
C199  H181  S    
C59   C75   A    
C92   C100  A    
O5    C161  S    
C193  H165  S    
C166  H99   S    
C48   C56   A    
C191  H161  S    
C5    O5    S    
C197  H176  S    
C73   O9    S    
C102  H22   S    
C177  C178  S    
C34   C82   A    
O14   C179  S    
C212  H216  S    
C199  C200  S    
C96   C104  A    
C162  H88   S    
C9    H53   S    
C182  H137  S    
C145  H49   S    
C126  H46   S    
O24   C199  S    
C186  H147  S    
C166  H98   S    
C195  H171  S    
C36   C84   A    
O32   C212  S    
C211  H212  S    
N4    N9    A    
C161  H86   S    
C168  H102  S    
C206  H199  S    
C197  C198  S    
C36   C44   A    
C155  H70   S    
C45   C53   A    
C37   H61   S    
N7    Ni7   S    
C6    C134  A    
C176  H123  S    
O23   C197  S    
C174  H117  S    
O12   C175  S    
C33   C81   A    
C90   C98   A    
C90   C110  A    
O3    C157  S    
