data_mof_unit_27020.cif
_audit_creation_date              2012-12-10T18:16:21-0500
_audit_creation_method            fapswitch 2.2
_symmetry_space_group_name_H-M    P1
_symmetry_Int_Tables_number       1
_space_group_crystal_system       triclinic
_cell_length_a                    12.641718
_cell_length_b                    12.943629
_cell_length_c                    27.715877
_cell_angle_alpha                 91.926983
_cell_angle_beta                  103.723941
_cell_angle_gamma                 80.951151
_cell_volume                      4350.80058215

loop_
_atom_site_label
_atom_site_type_symbol
_atom_type_description
_atom_site_fract_x
_atom_site_fract_y
_atom_site_fract_z
_atom_type_partial_charge
C1    C     C_R   0.438196 0.692139 0.496598 0.868528
C2    C     C_R   0.418034 0.487789 0.714379 -0.158079
C3    C     C_R   0.516920 0.496068 0.748756 0.329839
C4    C     C_R   0.508642 0.491992 0.899068 -0.052192
C5    C     C_R   0.499568 0.587722 0.874571 -0.024331
C6    C     C_R   0.485744 0.681549 0.900181 -0.138330
C7    C     C_R   0.523693 0.397555 0.873039 -0.024634
C8    C     C_R   0.507115 0.499888 0.647203 -0.075826
C9    C     C_R   0.494956 0.495350 0.352948 -0.090115
C10   C     C_R   0.471874 0.585547 0.024131 0.044896
C11   C     C_R   0.513248 0.392365 0.024932 0.045269
C12   C     C_R   0.501981 0.500345 0.593940 0.867102
C13   C     C_R   0.490034 0.488447 0.049469 0.070848
C14   C     C_R   0.442073 0.678395 0.049392 -0.214213
C15   C     C_R   0.436937 0.676424 0.098735 -0.140011
C16   C     C_R   0.460303 0.581928 0.124637 -0.023805
C17   C     C_R   0.485649 0.487518 0.100073 -0.052408
C18   C     C_R   0.507435 0.392283 0.126352 -0.020788
C19   C     C_R   0.505872 0.393490 0.176677 0.488642
C20   C     C_R   0.459543 0.579519 0.174944 0.508644
C21   C     C_R   0.587769 0.502286 0.285962 0.260108
C22   C     C_R   0.589559 0.505807 0.336522 -0.229882
C23   C     C_R   0.561883 0.307903 0.506482 0.876693
C24   C     C_R   0.397967 0.480060 0.318364 -0.219607
C25   C     C_R   0.395542 0.475783 0.268017 -0.129990
C26   C     C_R   0.489663 0.486709 0.251746 0.262918
C27   C     C_R   0.483436 0.586841 0.974559 0.045241
C28   C     C_R   0.502220 0.490735 0.949403 0.071427
C29   C     C_R   0.514492 0.393420 0.973931 0.044958
C30   C     C_R   0.478244 0.681344 0.949255 -0.214704
C31   C     C_R   0.532149 0.302471 0.896915 -0.137353
C32   C     C_R   0.535626 0.298279 0.052636 -0.214958
C33   C     C_R   0.532463 0.298478 0.102299 -0.138830
C34   C     C_R   0.498286 0.499022 0.406080 0.873611
C35   C     C_R   0.527323 0.300202 0.946309 -0.213900
C36   C     C_R   0.707599 0.066374 0.578737 0.210482
C37   C     C_R   0.599550 0.198218 0.519152 -0.124207
C38   C     C_R   0.294499 0.843696 0.467244 -0.222113
C39   C     C_R   0.260643 0.951027 0.462744 -0.205436
C40   C     C_R   0.332533 0.020250 0.484957 0.203168
C41   C     C_R   0.441532 0.979135 0.511799 0.064004
C42   C     C_R   0.465160 0.872662 0.524705 0.056676
C43   C     C_R   0.528756 0.038545 0.525686 0.035465
C44   C     C_R   0.624561 0.002002 0.563120 0.148015
C45   C     C_R   0.504395 0.587230 0.824670 0.502990
C46   C     C_R   0.634196 0.902355 0.583479 -0.234784
C47   C     C_R   0.556709 0.837766 0.563773 -0.188190
C48   C     C_R   0.525497 0.130350 0.500646 -0.219761
C49   C     C_R   0.692071 0.166148 0.557450 -0.199069
C50   C     C_R   0.397246 0.803899 0.497652 -0.122854
C51   C     C_R   0.074875 0.401886 0.410461 -0.299603
C52   C     C_R   0.803236 0.619666 0.564501 0.018530
C53   C     C_R   0.907795 0.648082 0.578339 -0.247261
C54   C     C_R   0.986634 0.609168 0.552109 -0.178143
C55   C     C_R   0.960930 0.541439 0.511593 -0.021767
C56   C     C_R   0.528307 0.400660 0.823189 0.503757
C57   C     C_R   0.853263 0.513732 0.498666 0.203236
C58   C     C_R   0.038690 0.497165 0.484110 -0.013910
C59   C     C_R   0.000845 0.448760 0.437956 0.151830
C60   C     C_R   0.891021 0.436955 0.422383 -0.293535
C61   C     C_R   0.828896 0.444177 0.457922 0.174792
C62   C     C_R   0.152812 0.495006 0.501076 -0.054804
C63   C     C_R   0.186507 0.399697 0.429850 0.011607
C64   C     C_R   0.612450 0.506361 0.732652 0.241936
C65   C     C_R   0.606453 0.508639 0.681730 -0.232202
C66   C     C_R   0.412969 0.489495 0.663902 -0.216462
H1    H     H_    0.335308 0.482838 0.638053 0.164572
H2    H     H_    0.542115 0.228922 0.877418 0.190415
H3    H     H_    0.558579 0.222688 0.037520 0.142287
H4    H     H_    0.323934 0.471619 0.330112 0.165897
H5    H     H_    0.550743 0.224396 0.121914 0.189564
H6    H     H_    0.320227 0.464699 0.241437 0.147625
H7    H     H_    0.531819 0.223625 0.961334 0.142203
H8    H     H_    0.749253 0.220098 0.571996 0.155252
H9    H     H_    0.703531 0.871627 0.613074 0.156800
H10   H     H_    0.344874 0.480050 0.727012 0.144106
H11   H     H_    0.461722 0.153286 0.467621 0.180886
H12   H     H_    0.240321 0.791794 0.446933 0.173583
H13   H     H_    0.178463 0.980480 0.441432 0.145634
H14   H     H_    0.568118 0.760627 0.579820 0.155017
H15   H     H_    0.245024 0.365829 0.408692 0.134159
H16   H     H_    0.865274 0.392841 0.388723 0.169978
H17   H     H_    0.046916 0.364645 0.375107 0.147888
H18   H     H_    0.188361 0.532240 0.535155 0.126616
H19   H     H_    0.742390 0.649489 0.585090 0.125506
H20   H     H_    0.480586 0.756020 0.882365 0.189368
H21   H     H_    0.065987 0.635025 0.563282 0.140025
H22   H     H_    0.927564 0.700577 0.609278 0.148543
H23   H     H_    0.665360 0.515738 0.362938 0.176332
H24   H     H_    0.414957 0.749779 0.116587 0.189960
H25   H     H_    0.420315 0.754306 0.031948 0.143012
H26   H     H_    0.470578 0.757021 0.966525 0.142050
H27   H     H_    0.679858 0.516348 0.669232 0.165795
N1    N     N_R   0.518236 0.494568 0.800269 -0.356600
N2    N     N_R   0.483644 0.486358 0.199783 -0.358659
N3    N     N_R   0.222180 0.444690 0.474320 -0.105005
N4    N     N_R   0.776980 0.554780 0.525420 -0.120657
O1    O     O_R   0.366730 0.627160 0.487740 -0.608045
O2    O     O_2   0.436032 0.669374 0.199102 -0.564231
O3    O     O_2   0.542309 0.310867 0.797654 -0.555569
O4    O     O_2   0.527756 0.303068 0.202579 -0.560971
O5    O     O_R   0.544830 0.662520 0.504140 -0.604483
O6    O     O_R   0.410970 0.482310 0.563040 -0.621420
O7    O     O_R   0.589070 0.517670 0.579450 -0.636342
O8    O     O_R   0.455170 0.337480 0.495860 -0.592751
O9    O     O_R   0.633270 0.372840 0.512260 -0.624287
O10   O     O_R   0.410930 0.482330 0.420550 -0.624074
O11   O     O_R   0.589030 0.517690 0.436960 -0.610094
O12   O     O_2   0.494640 0.678332 0.800503 -0.556809
Zn1   Zn    Zn3+2 0.381080 0.476390 0.489050 0.941032
Zn2   Zn    Zn3+2 0.618920 0.523610 0.510950 0.934533
C67   C     C_3   0.721110 0.514213 0.768308 -0.870453
H28   H     H_    0.747088 0.590133 0.762759 0.244216
H29   H     H_    0.717418 0.508851 0.807696 0.244275
H30   H     H_    0.784515 0.449680 0.761162 0.238020
C68   C     C_3   0.810003 0.032412 0.618787 -0.930432
H31   H     H_    0.856870 0.959688 0.607269 0.240552
H32   H     H_    0.865200 0.092861 0.626023 0.245365
H33   H     H_    0.786993 0.018086 0.653954 0.249251
N5    N     N_2   0.290957 0.129404 0.483766 -0.326300
H34   H     H_    0.223898 0.152377 0.454815 0.219520
C69   C     C_3   0.274975 0.172409 0.530850 -0.722471
H35   H     H_    0.246312 0.257886 0.526861 0.246113
H36   H     H_    0.353397 0.159846 0.559774 0.252384
H37   H     H_    0.211834 0.135432 0.542899 0.229705
C70   C     C_3   0.792938 0.341279 0.464219 -0.788160
H38   H     H_    0.707377 0.340434 0.442588 0.249157
H39   H     H_    0.843358 0.274888 0.449430 0.203418
H40   H     H_    0.809317 0.321786 0.504216 0.240235
N6    N     N_2   0.685376 0.511106 0.270069 -0.316196
H41   H     H_    0.687206 0.483496 0.234917 0.231300
C71   C     C_3   0.723648 0.611134 0.279613 -0.756073
H42   H     H_    0.800879 0.609078 0.266882 0.237407
H43   H     H_    0.741714 0.628753 0.319956 0.243923
H44   H     H_    0.660649 0.674176 0.259117 0.269449

loop_
_geom_bond_atom_site_label_1
_geom_bond_atom_site_label_2
_ccdc_geom_bond_type
C10   C27   A    
C58   C62   A    
C21   C26   A    
C8    C66   A    
C70   H38   S    
O1    Zn1   S    
C62   N3    A    
C11   C13   A    
C41   C42   A    
O8    Zn1   S    
C67   H29   S    
C24   H4    S    
C53   C54   A    
C52   C53   A    
C56   N1    A    
C63   H15   S    
O6    Zn1   S    
C5    C6    A    
C34   O10   A    
C47   H14   S    
C28   C29   A    
C12   O7    A    
C54   H21   S    
N4    Zn2   S    
C45   O12   S    
C9    C22   A    
C64   C67   S    
C15   C16   A    
C23   O8    A    
C52   N4    A    
C68   H31   S    
C18   C19   A    
C67   H28   S    
C54   C55   A    
C60   H16   S    
C35   H7    S    
N5    C69   S    
C71   H42   S    
C19   N2    A    
C61   C70   S    
C53   H22   S    
C43   C48   A    
C8    C12   S    
C65   H27   S    
C66   H1    S    
C59   C60   A    
C21   C22   A    
C27   C30   A    
C41   C43   A    
O5    Zn2   S    
C7    C56   A    
C4    C7    A    
C45   N1    A    
C46   H9    S    
C4    C28   A    
C44   C46   A    
O9    Zn2   S    
C31   H2    S    
C14   H25   S    
C7    C31   A    
C51   C63   A    
C24   C25   A    
C12   O6    A    
C30   H26   S    
C10   C14   A    
C39   C40   A    
C16   C17   A    
C38   H12   S    
C70   H40   S    
C58   C59   A    
C23   C37   S    
C23   O9    A    
C5    C45   A    
C63   N3    A    
C60   C61   A    
C39   H13   S    
C48   H11   S    
N6    C71   S    
C43   C44   A    
C37   C49   A    
C16   C20   A    
C57   N4    A    
C17   C18   A    
C25   H6    S    
C37   C48   A    
C42   C50   A    
C40   C41   A    
C40   N5    S    
C20   N2    A    
C11   C32   A    
C55   C57   A    
C9    C34   S    
O10   Zn1   S    
C31   C35   A    
C36   C44   A    
C51   C59   A    
C56   O3    S    
C69   H36   S    
C36   C68   S    
C51   H17   S    
C2    H10   S    
N5    H34   S    
C1    C50   S    
C26   N2    S    
C62   H18   S    
C46   C47   A    
C52   H19   S    
C70   H39   S    
C6    C30   A    
C14   C15   A    
C4    C5    A    
C2    C66   A    
C10   C13   A    
C1    O1    A    
O7    Zn2   S    
O11   Zn2   S    
C9    C24   A    
C57   C61   A    
C32   H3    S    
C38   C50   A    
C29   C35   A    
C6    H20   S    
C68   H33   S    
C13   C17   A    
C34   O11   A    
C64   C65   A    
C69   H37   S    
C2    C3    A    
C25   C26   A    
C32   C33   A    
C15   H24   S    
C19   O4    S    
C38   C39   A    
C20   O2    S    
N3    Zn1   S    
C71   H44   S    
C22   H23   S    
C68   H32   S    
N6    H41   S    
C3    N1    S    
C42   C47   A    
C3    C64   A    
C18   C33   A    
C21   N6    S    
C33   H5    S    
C8    C65   A    
C11   C29   A    
C71   H43   S    
C55   C58   A    
C27   C28   A    
C49   H8    S    
C69   H35   S    
C1    O5    A    
C67   H30   S    
C36   C49   A    
