data_mof_unit_29825.cif
_audit_creation_date              2012-10-26T19:05:08-0400
_audit_creation_method            fapswitch 2.2
_symmetry_space_group_name_H-M    P1
_symmetry_Int_Tables_number       1
_space_group_crystal_system       triclinic
_cell_length_a                    15.883167
_cell_length_b                    10.865398
_cell_length_c                    9.582523
_cell_angle_alpha                 90.316076
_cell_angle_beta                  90.006862
_cell_angle_gamma                 92.541141
_cell_volume                      1652.07096263

loop_
_atom_site_label
_atom_site_type_symbol
_atom_type_description
_atom_site_fract_x
_atom_site_fract_y
_atom_site_fract_z
_atom_type_partial_charge
C1    C     C_R   0.506520 0.263024 0.500448 0.546890
C2    C     C_R   0.541535 0.063423 0.884338 -0.134367
C3    C     C_R   0.499717 0.948744 0.890550 -0.126549
C4    C     C_R   0.340269 0.499665 0.500041 0.554649
C5    C     C_R   0.476707 0.886996 0.767540 -0.098394
C6    C     C_R   0.496086 0.939220 0.635214 0.023165
C7    C     C_R   0.521477 0.064997 0.631351 0.024439
C8    C     C_R   0.513793 0.129139 0.503441 -0.010961
C9    C     C_R   0.501546 0.063074 0.378788 -0.165918
C10   C     C_R   0.494356 0.935896 0.380057 -0.165986
C11   C     C_R   0.491577 0.872183 0.506772 -0.008567
C12   C     C_3   0.948727 0.416200 0.614962 -0.225800
C13   C     C_R   0.611352 0.665073 0.145055 -0.092038
C14   C     C_R   0.665229 0.746292 0.073164 -0.180378
C15   C     C_R   0.665335 0.746027 0.929425 -0.167707
C16   C     C_R   0.495219 0.737550 0.501460 0.535264
C17   C     C_R   0.611437 0.664719 0.856719 -0.085574
C18   C     C_R   0.554642 0.581198 0.925611 0.146710
C19   C     C_R   0.554610 0.581254 0.075293 0.153755
C20   C     C_R   0.448343 0.422302 0.073441 -0.009651
C21   C     C_R   0.448359 0.422339 0.925445 -0.010827
C22   C     C_R   0.659728 0.500507 0.499971 0.535056
C23   C     C_3   0.917199 0.502852 0.500035 0.053087
C24   C     C_3   0.046306 0.415896 0.614561 -0.249409
C25   C     C_3   0.047161 0.455955 0.357364 -0.215245
C26   C     C_3   0.949740 0.458499 0.356682 -0.220878
C27   C     C_1   0.749426 0.501360 0.500027 -0.041851
C28   C     C_3   0.082834 0.503035 0.499712 0.088725
C29   C     C_3   0.095072 0.851461 0.481685 -0.328752
C30   C     C_3   0.954594 0.634830 0.527939 -0.194161
C31   C     C_3   0.052763 0.635337 0.530964 0.056380
C32   C     C_1   0.825004 0.502110 0.500060 -0.078851
C33   C     C_1   0.175063 0.501431 0.499937 -0.045728
C34   C     C_1   0.250594 0.500443 0.500019 -0.031353
C35   C     C_R   0.552405 0.121641 0.756052 -0.098545
Cu1   Cu    Cu3+1 0.499990 0.499990 0.640660 0.906396
Cu2   Cu    Cu3+1 0.500010 0.500010 0.359340 0.920933
H1    H     H_    0.922311 0.320787 0.597202 0.117800
H2    H     H_    0.489634 0.887524 0.280994 0.136401
H3    H     H_    0.406044 0.358608 0.128358 0.113950
H4    H     H_    0.066599 0.320381 0.596228 0.114054
H5    H     H_    0.617482 0.672151 0.255013 0.184155
H6    H     H_    0.707539 0.809564 0.129741 0.113983
H7    H     H_    0.707558 0.809296 0.873482 0.118203
H8    H     H_    0.617071 0.672072 0.746810 0.186810
H9    H     H_    0.406100 0.358623 0.869663 0.121455
H10   H     H_    0.073658 0.512276 0.270022 0.115438
H11   H     H_    0.066200 0.359910 0.338396 0.106106
H12   H     H_    0.070819 0.445621 0.718817 0.103069
H13   H     H_    0.922444 0.364663 0.332523 0.115567
H14   H     H_    0.929235 0.520977 0.272757 0.111160
H15   H     H_    0.074238 0.660523 0.638670 0.128412
H16   H     H_    0.931293 0.669491 0.629767 0.089761
H17   H     H_    0.067886 0.716038 0.332013 0.250128
H18   H     H_    0.127535 0.910123 0.401901 0.144207
H19   H     H_    0.132193 0.859042 0.579884 0.150488
H20   H     H_    0.031048 0.885672 0.499589 0.127013
H21   H     H_    0.926462 0.446849 0.719128 0.114604
H22   H     H_    0.932182 0.698052 0.446199 0.119774
H23   H     H_    0.497570 0.109617 0.279454 0.133215
H24   H     H_    0.586810 0.209656 0.756072 0.146738
H25   H     H_    0.563414 0.108928 0.979252 0.109967
H26   H     H_    0.486722 0.906192 0.990629 0.114359
H27   H     H_    0.441209 0.800744 0.779228 0.152103
N1    N     N_R   0.500800 0.501210 0.147910 -0.242479
N2    N     N_R   0.500820 0.501290 0.852040 -0.249325
N3    N     N_2   0.089513 0.724989 0.433200 -0.517561
O1    O     O_R   0.499990 0.319640 0.618810 -0.509394
O2    O     O_R   0.500000 0.319660 0.381240 -0.503519
O3    O     O_R   0.379430 0.499990 0.618840 -0.496432
O4    O     O_R   0.379440 0.500020 0.381260 -0.490337
O5    O     O_R   0.500000 0.680340 0.618760 -0.534611
O6    O     O_R   0.500010 0.680360 0.381190 -0.522331
O7    O     O_R   0.620560 0.499980 0.618740 -0.518510
O8    O     O_R   0.620570 0.500010 0.381160 -0.512380

loop_
_geom_bond_atom_site_label_1
_geom_bond_atom_site_label_2
_ccdc_geom_bond_type
C2    C35   A    
Cu2   O2    S    
C21   N2    A    
C1    C8    S    
C16   O5    A    
C31   H15   S    
C4    O3    A    
C7    C8    A    
C25   C28   S    
C31   N3    S    
C12   C23   S    
Cu1   Cu2   S    
C17   H8    S    
C15   H7    S    
C26   H13   S    
C30   C31   S    
C20   H3    S    
Cu1   N2    S    
C1    O1    A    
C18   C19   A    
C23   C26   S    
C29   N3    S    
C8    C9    A    
Cu2   N1    S    
C9    C10   A    
C25   H10   S    
C12   H21   S    
Cu2   O8    S    
C13   C14   A    
C24   H4    S    
C22   O8    A    
C13   H5    S    
Cu1   O3    S    
C33   C34   T    
C30   H16   S    
C4    C34   S    
C13   C19   A    
C16   O6    A    
C23   C30   S    
C20   N1    A    
C6    C11   A    
H17   N3    S    
C29   H18   S    
C25   C26   S    
C1    O2    A    
C5    H27   S    
C10   H2    S    
C11   C16   S    
C30   H22   S    
C17   C18   A    
C35   H24   S    
C25   H11   S    
Cu1   O7    S    
C29   H20   S    
C28   C33   S    
C22   C27   S    
Cu2   O4    S    
C22   O7    A    
C21   H9    S    
C24   H12   S    
C15   C17   A    
Cu2   O6    S    
C27   C32   T    
C7    C35   A    
C28   C31   S    
C24   C28   S    
C3    C5    A    
Cu1   O1    S    
C6    C7    A    
C29   H19   S    
C3    H26   S    
C18   N2    A    
C12   C24   S    
C9    H23   S    
C23   C32   S    
C2    C3    A    
C26   H14   S    
C5    C6    A    
C19   N1    A    
C12   H1    S    
C10   C11   A    
Cu1   O5    S    
C20   C21   A    
C14   C15   A    
C4    O4    A    
C2    H25   S    
C14   H6    S    
