data_mof_unit_47981.cif
_audit_creation_date              2012-12-11T14:28:24-0500
_audit_creation_method            fapswitch 2.2
_symmetry_space_group_name_H-M    P1
_symmetry_Int_Tables_number       1
_space_group_crystal_system       triclinic
_cell_length_a                    10.981734
_cell_length_b                    19.064919
_cell_length_c                    18.468555
_cell_angle_alpha                 90.239624
_cell_angle_beta                  90.381346
_cell_angle_gamma                 89.663677
_cell_volume                      3866.49962297

loop_
_atom_site_label
_atom_site_type_symbol
_atom_type_description
_atom_site_fract_x
_atom_site_fract_y
_atom_site_fract_z
_atom_type_partial_charge
Br1   Br    Br    0.574718 0.932423 0.342943 -0.444547
Br2   Br    Br    0.595693 0.949160 0.159194 -0.456569
Br3   Br    Br    0.534620 0.084591 0.661490 -0.436111
Br4   Br    Br    0.518894 0.091688 0.839395 -0.436917
Br5   Br    Br    0.074708 0.432419 0.342943 -0.444545
Br6   Br    Br    0.095712 0.449189 0.159200 -0.456565
Br7   Br    Br    0.034632 0.584584 0.661489 -0.436120
Br8   Br    Br    0.018930 0.591675 0.839379 -0.436911
C1    C     C_R   0.318806 0.969744 0.645932 0.573041
C2    C     C_3   0.205894 0.760594 0.048132 -0.153891
C3    C     C_3   0.131055 0.189660 0.966113 -0.126536
C4    C     C_3   0.514569 0.293075 0.482847 -0.119229
C5    C     C_3   0.524182 0.303161 0.021016 -0.120562
C6    C     C_3   0.563785 0.684146 0.529159 -0.118246
C7    C     C_3   0.631185 0.689700 0.966110 -0.126610
C8    C     C_3   0.138320 0.822334 0.509261 -0.134739
C9    C     C_3   0.156049 0.817416 0.996115 -0.139681
C10   C     C_3   0.197112 0.189811 0.502572 -0.136691
C11   C     C_3   0.208669 0.238872 0.014202 -0.119573
C12   C     C_3   0.638356 0.322330 0.509254 -0.134733
C13   C     C_3   0.214251 0.257878 0.547674 -0.140444
C14   C     C_3   0.656105 0.317419 0.996128 -0.139671
C15   C     C_3   0.697092 0.689801 0.502569 -0.136688
C16   C     C_3   0.708678 0.738959 0.014210 -0.119603
C17   C     C_3   0.147683 0.761763 0.561950 0.057269
C18   C     C_3   0.140224 0.761192 0.938083 0.058634
C19   C     C_3   0.151102 0.235073 0.439497 0.056599
C20   C     C_3   0.101877 0.245396 0.067410 0.059124
C21   C     C_3   0.647691 0.261763 0.561949 0.057268
C22   C     C_3   0.640250 0.261201 0.938087 0.058639
C23   C     C_3   0.651104 0.735074 0.439496 0.056601
C24   C     C_3   0.159623 0.304141 0.974342 -0.097238
C25   C     C_3   0.601875 0.745399 0.067412 0.059135
C26   C     C_3   0.025575 0.732298 0.537154 -0.102870
C27   C     C_3   0.009712 0.746978 0.961305 -0.102123
C28   C     C_3   0.019308 0.229087 0.464737 -0.108908
C29   C     C_3   0.025321 0.195366 0.020900 -0.116368
C30   C     C_3   0.525566 0.232315 0.537158 -0.102875
C31   C     C_3   0.509723 0.247004 0.961306 -0.102104
C32   C     C_3   0.519304 0.729104 0.464731 -0.108907
C33   C     C_3   0.525439 0.695322 0.020892 -0.116356
C34   C     C_3   0.094233 0.687908 0.481105 -0.093998
C35   C     C_3   0.707674 0.277722 0.452537 -0.152798
C36   C     C_3   0.059292 0.690410 0.013141 -0.088579
C37   C     C_3   0.036899 0.296640 0.509471 -0.098366
C38   C     C_3   0.976783 0.260805 0.980903 -0.135656
C39   C     C_3   0.594200 0.187908 0.481112 -0.093989
C40   C     C_3   0.559280 0.190417 0.013134 -0.088573
C41   C     C_3   0.536917 0.796652 0.509470 -0.098360
C42   C     C_3   0.476765 0.760728 0.980902 -0.135710
C43   C     C_3   0.217490 0.716848 0.507180 -0.117104
C44   C     C_3   0.190542 0.704267 0.988778 -0.099818
C45   C     C_3   0.169085 0.302719 0.483565 -0.090762
C46   C     C_3   0.705925 0.260577 0.048139 -0.153882
C47   C     C_3   0.053798 0.309974 0.028253 -0.113656
C48   C     C_3   0.717474 0.216830 0.507183 -0.117076
C49   C     C_3   0.690546 0.204258 0.988774 -0.099770
C50   C     C_3   0.669111 0.802717 0.483569 -0.090764
C51   C     C_3   0.553661 0.809944 0.028264 -0.113700
C52   C     C_3   0.714254 0.757864 0.547677 -0.140443
C53   C     C_3   0.659497 0.804195 0.974359 -0.097186
C54   C     C_3   0.084739 0.748919 0.427294 0.049852
C55   C     C_3   0.075994 0.746788 0.071614 0.044397
C56   C     C_3   0.082717 0.251534 0.572723 0.049583
C57   C     C_R   0.318846 0.969691 0.854034 0.574204
C58   C     C_3   0.082271 0.254639 0.927558 0.054006
C59   C     C_3   0.584734 0.248916 0.427296 0.049848
C60   C     C_3   0.576008 0.246789 0.071616 0.044396
C61   C     C_3   0.582713 0.751535 0.572721 0.049581
C62   C     C_3   0.582264 0.754646 0.927562 0.053996
C63   C     C_R   0.330439 0.990905 0.422231 -0.013954
C64   C     C_R   0.332132 0.992062 0.077164 -0.023487
C65   C     C_R   0.321274 0.004804 0.573955 -0.015724
C66   C     C_R   0.320754 0.005095 0.925781 -0.017354
C67   C     C_R   0.830438 0.490909 0.422233 -0.013954
C68   C     C_R   0.321226 0.029177 0.352743 0.558033
C69   C     C_R   0.832133 0.492076 0.077156 -0.023486
C70   C     C_R   0.821277 0.504807 0.573957 -0.015731
C71   C     C_R   0.820766 0.505109 0.925772 -0.017369
C72   C     C_R   0.554924 0.982730 0.431764 0.170889
C73   C     C_R   0.560332 0.992831 0.068051 0.163085
C74   C     C_R   0.540374 0.031774 0.574042 0.173919
C75   C     C_R   0.535663 0.036239 0.924482 0.176636
C76   C     C_R   0.054922 0.482727 0.431764 0.170886
C77   C     C_R   0.060341 0.492848 0.068050 0.163032
C78   C     C_R   0.040379 0.531770 0.574042 0.173931
C79   C     C_R   0.321374 0.029146 0.147266 0.567641
C80   C     C_R   0.035680 0.536236 0.924474 0.176647
C81   C     C_R   0.660131 0.000245 0.470094 -0.153477
C82   C     C_R   0.661964 0.011637 0.027888 -0.141074
C83   C     C_R   0.652460 0.027104 0.539963 -0.140543
C84   C     C_R   0.649459 0.034293 0.956992 -0.139760
C85   C     C_R   0.160133 0.500237 0.470094 -0.153493
C86   C     C_R   0.161975 0.511645 0.027884 -0.141069
C87   C     C_R   0.152466 0.527096 0.539963 -0.140540
C88   C     C_R   0.149475 0.534288 0.956984 -0.139733
C89   C     C_R   0.433584 0.009940 0.537909 -0.033562
C90   C     C_R   0.818806 0.469745 0.645932 0.573034
C91   C     C_R   0.432829 0.012161 0.961700 -0.029072
C92   C     C_R   0.439529 0.994090 0.463060 -0.032252
C93   C     C_R   0.441734 0.997835 0.036788 -0.039755
C94   C     C_R   0.933586 0.509941 0.537910 -0.033555
C95   C     C_R   0.932842 0.512168 0.961693 -0.029074
C96   C     C_R   0.939529 0.494091 0.463061 -0.032244
C97   C     C_R   0.941742 0.497848 0.036783 -0.039772
C98   C     C_R   0.212425 0.002646 0.531853 -0.017398
C99   C     C_R   0.212492 0.002924 0.967127 -0.010862
C100  C     C_R   0.219684 0.983433 0.458618 -0.007581
C101  C     C_R   0.818848 0.469694 0.854031 0.574189
C102  C     C_R   0.220618 0.984202 0.040161 -0.005921
C103  C     C_R   0.712429 0.502652 0.531856 -0.017406
C104  C     C_R   0.712505 0.502954 0.967116 -0.010846
C105  C     C_R   0.719685 0.483440 0.458621 -0.007591
C106  C     C_R   0.720619 0.484228 0.040149 -0.005914
C107  C     C_R   0.095288 0.011930 0.561954 -0.084449
C108  C     C_R   0.095272 0.014278 0.936732 -0.075386
C109  C     C_R   0.114043 0.959871 0.421902 -0.063797
C110  C     C_R   0.114370 0.962001 0.076159 -0.065936
C111  C     C_R   0.595294 0.511936 0.561959 -0.084428
C112  C     C_R   0.821226 0.529178 0.352744 0.558038
C113  C     C_R   0.595295 0.514321 0.936716 -0.075359
C114  C     C_R   0.614044 0.459876 0.421907 -0.063795
C115  C     C_R   0.614363 0.462025 0.076136 -0.065945
C116  C     C_R   0.991408 0.990815 0.524269 -0.138918
C117  C     C_R   0.990905 0.997753 0.975090 -0.130905
C118  C     C_R   0.001070 0.963613 0.454658 -0.123245
C119  C     C_R   0.000586 0.970722 0.044522 -0.127769
C120  C     C_R   0.491415 0.490815 0.524277 -0.138901
C121  C     C_R   0.490921 0.497788 0.975062 -0.130907
C122  C     C_R   0.501075 0.463615 0.454666 -0.123244
C123  C     C_R   0.821374 0.529148 0.147264 0.567648
C124  C     C_R   0.500587 0.470746 0.044491 -0.127805
C125  C     C_R   0.184055 0.771036 0.636475 0.562886
C126  C     C_R   0.180202 0.770255 0.864255 0.560366
C127  C     C_R   0.184785 0.228433 0.363721 0.560578
C128  C     C_R   0.133680 0.241810 0.143347 0.574879
C129  C     C_R   0.684059 0.271036 0.636476 0.562886
C130  C     C_R   0.680215 0.270259 0.864254 0.560383
C131  C     C_R   0.684785 0.728433 0.363721 0.560580
C132  C     C_R   0.633682 0.741809 0.143347 0.574897
C133  C     C_R   0.542620 0.769280 0.644949 0.537702
C134  C     C_3   0.207663 0.777744 0.452540 -0.152793
C135  C     C_R   0.547081 0.768323 0.853330 0.538424
C136  C     C_R   0.544767 0.231372 0.354485 0.529767
C137  C     C_R   0.540877 0.230065 0.144405 0.536895
C138  C     C_R   0.042625 0.269279 0.644951 0.537698
C139  C     C_R   0.047085 0.268321 0.853327 0.538424
C140  C     C_R   0.044771 0.731374 0.354483 0.529764
C141  C     C_R   0.040877 0.730066 0.144405 0.536892
C142  C     C_3   0.014551 0.793060 0.482849 -0.119239
C143  C     C_3   0.024142 0.803141 0.021008 -0.120590
C144  C     C_3   0.063812 0.184142 0.529167 -0.118241
Cr1   Cr    Cr6+3 0.488160 0.884660 0.750000 1.075575
Cr2   Cr    Cr6+3 0.333410 0.272740 0.250000 1.059649
Cr3   Cr    Cr6+3 0.833410 0.227260 0.750000 1.047143
Cr4   Cr    Cr6+3 0.833410 0.772740 0.250000 1.059640
Cr5   Cr    Cr6+3 0.488160 0.115340 0.250000 1.093527
Cr6   Cr    Cr6+3 0.988160 0.384660 0.750000 1.075581
Cr7   Cr    Cr6+3 0.988160 0.615340 0.250000 1.093538
Cr8   Cr    Cr6+3 0.173480 0.883120 0.750000 1.022721
Cr9   Cr    Cr6+3 0.173480 0.116880 0.250000 1.029079
Cr10  Cr    Cr6+3 0.673480 0.383120 0.750000 1.022727
Cr11  Cr    Cr6+3 0.673480 0.616880 0.250000 1.029077
Cr12  Cr    Cr6+3 0.333410 0.727260 0.750000 1.047147
H1    H     H_    0.160707 0.873685 0.531886 0.147393
H2    H     H_    0.903200 0.003647 0.949705 0.103592
H3    H     H_    0.922388 0.943904 0.426010 0.114619
H4    H     H_    0.920869 0.954940 0.074004 0.119536
H5    H     H_    0.404508 0.492880 0.550523 0.107162
H6    H     H_    0.403225 0.503682 0.949670 0.103600
H7    H     H_    0.422393 0.443905 0.426018 0.114607
H8    H     H_    0.420864 0.454960 0.073963 0.119521
H9    H     H_    0.931080 0.823811 0.470977 0.118156
H10   H     H_    0.949655 0.839165 0.036643 0.129562
H11   H     H_    0.013609 0.138843 0.550580 0.119584
H12   H     H_    0.203343 0.865608 0.980890 0.126557
H13   H     H_    0.169518 0.144059 0.937069 0.123895
H14   H     H_    0.431106 0.323833 0.470977 0.118158
H15   H     H_    0.449701 0.339192 0.036651 0.129565
H16   H     H_    0.513563 0.638848 0.550563 0.119581
H17   H     H_    0.669738 0.644122 0.937072 0.123906
H18   H     H_    0.957254 0.710581 0.574473 0.153994
H19   H     H_    0.931818 0.741259 0.923151 0.148202
H20   H     H_    0.943045 0.216109 0.427537 0.132356
H21   H     H_    0.968639 0.151952 0.041721 0.128628
H22   H     H_    0.457240 0.210611 0.574484 0.153991
H23   H     H_    0.264742 0.146660 0.497349 0.117903
H24   H     H_    0.431819 0.241306 0.923150 0.148188
H25   H     H_    0.443041 0.716139 0.427524 0.132365
H26   H     H_    0.468856 0.651867 0.041709 0.128707
H27   H     H_    0.070519 0.633763 0.465585 0.149161
H28   H     H_    0.014225 0.640062 0.024596 0.139012
H29   H     H_    0.969917 0.340305 0.513959 0.121113
H30   H     H_    0.885794 0.274592 0.960473 0.107277
H31   H     H_    0.570448 0.133766 0.465599 0.149142
H32   H     H_    0.514187 0.140071 0.024580 0.138987
H33   H     H_    0.469949 0.840326 0.513957 0.121124
H34   H     H_    0.302751 0.227945 0.032779 0.114244
H35   H     H_    0.385768 0.774449 0.960455 0.107334
H36   H     H_    0.297548 0.683756 0.520895 0.117882
H37   H     H_    0.260834 0.664911 0.974160 0.121542
H38   H     H_    0.213460 0.351213 0.464310 0.147616
H39   H     H_    0.012424 0.356469 0.053837 0.155717
H40   H     H_    0.797528 0.183731 0.520895 0.117879
H41   H     H_    0.760833 0.164896 0.974155 0.121535
H42   H     H_    0.713501 0.851209 0.464317 0.147594
H43   H     H_    0.512204 0.856410 0.053858 0.155663
H44   H     H_    0.278832 0.798263 0.416046 0.124144
H45   H     H_    0.660792 0.373678 0.531868 0.147359
H46   H     H_    0.283767 0.766595 0.086258 0.123378
H47   H     H_    0.288191 0.272738 0.585655 0.128977
H48   H     H_    0.216738 0.347821 0.954463 0.134407
H49   H     H_    0.778852 0.298224 0.416039 0.124148
H50   H     H_    0.783806 0.266557 0.086269 0.123378
H51   H     H_    0.788200 0.772708 0.585662 0.128980
H52   H     H_    0.716512 0.847919 0.954489 0.134468
H53   H     H_    0.747265 0.995685 0.444375 0.134015
H54   H     H_    0.750584 0.011305 0.052890 0.134922
H55   H     H_    0.732293 0.047467 0.566939 0.137688
H56   H     H_    0.703452 0.365608 0.980919 0.126497
H57   H     H_    0.726882 0.053926 0.927896 0.134371
H58   H     H_    0.247266 0.495674 0.444375 0.134013
H59   H     H_    0.250594 0.511319 0.052888 0.134929
H60   H     H_    0.232303 0.547459 0.566937 0.137687
H61   H     H_    0.226898 0.553915 0.927885 0.134372
H62   H     H_    0.119501 0.937507 0.367953 0.136398
H63   H     H_    0.119456 0.939073 0.129714 0.135481
H64   H     H_    0.083285 0.034505 0.615331 0.144403
H65   H     H_    0.083558 0.036451 0.883244 0.140329
H66   H     H_    0.619500 0.437512 0.367958 0.136407
H67   H     H_    0.764708 0.646642 0.497345 0.117909
H68   H     H_    0.619437 0.439090 0.129689 0.135492
H69   H     H_    0.583293 0.534510 0.615335 0.144405
H70   H     H_    0.583598 0.536499 0.883228 0.140327
H71   H     H_    0.802767 0.728101 0.032800 0.114283
H72   H     H_    0.904498 0.992883 0.550513 0.107164
O1    O     O_R   0.575450 0.828820 0.667950 -0.508143
O2    O     O_R   0.416860 0.942890 0.825320 -0.451386
O3    O     O_R   0.416860 0.057110 0.325320 -0.454444
O4    O     O_R   0.416860 0.057110 0.174680 -0.448028
O5    O     O_R   0.916860 0.442890 0.674680 -0.451681
O6    O     O_R   0.916860 0.442890 0.825320 -0.451386
O7    O     O_R   0.916860 0.557110 0.325320 -0.454437
O8    O     O_R   0.916860 0.557110 0.174680 -0.448016
O9    O     O_R   0.213790 0.953680 0.668330 -0.544754
O10   O     O_R   0.213790 0.953680 0.831670 -0.541237
O11   O     O_R   0.213790 0.046320 0.331670 -0.533987
O12   O     O_R   0.575450 0.828820 0.832050 -0.512618
O13   O     O_R   0.213790 0.046320 0.168330 -0.526347
O14   O     O_R   0.713790 0.453680 0.668330 -0.544752
O15   O     O_R   0.713790 0.453680 0.831670 -0.541223
O16   O     O_R   0.713790 0.546320 0.331670 -0.533988
O17   O     O_R   0.713790 0.546320 0.168330 -0.526357
O18   O     O_R   0.121360 0.817890 0.672660 -0.492540
O19   O     O_R   0.121360 0.817890 0.827340 -0.487418
O20   O     O_R   0.121360 0.182110 0.327340 -0.498628
O21   O     O_R   0.121360 0.182110 0.172660 -0.505842
O22   O     O_R   0.621360 0.317890 0.672660 -0.492532
O23   O     O_R   0.575450 0.171180 0.332050 -0.509472
O24   O     O_R   0.621360 0.317890 0.827340 -0.487416
O25   O     O_R   0.621360 0.682110 0.327340 -0.498628
O26   O     O_R   0.621360 0.682110 0.172660 -0.505857
O27   O     O_R   0.206850 0.711370 0.665820 -0.455930
O28   O     O_R   0.206850 0.711370 0.834180 -0.457569
O29   O     O_R   0.206850 0.288630 0.334180 -0.464555
O30   O     O_R   0.206850 0.288630 0.165820 -0.467567
O31   O     O_R   0.706850 0.211370 0.665820 -0.455935
O32   O     O_R   0.706850 0.211370 0.834180 -0.457560
O33   O     O_R   0.706850 0.788630 0.334180 -0.464550
O34   O     O_R   0.575450 0.171180 0.167950 -0.502898
O35   O     O_R   0.706850 0.788630 0.165820 -0.467565
O36   O     O_R   0.457710 0.733190 0.672630 -0.536084
O37   O     O_R   0.457710 0.733190 0.827370 -0.529936
O38   O     O_R   0.457710 0.266810 0.327370 -0.532085
O39   O     O_R   0.457710 0.266810 0.172630 -0.519454
O40   O     O_R   0.957710 0.233190 0.672630 -0.536088
O41   O     O_R   0.957710 0.233190 0.827370 -0.529936
O42   O     O_R   0.957710 0.766810 0.327370 -0.532085
O43   O     O_R   0.957710 0.766810 0.172630 -0.519471
O44   O     O_3   0.331690 0.831680 0.750000 -0.319430
O45   O     O_R   0.075450 0.328820 0.667950 -0.508142
O46   O     O_3   0.331690 0.168320 0.250000 -0.303163
O47   O     O_3   0.831690 0.331680 0.750000 -0.319440
O48   O     O_3   0.831690 0.668320 0.250000 -0.303161
O49   O     O_R   0.075450 0.328820 0.832050 -0.512600
O50   O     O_R   0.075450 0.671180 0.332050 -0.509476
O51   O     O_R   0.075450 0.671180 0.167950 -0.502888
O52   O     O_R   0.416860 0.942890 0.674680 -0.451686

loop_
_geom_bond_atom_site_label_1
_geom_bond_atom_site_label_2
_ccdc_geom_bond_type
C16   C53   S    
C22   C130  S    
C10   C13   S    
C2    C55   S    
C26   C34   S    
C102  C110  A    
C131  O33   A    
Br6   C77   S    
C56   C144  S    
C42   C51   S    
C39   H31   S    
C137  O39   A    
C52   H51   S    
C54   C134  S    
C138  O40   A    
C64   C93   A    
C27   H19   S    
C136  O38   A    
C44   H37   S    
C3    C29   S    
C29   H21   S    
C105  C114  A    
C38   C47   S    
C53   H52   S    
C134  H44   S    
C17   C125  S    
C109  C118  A    
C17   C26   S    
C111  C120  A    
Cr10  O24   S    
C25   C51   S    
C140  O50   A    
C63   C100  A    
C141  O51   A    
C9    C143  S    
C10   C144  S    
C11   C24   S    
C139  O41   A    
C130  O24   A    
C71   C101  S    
Cr12  O37   S    
Cr4   O43   S    
C118  H3    S    
Cr9   O46   S    
Cr4   O33   S    
C74   C83   A    
C15   C23   S    
C16   C25   S    
C82   C84   A    
C122  H7    S    
C47   H39   S    
C4    C12   S    
C19   C45   S    
Cr7   O48   S    
C103  C105  A    
C86   C88   A    
C138  O45   A    
C73   C82   A    
C71   C104  A    
C91   C93   A    
C110  H63   S    
C99   C102  A    
Cr2   O46   S    
Cr7   O8    S    
C8    C17   S    
C46   H50   S    
C101  O15   A    
C11   H34   S    
C54   C142  S    
C56   C138  S    
C112  O16   A    
Cr2   O38   S    
Cr3   O40   S    
C123  O17   A    
C38   C58   S    
C98   C107  A    
C42   C62   S    
C36   H28   S    
C101  O6    A    
Cr12  O28   S    
C76   C85   A    
Cr3   O47   S    
C12   C35   S    
C78   C87   A    
C116  H72   S    
C18   C27   S    
Cr10  O22   S    
C113  H70   S    
C117  C119  A    
Br2   C73   S    
C124  H8    S    
C50   C52   S    
C6    H16   S    
C4    H14   S    
C57   O10   A    
C40   H32   S    
C115  C124  A    
Cr8   O44   S    
C104  C106  A    
C40   C49   S    
C14   C46   S    
Cr4   O35   S    
C41   H33   S    
Cr10  O47   S    
C62   C135  S    
C68   O3    A    
Cr8   O19   S    
Cr11  O16   S    
C126  O19   A    
Br7   C78   S    
C46   C60   S    
C32   C41   S    
Cr1   O12   S    
C10   H23   S    
C135  O12   A    
C103  C111  A    
C69   C123  S    
C133  O36   A    
C13   C56   S    
C66   C99   A    
C111  H69   S    
C115  H68   S    
C21   C30   S    
C70   C103  A    
C3    H13   S    
C127  O20   A    
C81   C83   A    
C34   C54   S    
C24   C47   S    
C36   C44   S    
C37   C45   S    
C120  H5    S    
C85   C87   A    
C143  H10   S    
C54   C140  S    
C71   C95   A    
Br3   C74   S    
C38   H30   S    
C109  H62   S    
C51   C53   S    
C121  H6    S    
Br5   C76   S    
C28   C144  S    
C30   H22   S    
C57   C66   S    
C137  O34   A    
Br8   C80   S    
C112  O7    A    
Cr4   O42   S    
Cr10  O15   S    
C18   C126  S    
Cr5   O4    S    
C8    H1    S    
C95   C97   A    
C11   C20   S    
C106  C115  A    
C7    C16   S    
C108  C117  A    
C131  O25   A    
C76   C96   A    
C57   O2    A    
C110  C119  A    
C31   H24   S    
C78   C94   A    
C64   C79   S    
C116  C118  A    
C51   H43   S    
C79   O13   A    
C7    C62   S    
C14   C22   S    
C100  C109  A    
C67   C112  S    
C42   H35   S    
C37   C56   S    
C132  O35   A    
C19   C127  S    
C104  C113  A    
Cr3   O41   S    
Cr9   O13   S    
Cr5   O23   S    
C98   C100  A    
C20   C29   S    
C140  O42   A    
C22   C31   S    
C141  O43   A    
C15   H67   S    
C99   C108  A    
C82   H54   S    
C43   H36   S    
C139  O49   A    
C142  H9    S    
Cr11  O48   S    
C35   C59   S    
C128  O21   A    
C41   C61   S    
Cr9   O20   S    
Cr5   O46   S    
C5    C60   S    
C53   C62   S    
Cr6   O49   S    
C80   C88   A    
C70   C94   A    
Cr8   O9    S    
Cr2   O29   S    
C2    C44   S    
C89   C92   A    
C26   C142  S    
C3    C11   S    
Cr1   O2    S    
C84   H57   S    
Cr9   O11   S    
C123  O8    A    
C63   C68   S    
C50   H42   S    
C61   C133  S    
C22   C49   S    
C23   C32   S    
C125  O27   A    
Cr8   O18   S    
C72   C81   A    
Cr11  O17   S    
C136  O23   A    
C144  H11   S    
C34   H27   S    
C32   H25   S    
C119  H4    S    
C85   H58   S    
C1    O9    A    
Cr3   O32   S    
C3    C58   S    
C121  C124  A    
C75   C91   A    
C27   C143  S    
C59   C136  S    
Cr7   O7    S    
C36   C55   S    
C37   H29   S    
Cr7   O50   S    
C7    C33   S    
Cr4   O48   S    
C73   C93   A    
C24   C58   S    
C12   H45   S    
C40   C60   S    
C55   C143  S    
C58   C139  S    
Cr6   O47   S    
Cr1   O44   S    
C67   C96   A    
C74   C89   A    
C68   O11   A    
C69   C106  A    
C33   C42   S    
C90   O14   A    
C14   H56   S    
C126  O28   A    
C107  C116  A    
C20   C128  S    
C113  C121  A    
C120  C122  A    
C125  O18   A    
C66   C91   A    
C21   C48   S    
C19   C28   S    
C21   C129  S    
C63   C92   A    
C45   H38   S    
C25   C33   S    
C88   H61   S    
C69   C97   A    
C107  H64   S    
Br4   C75   S    
C130  O32   A    
C7    H17   S    
Cr11  O26   S    
C5    C14   S    
C135  O37   A    
Br1   C72   S    
C25   C132  S    
C29   C38   S    
C60   C137  S    
C31   C40   S    
C108  H65   S    
C129  O22   A    
C65   C89   A    
C75   C84   A    
C33   H26   S    
C9    C18   S    
C52   C61   S    
C23   C50   S    
C128  O30   A    
Cr6   O6    S    
C24   H48   S    
C2    C9    S    
Cr12  O27   S    
C49   H41   S    
C55   C141  S    
C90   O5    A    
Cr5   O3    S    
Cr6   O45   S    
C70   C90   S    
C28   H20   S    
C9    H12   S    
C34   C43   S    
Cr12  O36   S    
C72   C92   A    
C83   H55   S    
Cr11  O25   S    
C1    C65   S    
C77   C97   A    
C39   C59   S    
C20   C47   S    
C2    H46   S    
C12   C21   S    
C15   C52   S    
C114  H66   S    
C4    C59   S    
C64   C102  A    
C5    H15   S    
C81   H53   S    
Cr7   O51   S    
C41   C50   S    
C13   H47   S    
Cr6   O5    S    
C6    C15   S    
C8    C134  S    
C17   C43   S    
C18   C44   S    
C77   C86   A    
Cr1   O52   S    
C28   C37   S    
C94   C96   A    
C27   C36   S    
C30   C39   S    
C67   C105  A    
C86   H59   S    
C23   C131  S    
C35   H49   S    
C80   C95   A    
C43   C134  S    
Cr9   O21   S    
C133  O1    A    
C79   O4    A    
C1    O52   A    
Cr12  O44   S    
C10   C19   S    
Cr8   O10   S    
Cr2   O30   S    
C8    C142  S    
C48   H40   S    
C87   H60   S    
Cr1   O1    S    
C117  H2    S    
Cr10  O14   S    
C16   H71   S    
C13   C45   S    
C129  O31   A    
C65   C98   A    
Cr5   O34   S    
C6    C61   S    
C114  C122  A    
C26   H18   S    
C4    C30   S    
Cr2   O39   S    
C5    C31   S    
C6    C32   S    
C35   C48   S    
C127  O29   A    
C39   C48   S    
C132  O26   A    
C46   C49   S    
Cr3   O31   S    
