data_mof_unit_19470.cif
_audit_creation_date              2012-12-10T20:27:10-0500
_audit_creation_method            fapswitch 2.2
_symmetry_space_group_name_H-M    P1
_symmetry_Int_Tables_number       1
_space_group_crystal_system       triclinic
_cell_length_a                    10.823245
_cell_length_b                    10.671743
_cell_length_c                    9.893688
_cell_angle_alpha                 89.508123
_cell_angle_beta                  104.390473
_cell_angle_gamma                 90.629025
_cell_volume                      1106.8082702

loop_
_atom_site_label
_atom_site_type_symbol
_atom_type_description
_atom_site_fract_x
_atom_site_fract_y
_atom_site_fract_z
_atom_type_partial_charge
C1    C     C_R   0.503420 0.259893 0.501537 0.886643
C2    C     C_R   0.525647 0.128692 0.509657 -0.133241
C3    C     C_R   0.572551 0.068878 0.407164 -0.275755
C4    C     C_R   0.583008 0.938648 0.409328 -0.054972
C5    C     C_R   0.537429 0.871080 0.511300 -0.184897
C6    C     C_R   0.516546 0.934445 0.625872 0.188955
C7    C     C_3   0.413026 0.920889 0.700780 -0.441581
C8    C     C_3   0.410399 0.062742 0.703367 -0.501617
C9    C     C_R   0.389991 0.478007 0.041406 0.214782
C10   C     C_R   0.605125 0.534823 0.101183 -0.143395
C11   C     C_R   0.604605 0.539229 0.957775 -0.015229
C12   C     C_R   0.259157 0.503338 0.441499 0.933046
C13   C     C_R   0.389899 0.478097 0.899289 0.188374
C14   C     C_3   0.306617 0.364550 0.871902 -0.496007
C15   C     C_3   0.307782 0.363515 0.025922 -0.488445
C16   C     C_R   0.510033 0.739650 0.502213 0.922215
C17   C     C_R   0.741014 0.503236 0.558482 0.982027
C18   C     C_2   0.122594 0.515300 0.408180 -0.364182
C19   C     C_2   0.068271 0.538937 0.512084 -0.165906
C20   C     C_2   0.877872 0.516402 0.591579 -0.338381
C21   C     C_2   0.932577 0.536256 0.486565 -0.108492
C22   C     C_R   0.513077 0.061793 0.626564 0.146531
H1    H     H_    0.877576 0.542636 0.378690 0.192840
H2    H     H_    0.445992 0.100065 0.810553 0.220057
H3    H     H_    0.689890 0.561793 0.178948 0.163998
H4    H     H_    0.212893 0.382924 0.045076 0.208979
H5    H     H_    0.358138 0.281637 0.084019 0.221838
H6    H     H_    0.933457 0.509154 0.699188 0.148593
H7    H     H_    0.066730 0.502569 0.301408 0.172279
H8    H     H_    0.599153 0.122823 0.325224 0.199895
H9    H     H_    0.447860 0.877959 0.806019 0.237385
H10   H     H_    0.319579 0.103313 0.641061 0.202605
N1    N     N_R   0.499160 0.499140 0.142600 -0.113470
N2    N     N_R   0.499160 0.499180 0.856960 -0.146831
O1    O     O_R   0.500020 0.316790 0.614700 -0.617687
O2    O     O_R   0.500000 0.316760 0.385350 -0.621948
O3    O     O_R   0.317820 0.500020 0.571850 -0.621818
O4    O     O_R   0.317800 0.499980 0.342510 -0.614672
O5    O     O_R   0.500000 0.683240 0.614650 -0.587025
O6    O     O_R   0.499980 0.683210 0.385300 -0.604467
O7    O     O_R   0.682200 0.500020 0.657490 -0.602144
O8    O     O_R   0.682180 0.499980 0.428150 -0.615503
Zn1   Zn    Zn3+2 0.500010 0.500020 0.653140 0.980097
Zn2   Zn    Zn3+2 0.499990 0.499980 0.346860 0.968914
C23   C     C_2   0.717511 0.594266 0.922186 0.949328
O9    O     O_2   0.706114 0.684811 0.843797 -0.597803
O10   O     O_R   0.838520 0.548093 0.985879 -0.842986
H11   H     H_    0.909053 0.595063 0.955444 0.333379
H12   H     H_    0.211181 0.385035 0.802646 0.201143
H13   H     H_    0.355537 0.283672 0.840100 0.214339
H14   H     H_    0.123681 0.552218 0.619001 0.184026
C24   C     C_2   0.643593 0.878579 0.307961 0.954219
O11   O     O_2   0.624488 0.919134 0.188598 -0.640000
O12   O     O_R   0.728508 0.780064 0.351438 -0.800302
H15   H     H_    0.771573 0.753750 0.276348 0.328085
H16   H     H_    0.324275 0.878386 0.634905 0.194182

loop_
_geom_bond_atom_site_label_1
_geom_bond_atom_site_label_2
_ccdc_geom_bond_type
C2    C22   A    
C3    H8    S    
C8    C22   S    
O4    Zn2   S    
C6    C7    S    
O1    Zn1   S    
O12   H15   S    
C15   H5    S    
O10   H11   S    
C23   O10   S    
C2    C3    A    
C9    C15   S    
C23   O9    D    
C13   N2    A    
C18   H7    S    
C13   C14   S    
C20   C21   D    
C9    N1    A    
O7    Zn1   S    
C14   H13   S    
O8    Zn2   S    
C7    H16   S    
C16   O6    A    
C10   H3    S    
C19   C21   S    
C4    C24   S    
C18   C19   D    
C10   N1    A    
C21   H1    S    
C12   O4    A    
C5    C6    A    
C17   O7    A    
O3    Zn1   S    
C11   C23   S    
C14   H12   S    
O2    Zn2   S    
C10   C11   A    
C16   O5    A    
C3    C4    A    
C6    C22   A    
C19   H14   S    
O6    Zn2   S    
C17   C20   S    
C7    H9    S    
C24   O11   D    
C1    O1    A    
C1    C2    S    
C12   C18   S    
C12   O3    A    
C7    C8    S    
C9    C13   A    
C14   C15   S    
C5    C16   S    
O5    Zn1   S    
C20   H6    S    
C8    H2    S    
C17   O8    A    
N1    Zn2   S    
C11   N2    A    
N2    Zn1   S    
C1    O2    A    
C24   O12   S    
C4    C5    A    
C15   H4    S    
C8    H10   S    
