data_mof_unit_27932.cif
_audit_creation_date              2012-10-26T20:03:48-0400
_audit_creation_method            fapswitch 2.2
_symmetry_space_group_name_H-M    P1
_symmetry_Int_Tables_number       1
_space_group_crystal_system       triclinic
_cell_length_a                    12.354564
_cell_length_b                    13.183516
_cell_length_c                    15.844564
_cell_angle_alpha                 77.664258
_cell_angle_beta                  101.313549
_cell_angle_gamma                 116.587397
_cell_volume                      2239.53777281

loop_
_atom_site_label
_atom_site_type_symbol
_atom_type_description
_atom_site_fract_x
_atom_site_fract_y
_atom_site_fract_z
_atom_type_partial_charge
C1    C     C_R   0.854862 0.286846 0.504756 0.538970
C2    C     C_R   0.227729 0.835082 0.470586 -0.001006
C3    C     C_R   0.817486 0.082159 0.539225 -0.119145
C4    C     C_R   0.999565 0.499604 0.659991 0.558740
C5    C     C_R   0.739688 0.966415 0.550162 -0.138936
C6    C     C_R   0.615045 0.930598 0.527363 -0.120569
C7    C     C_R   0.565817 0.010463 0.488462 0.032709
C8    C     C_R   0.647398 0.127040 0.467641 0.021944
C9    C     C_R   0.438385 0.977915 0.467695 0.028319
C10   C     C_R   0.395257 0.058245 0.417739 0.051292
C11   C     C_R   0.477830 0.168162 0.388070 -0.139225
C12   C     C_3   0.998993 0.498576 0.917369 0.050509
C13   C     C_R   0.601897 0.201617 0.411466 -0.122804
C14   C     C_R   0.352243 0.868028 0.496062 -0.134507
C15   C     C_R   0.186333 0.915356 0.421784 -0.135044
C16   C     C_R   0.145063 0.713495 0.487550 0.542392
C17   C     C_R   0.772469 0.164298 0.501803 -0.006909
C18   C     C_R   0.353943 0.335882 0.641399 -0.142349
C19   C     C_R   0.759790 0.645469 0.383105 0.048974
C20   C     C_R   0.663077 0.676571 0.356576 -0.161762
C21   C     C_R   0.558996 0.621043 0.399634 -0.137357
C22   C     C_R   0.550726 0.533502 0.470340 -0.000074
C23   C     C_3   0.110001 0.571361 0.031939 -0.099537
C24   C     C_R   0.652783 0.504964 0.495342 0.179325
C25   C     C_R   0.446592 0.474469 0.518115 -0.017558
C26   C     C_R   0.449406 0.390955 0.590305 0.012859
C27   C     C_R   0.548625 0.363757 0.612880 -0.166545
C28   C     C_R   0.000266 0.500127 0.340010 0.539552
C29   C     C_R   0.647778 0.419236 0.566339 -0.090397
C30   C     C_R   0.339811 0.494743 0.498654 0.015690
C31   C     C_R   0.253690 0.361367 0.621304 0.208430
C32   C     C_3   0.973332 0.392423 0.043098 -0.101911
C33   C     C_3   0.888729 0.425987 0.968228 -0.101015
C34   C     C_3   0.999741 0.498790 0.082815 0.050122
C35   C     C_1   0.998970 0.499132 0.749816 -0.012804
C36   C     C_1   0.000295 0.499624 0.250241 -0.034697
C37   C     C_3   0.083592 0.465005 0.990677 -0.097582
C38   C     C_2   0.162293 0.308342 0.683077 0.615210
C39   C     C_3   0.025400 0.604920 0.957097 -0.098448
C40   C     C_3   0.915143 0.532344 0.009489 -0.098786
C41   C     C_1   0.998809 0.498762 0.825517 -0.052698
C42   C     C_1   0.000117 0.499179 0.174616 -0.062964
C43   C     C_R   0.269777 0.026772 0.396097 -0.129586
Cu1   Cu    Cu3+1 0.098270 0.475420 0.519690 0.986638
Cu2   Cu    Cu3+1 0.901730 0.524580 0.480310 0.914041
H1    H     H_    0.797910 0.366335 0.940693 0.108215
H2    H     H_    0.840024 0.688959 0.349134 0.126311
H3    H     H_    0.951983 0.305210 0.079768 0.106800
H4    H     H_    0.487047 0.648775 0.376840 0.100176
H5    H     H_    0.668862 0.744000 0.302468 0.102971
H6    H     H_    0.719318 0.392766 0.589400 0.186063
H7    H     H_    0.845999 0.559982 0.018564 0.109647
H8    H     H_    0.046750 0.692137 0.920433 0.111941
H9    H     H_    0.200831 0.631025 0.059447 0.107717
H10   H     H_    0.152691 0.437348 0.981531 0.118159
H11   H     H_    0.090142 0.891218 0.401305 0.124238
H12   H     H_    0.379740 0.805898 0.538275 0.124613
H13   H     H_    0.446445 0.228742 0.346410 0.110148
H14   H     H_    0.236402 0.087638 0.357563 0.108359
H15   H     H_    0.119078 0.306742 0.799825 0.327878
H16   H     H_    0.913187 0.107028 0.560865 0.188217
H17   H     H_    0.560348 0.839404 0.538032 0.107484
H18   H     H_    0.775944 0.904020 0.578618 0.129787
H19   H     H_    0.660971 0.285252 0.381648 0.155766
H20   H     H_    0.550284 0.299208 0.667938 0.113203
H21   H     H_    0.358309 0.274263 0.698146 0.105187
H22   H     H_    0.329770 0.555755 0.444072 0.123669
N1    N     N_R   0.246280 0.438200 0.549540 -0.261288
N2    N     N_R   0.754330 0.561180 0.450980 -0.238187
O1    O     O_R   0.972510 0.318130 0.524770 -0.465899
O2    O     O_R   0.187295 0.351205 0.761548 -0.704605
O3    O     O_R   0.806530 0.359650 0.491510 -0.537353
O4    O     O_R   0.082970 0.479240 0.637550 -0.455605
O5    O     O_R   0.916990 0.520750 0.604290 -0.520644
O6    O     O_R   0.193470 0.640350 0.508490 -0.513463
O7    O     O_R   0.027490 0.681870 0.475230 -0.506057
O8    O     O_R   0.083010 0.479250 0.395710 -0.506115
O9    O     O_R   0.917030 0.520760 0.362450 -0.509907
O10   O     O_2   0.069496 0.222768 0.668876 -0.548927

loop_
_geom_bond_atom_site_label_1
_geom_bond_atom_site_label_2
_ccdc_geom_bond_type
C8    C13   A    
C27   C29   A    
C16   O6    A    
C36   C42   T    
C19   C20   A    
C18   C26   A    
C21   H4    S    
C7    C8    A    
C26   C27   A    
Cu2   O7    S    
C34   C40   S    
Cu1   O8    S    
C5    C6    A    
C19   H2    S    
C38   O10   D    
C5    H18   S    
C12   C37   S    
C24   C29   A    
C20   H5    S    
C22   C25   A    
C34   C42   S    
Cu1   O1    S    
Cu2   O9    S    
C11   H13   S    
C2    C16   S    
C9    C10   A    
C4    O5    A    
C30   H22   S    
C43   H14   S    
C4    C35   S    
C21   C22   A    
Cu2   O3    S    
C33   H1    S    
C32   H3    S    
C2    C14   A    
C24   N2    A    
C3    H16   S    
C27   H20   S    
C31   N1    A    
C33   C40   S    
Cu2   N2    S    
C1    O3    A    
C39   C40   S    
H15   O2    S    
C25   C26   A    
C40   H7    S    
Cu2   O5    S    
C32   C34   S    
Cu1   O6    S    
C9    C14   A    
C12   C41   S    
C2    C15   A    
C23   C34   S    
C32   C37   S    
C28   O8    A    
C4    O4    A    
C22   C24   A    
Cu1   N1    S    
C28   O9    A    
Cu1   Cu2   S    
C23   H9    S    
C29   H6    S    
C25   C30   A    
C7    C9    A    
C14   H12   S    
C38   O2    S    
C10   C43   A    
C16   O7    A    
C1    O1    A    
C3    C5    A    
C6    C7    A    
C18   H21   S    
C1    C17   S    
C8    C17   A    
C31   C38   S    
C32   C33   S    
C6    H17   S    
C12   C39   S    
C15   C43   A    
C23   C37   S    
C15   H11   S    
C11   C13   A    
C39   H8    S    
C13   H19   S    
C23   C39   S    
C3    C17   A    
Cu1   O4    S    
C35   C41   T    
C19   N2    A    
C10   C11   A    
C37   H10   S    
C20   C21   A    
C28   C36   S    
C18   C31   A    
C12   C33   S    
C30   N1    A    
