data_mof_unit_62608.cif
_audit_creation_date              2012-12-10T18:51:06-0500
_audit_creation_method            fapswitch 2.2
_symmetry_space_group_name_H-M    P1
_symmetry_Int_Tables_number       1
_space_group_crystal_system       triclinic
_cell_length_a                    36.795214
_cell_length_b                    30.269847
_cell_length_c                    21.725296
_cell_angle_alpha                 89.250275
_cell_angle_beta                  124.712451
_cell_angle_gamma                 90.631706
_cell_volume                      19888.7973626

loop_
_atom_site_label
_atom_site_type_symbol
_atom_type_description
_atom_site_fract_x
_atom_site_fract_y
_atom_site_fract_z
_atom_type_partial_charge
C1    C     C_R   0.413668 0.499914 0.913244 0.875272
C2    C     C_R   0.586330 0.500064 0.086754 0.875222
C3    C     C_R   0.913668 0.999914 0.913244 0.875272
C4    C     C_R   0.086330 0.000064 0.086754 0.875222
C5    C     C_2   0.510929 0.502963 0.826531 -0.267669
C6    C     C_2   0.489046 0.497038 0.173439 -0.263132
C7    C     C_2   0.010929 0.002963 0.826531 -0.267669
C8    C     C_2   0.989046 0.997038 0.173439 -0.263131
C9    C     C_R   0.296595 0.459426 0.799842 -0.107731
C10   C     C_R   0.703291 0.460358 0.200187 -0.108384
C11   C     C_R   0.796594 0.959426 0.799842 -0.107731
C12   C     C_R   0.203291 0.960358 0.200187 -0.108384
C13   C     C_R   0.342367 0.459630 0.846888 -0.168803
C14   C     C_R   0.657532 0.460323 0.153183 -0.172896
C15   C     C_R   0.842367 0.959630 0.846888 -0.168803
C16   C     C_R   0.157531 0.960323 0.153183 -0.172897
C17   C     C_R   0.365657 0.499659 0.863438 -0.036625
C18   C     C_R   0.634340 0.500111 0.136520 -0.036687
C19   C     C_R   0.865657 0.999659 0.863438 -0.036625
C20   C     C_R   0.134340 0.000111 0.136520 -0.036687
C21   C     C_R   0.342747 0.539358 0.831580 -0.172752
C22   C     C_R   0.657347 0.539804 0.168233 -0.168682
C23   C     C_R   0.842747 0.039358 0.831580 -0.172752
C24   C     C_R   0.157347 0.039804 0.168233 -0.168682
C25   C     C_R   0.296960 0.539037 0.784244 -0.135720
C26   C     C_R   0.703144 0.539720 0.215529 -0.135125
C27   C     C_R   0.796960 0.039037 0.784244 -0.135721
C28   C     C_R   0.203144 0.039720 0.215529 -0.135125
C29   C     C_R   0.274056 0.499151 0.769160 0.132957
C30   C     C_R   0.725941 0.500081 0.230697 0.132987
C31   C     C_R   0.774056 0.999151 0.769160 0.132957
C32   C     C_R   0.225941 0.000081 0.230697 0.132987
C33   C     C_R   0.204056 0.505469 0.645839 -0.208303
C34   C     C_R   0.795997 0.505978 0.353953 -0.208167
C35   C     C_R   0.704056 0.005470 0.645839 -0.208302
C36   C     C_R   0.295997 0.005978 0.353953 -0.208166
C37   C     C_R   0.158215 0.505530 0.600587 -0.174145
C38   C     C_R   0.841837 0.505694 0.399270 -0.174028
C39   C     C_R   0.658215 0.005530 0.600587 -0.174144
C40   C     C_R   0.341837 0.005693 0.399270 -0.174027
C41   C     C_R   0.134519 0.499653 0.632689 -0.092241
C42   C     C_R   0.865478 0.500073 0.367269 -0.092382
C43   C     C_R   0.634519 0.999653 0.632689 -0.092241
C44   C     C_R   0.365478 0.000073 0.367269 -0.092383
C45   C     C_R   0.503087 0.500476 0.884215 0.942165
C46   C     C_R   0.496907 0.499524 0.115778 0.941024
C47   C     C_R   0.003087 0.000476 0.884215 0.942165
C48   C     C_R   0.996907 0.999524 0.115778 0.941024
C49   C     C_R   0.157023 0.493613 0.710302 -0.211241
C50   C     C_R   0.842921 0.494755 0.289672 -0.211103
C51   C     C_R   0.657023 0.993613 0.710302 -0.211242
C52   C     C_R   0.342921 0.994755 0.289672 -0.211104
C53   C     C_R   0.202858 0.493291 0.755710 0.293537
C54   C     C_R   0.797091 0.494800 0.244201 0.293414
C55   C     C_R   0.702858 0.993291 0.755710 0.293537
C56   C     C_R   0.297091 0.994800 0.244201 0.293414
C57   C     C_R   0.226297 0.499177 0.723073 0.018288
C58   C     C_R   0.773701 0.500312 0.276754 0.018627
C59   C     C_R   0.726297 0.999177 0.723073 0.018288
C60   C     C_R   0.273701 0.000312 0.276754 0.018626
C61   C     C_R   0.499924 0.413645 0.499793 0.909147
C62   C     C_R   0.999924 0.913645 0.499793 0.909146
C63   C     C_R   0.499134 0.497720 0.618306 0.872933
C64   C     C_R   0.500866 0.502268 0.381693 0.874562
C65   C     C_R   0.999134 0.997720 0.618306 0.872932
C66   C     C_R   0.000866 0.002268 0.381693 0.874561
C67   C     C_R   0.500070 0.586294 0.500145 0.860385
C68   C     C_R   0.000070 0.086294 0.500145 0.860384
C69   C     C_R   0.999988 0.413607 0.500340 0.870790
C70   C     C_R   0.499988 0.913607 0.500340 0.870790
C71   C     C_R   0.086453 0.499958 0.585796 0.896025
C72   C     C_R   0.913547 0.500018 0.414200 0.895862
C73   C     C_R   0.586453 0.999958 0.585796 0.896024
C74   C     C_R   0.413547 0.000018 0.414200 0.895862
C75   C     C_R   0.999970 0.586457 0.499611 0.885627
C76   C     C_R   0.499970 0.086457 0.499611 0.885626
C77   C     C_R   0.459282 0.296634 0.456879 0.261870
C78   C     C_R   0.539934 0.296735 0.537790 0.261937
C79   C     C_R   0.959283 0.796634 0.456855 0.261869
C80   C     C_R   0.039934 0.796735 0.537815 0.261937
C81   C     C_R   0.000034 0.273902 0.501783 0.105534
C82   C     C_R   0.500034 0.773902 0.501783 0.105532
C83   C     C_R   0.459568 0.342450 0.458018 -0.201898
C84   C     C_R   0.539868 0.342540 0.538570 -0.204848
C85   C     C_R   0.959569 0.842450 0.457994 -0.201898
C86   C     C_R   0.039867 0.842540 0.538594 -0.204849
C87   C     C_R   0.499774 0.365576 0.498872 -0.147489
C88   C     C_R   0.999774 0.865576 0.498873 -0.147486
C89   C     C_R   0.499553 0.273810 0.496927 -0.077242
C90   C     C_R   0.999554 0.773810 0.496928 -0.077239
C91   C     C_R   0.999427 0.703598 0.441527 -0.083283
C92   C     C_R   0.999599 0.703256 0.553569 -0.085339
C93   C     C_R   0.499428 0.203598 0.441528 -0.083283
C94   C     C_R   0.499598 0.203256 0.553568 -0.085339
C95   C     C_R   0.999598 0.657784 0.442203 -0.177389
C96   C     C_R   0.999770 0.657478 0.554375 -0.176224
C97   C     C_R   0.499599 0.157784 0.442204 -0.177389
C98   C     C_R   0.499768 0.157478 0.554374 -0.176224
C99   C     C_R   0.999795 0.634504 0.498698 -0.046665
C100  C     C_R   0.499795 0.134504 0.498698 -0.046665
C101  C     C_R   0.999449 0.726093 0.497217 0.182213
C102  C     C_R   0.499449 0.226093 0.497217 0.182214
C103  C     C_R   0.462144 0.703161 0.446519 -0.166730
C104  C     C_R   0.537884 0.703004 0.556888 -0.166175
C105  C     C_R   0.037884 0.203003 0.556890 -0.166175
C106  C     C_R   0.962144 0.203160 0.446517 -0.166730
C107  C     C_R   0.462116 0.657388 0.446143 -0.177767
C108  C     C_R   0.538074 0.657208 0.556034 -0.174379
C109  C     C_R   0.038073 0.157207 0.556036 -0.174380
C110  C     C_R   0.962116 0.157388 0.446141 -0.177767
C111  C     C_R   0.500140 0.634248 0.500731 -0.030251
C112  C     C_R   0.000140 0.134248 0.500731 -0.030249
C113  C     C_R   0.987942 0.297026 0.436606 -0.166076
C114  C     C_R   0.012108 0.296579 0.566600 -0.165354
C115  C     C_R   0.512110 0.796579 0.566600 -0.165353
C116  C     C_R   0.487940 0.797026 0.436606 -0.166075
C117  C     C_R   0.499986 0.725978 0.501937 0.104491
C118  C     C_R   0.999986 0.225977 0.501937 0.104492
C119  C     C_R   0.999936 0.365650 0.500950 -0.036868
C120  C     C_R   0.499936 0.865651 0.500950 -0.036868
C121  C     C_R   0.988129 0.342798 0.436284 -0.180290
C122  C     C_R   0.011790 0.342399 0.566070 -0.180912
C123  C     C_R   0.511791 0.842400 0.566070 -0.180913
C124  C     C_R   0.488127 0.842798 0.436284 -0.180291
C125  C     C_2   0.529581 0.473891 0.745884 -0.236943
C126  C     C_2   0.470448 0.526130 0.254147 -0.240648
C127  C     C_2   0.029581 0.973891 0.745884 -0.236941
C128  C     C_2   0.970448 0.026130 0.254147 -0.240648
C129  C     C_2   0.495347 0.489889 0.680321 0.119142
C130  C     C_2   0.504656 0.510069 0.319678 0.120756
C131  C     C_2   0.995347 0.989889 0.680321 0.119141
C132  C     C_2   0.004656 0.010069 0.319678 0.120756
C133  C     C_2   0.526498 0.469060 0.809673 -0.109173
C134  C     C_2   0.473533 0.530961 0.190361 -0.112554
C135  C     C_2   0.026498 0.969060 0.809673 -0.109173
C136  C     C_2   0.973533 0.030961 0.190361 -0.112553
H1    H     H_    0.560316 0.464858 0.753194 0.165915
H2    H     H_    0.439738 0.535232 0.246871 0.163173
H3    H     H_    0.060316 0.964858 0.753194 0.165915
H4    H     H_    0.939738 0.035232 0.246871 0.163173
H5    H     H_    0.139115 0.489100 0.735844 0.189601
H6    H     H_    0.860781 0.490508 0.264183 0.189749
H7    H     H_    0.639115 0.989100 0.735844 0.189601
H8    H     H_    0.360781 0.990508 0.264183 0.189749
H9    H     H_    0.978822 0.279621 0.386402 0.141056
H10   H     H_    0.021287 0.278798 0.617099 0.141173
H11   H     H_    0.521290 0.778798 0.617100 0.141174
H12   H     H_    0.478819 0.779621 0.386401 0.141056
H13   H     H_    0.428347 0.359834 0.427029 0.200597
H14   H     H_    0.571180 0.359988 0.570282 0.199987
H15   H     H_    0.928349 0.859835 0.426986 0.200595
H16   H     H_    0.071179 0.859988 0.570325 0.199984
H17   H     H_    0.999334 0.721541 0.397955 0.148853
H18   H     H_    0.999638 0.720925 0.596664 0.148452
H19   H     H_    0.499336 0.221541 0.397957 0.148851
H20   H     H_    0.499636 0.220925 0.596661 0.148450
H21   H     H_    0.999596 0.640682 0.398727 0.163702
H22   H     H_    0.999907 0.640166 0.598449 0.164167
H23   H     H_    0.499598 0.140682 0.398729 0.163701
H24   H     H_    0.499905 0.140166 0.598447 0.164167
H25   H     H_    0.978742 0.360252 0.385425 0.161349
H26   H     H_    0.021154 0.359581 0.616570 0.160841
H27   H     H_    0.521157 0.859581 0.616571 0.160841
H28   H     H_    0.478738 0.860252 0.385424 0.161349
H29   H     H_    0.432570 0.640169 0.402892 0.160699
H30   H     H_    0.567652 0.639815 0.598816 0.162505
H31   H     H_    0.067651 0.139815 0.598820 0.162504
H32   H     H_    0.932571 0.140169 0.402889 0.160697
H33   H     H_    0.537432 0.438762 0.842686 0.173457
H34   H     H_    0.462656 0.561283 0.157413 0.171714
H35   H     H_    0.037432 0.938762 0.842685 0.173457
H36   H     H_    0.962656 0.061283 0.157413 0.171714
H37   H     H_    0.278676 0.428537 0.787905 0.150888
H38   H     H_    0.721121 0.429654 0.212221 0.150423
H39   H     H_    0.778676 0.928537 0.787905 0.150889
H40   H     H_    0.221121 0.929654 0.212221 0.150423
H41   H     H_    0.359411 0.428624 0.870759 0.164293
H42   H     H_    0.640421 0.429319 0.129442 0.163156
H43   H     H_    0.859411 0.928624 0.870759 0.164293
H44   H     H_    0.140421 0.929319 0.129442 0.163156
H45   H     H_    0.360119 0.570552 0.843229 0.164791
H46   H     H_    0.640043 0.570804 0.156492 0.165918
H47   H     H_    0.860119 0.070552 0.843229 0.164792
H48   H     H_    0.140043 0.070804 0.156492 0.165918
H49   H     H_    0.279331 0.569792 0.760328 0.149573
H50   H     H_    0.720859 0.570472 0.239338 0.150250
H51   H     H_    0.779331 0.069792 0.760328 0.149573
H52   H     H_    0.220859 0.070472 0.239338 0.150250
H53   H     H_    0.222252 0.510125 0.620809 0.162227
H54   H     H_    0.777842 0.510307 0.378927 0.162310
H55   H     H_    0.722252 0.010126 0.620809 0.162227
H56   H     H_    0.277842 0.010307 0.378927 0.162310
O1    O     O_R   0.434530 0.536960 0.934530 -0.627247
O2    O     O_R   0.565470 0.536960 0.065470 -0.623179
O3    O     O_R   0.934530 0.036960 0.934530 -0.627247
O4    O     O_R   0.065470 0.036960 0.065470 -0.623179
O5    O     O_R   0.065470 0.500010 0.514410 -0.623754
O6    O     O_R   0.934530 0.500010 0.485590 -0.623886
O7    O     O_R   0.565470 0.000010 0.514410 -0.623754
O8    O     O_R   0.434530 0.000010 0.485590 -0.623886
O9    O     O_R   0.065460 0.500010 0.616540 -0.621538
O10   O     O_R   0.934540 0.500010 0.383460 -0.621742
O11   O     O_R   0.565460 0.000010 0.616540 -0.621538
O12   O     O_R   0.434540 0.000010 0.383460 -0.621742
O13   O     O_R   0.000010 0.565480 0.448930 -0.622969
O14   O     O_R   0.999990 0.565480 0.551070 -0.622826
O15   O     O_R   0.500010 0.065480 0.448930 -0.622968
O16   O     O_R   0.499990 0.065480 0.551070 -0.622826
O17   O     O_R   0.434530 0.463040 0.934530 -0.622761
O18   O     O_R   0.565470 0.463040 0.065470 -0.626951
O19   O     O_R   0.934530 0.963040 0.934530 -0.622761
O20   O     O_R   0.065470 0.963040 0.065470 -0.626951
O21   O     O_R   0.500010 0.536960 0.909550 -0.620460
O22   O     O_R   0.499990 0.536960 0.090450 -0.611531
O23   O     O_R   0.000010 0.036960 0.909550 -0.620460
O24   O     O_R   0.999990 0.036960 0.090450 -0.611531
O25   O     O_R   0.500010 0.463040 0.909550 -0.610183
O26   O     O_R   0.499990 0.463040 0.090450 -0.618725
O27   O     O_R   0.000010 0.963040 0.909550 -0.610183
O28   O     O_R   0.999990 0.963040 0.090450 -0.618725
O29   O     O_R   0.536960 0.434530 0.536970 -0.621262
O30   O     O_R   0.463040 0.434530 0.463030 -0.617651
O31   O     O_R   0.036960 0.934530 0.536970 -0.621262
O32   O     O_R   0.963040 0.934530 0.463030 -0.617651
O33   O     O_R   0.536950 0.500000 0.627420 -0.639142
O34   O     O_R   0.463050 0.500000 0.372580 -0.638247
O35   O     O_R   0.036950 0.000000 0.627420 -0.639143
O36   O     O_R   0.963050 0.000000 0.372580 -0.638248
O37   O     O_R   0.463030 0.500000 0.553490 -0.569579
O38   O     O_R   0.536970 0.500000 0.446510 -0.569930
O39   O     O_R   0.963030 0.000000 0.553490 -0.569578
O40   O     O_R   0.036970 0.000000 0.446510 -0.569928
O41   O     O_R   0.536960 0.565470 0.536960 -0.619825
O42   O     O_R   0.463040 0.565470 0.463040 -0.623281
O43   O     O_R   0.036960 0.065470 0.536960 -0.619825
O44   O     O_R   0.963040 0.065470 0.463040 -0.623280
O45   O     O_R   0.000000 0.434540 0.448940 -0.623465
O46   O     O_R   0.000000 0.434540 0.551060 -0.623605
O47   O     O_R   0.500000 0.934540 0.448940 -0.623464
O48   O     O_R   0.500000 0.934540 0.551060 -0.623605
Zn1   Zn    Zn3+2 0.500000 0.549350 0.000000 0.982861
Zn2   Zn    Zn3+2 0.000000 0.049350 0.000000 0.982861
Zn3   Zn    Zn3+2 0.500000 0.450640 0.000000 0.986568
Zn4   Zn    Zn3+2 0.000000 0.950640 0.000000 0.986568
Zn5   Zn    Zn3+2 0.549360 0.500000 0.549360 1.015281
Zn6   Zn    Zn3+2 0.450640 0.500000 0.450640 1.015728
Zn7   Zn    Zn3+2 0.049360 0.000000 0.549360 1.015282
Zn8   Zn    Zn3+2 0.950640 0.000000 0.450640 1.015729
Zn9   Zn    Zn3+2 0.000010 0.500010 0.431810 0.977567
Zn10  Zn    Zn3+2 0.999990 0.500010 0.568190 0.977679
Zn11  Zn    Zn3+2 0.500010 0.000010 0.431810 0.977567
Zn12  Zn    Zn3+2 0.499990 0.000010 0.568190 0.977679
H57   H     H_    0.141400 0.510403 0.540809 0.169553
H58   H     H_    0.858695 0.510039 0.459028 0.169708
H59   H     H_    0.641400 0.010403 0.540809 0.169554
H60   H     H_    0.358695 0.010039 0.459028 0.169709
Br1   Br    Br    0.232009 0.485989 0.861811 -0.502525
Br2   Br    Br    0.767902 0.488420 0.138136 -0.503745
Br3   Br    Br    0.732008 0.985989 0.861811 -0.502525
Br4   Br    Br    0.267902 0.988420 0.138136 -0.503745
Br5   Br    Br    0.403329 0.266471 0.400522 -0.488485
Br6   Br    Br    0.595753 0.266735 0.593268 -0.492090
Br7   Br    Br    0.903331 0.766472 0.400465 -0.488487
Br8   Br    Br    0.095751 0.766735 0.593325 -0.492092
H61   H     H_    0.432639 0.720802 0.404054 0.141157
H62   H     H_    0.567361 0.720544 0.599652 0.141789
H63   H     H_    0.067360 0.220543 0.599655 0.141789
H64   H     H_    0.932640 0.220802 0.404051 0.141157
Br9   Br    Br    0.436277 0.494926 0.657787 -0.478820
Br10  Br    Br    0.563712 0.504902 0.342188 -0.479156
Br11  Br    Br    0.936276 0.994926 0.657787 -0.478820
Br12  Br    Br    0.063712 0.004902 0.342188 -0.479156
H65   H     H_    0.504628 0.534508 0.797543 0.181450
H66   H     H_    0.495293 0.465478 0.202366 0.183947
H67   H     H_    0.004628 0.034508 0.797543 0.181450
H68   H     H_    0.995293 0.965478 0.202366 0.183947

loop_
_geom_bond_atom_site_label_1
_geom_bond_atom_site_label_2
_ccdc_geom_bond_type
C83   H13   S    
C43   C73   S    
C94   H20   S    
C96   H22   S    
C84   H14   S    
C48   O24   A    
C67   O42   A    
C10   H38   S    
C46   O26   A    
O2    Zn1   S    
C15   H43   S    
C89   C102  S    
C8    C136  D    
C45   O25   A    
C55   C59   A    
C14   C18   A    
C35   C39   A    
O39   Zn8   S    
C80   Br8   S    
C84   C87   A    
C79   C85   A    
C43   C51   A    
O17   Zn3   S    
C85   H15   S    
C76   O16   A    
C63   O33   A    
C56   Br4   S    
C5    C133  D    
O28   Zn4   S    
C77   C89   A    
C50   C54   A    
C70   O48   A    
O22   Zn1   S    
C97   H23   S    
C35   C59   A    
C2    C18   S    
C127  C135  S    
C82   C115  A    
C38   C42   A    
C7    H67   S    
C128  C136  S    
C68   C112  S    
C130  Br10  S    
C75   O14   A    
C95   C99   A    
C77   Br5   S    
C85   C88   A    
C24   H48   S    
C123  H27   S    
C94   C98   A    
C113  H9    S    
C96   C99   A    
C115  H11   S    
C92   C96   A    
C79   Br7   S    
O27   Zn4   S    
C65   O35   A    
O35   Zn7   S    
C33   H53   S    
C51   C55   A    
O16   Zn12  S    
C31   C59   S    
C91   H17   S    
C9    C13   A    
C61   O30   A    
C79   C90   A    
C80   C86   A    
C69   O45   A    
C68   O44   A    
C110  C112  A    
C15   C19   A    
O12   Zn11  S    
C11   C15   A    
O32   Zn8   S    
C126  H2    S    
C136  H36   S    
C70   C120  S    
C46   O22   A    
C47   O23   A    
C81   C114  A    
C45   O21   A    
C125  C133  S    
C9    H37   S    
C135  H35   S    
C61   C87   S    
C69   O46   A    
C66   C132  S    
C76   O15   A    
C9    C29   A    
C63   O37   A    
C35   H55   S    
C44   C52   A    
C63   C129  S    
C6    C134  D    
C11   C31   A    
C36   H56   S    
C74   O12   A    
C106  C118  A    
C25   C29   A    
C78   Br6   S    
C30   C58   S    
O45   Zn9   S    
C103  C117  A    
C127  H3    S    
C91   C101  A    
C6    H66   S    
C128  C132  D    
O11   Zn12  S    
O43   Zn7   S    
C105  C109  A    
C65   C131  S    
O34   Zn6   S    
C127  C131  D    
C119  C121  A    
C78   C89   A    
O33   Zn5   S    
C12   C32   A    
C2    O18   A    
C115  C123  A    
C65   O39   A    
C86   C88   A    
C1    O17   A    
O4    Zn2   S    
C12   C16   A    
C76   C100  S    
C28   C32   A    
C53   Br1   S    
C114  H10   S    
C14   H42   S    
C21   C25   A    
C10   C14   A    
C109  C112  A    
C116  H12   S    
C126  C130  D    
C53   C57   A    
C19   C23   A    
C34   C38   A    
C39   C43   A    
C3    O19   A    
C125  H1    S    
C62   O31   A    
C47   O27   A    
C81   C118  S    
C69   C119  S    
C50   H6    S    
C3    O3    A    
C4    O4    A    
C56   C60   A    
C120  C124  A    
O8    Zn12  S    
C2    O2    A    
C4    C20   S    
O5    Zn9   S    
C93   C102  A    
C21   H45   S    
C8    C48   S    
O25   Zn3   S    
C90   C101  S    
C23   H47   S    
C41   C71   S    
C68   O43   A    
C86   H16   S    
C48   O28   A    
O6    Zn10  S    
O44   Zn8   S    
C110  H32   S    
C34   H54   S    
C64   O34   A    
C16   C20   A    
C125  C129  D    
C121  H25   S    
O10   Zn9   S    
C75   C99   S    
C29   C57   S    
C113  C121  A    
C5    C45   S    
C27   H51   S    
O26   Zn3   S    
C3    C19   S    
C107  H29   S    
C126  C134  S    
C132  Br12  S    
C8    H68   S    
O38   Zn5   S    
C25   H49   S    
C92   C101  A    
C42   C50   A    
O37   Zn6   S    
C67   C111  S    
C38   H58   S    
O3    Zn2   S    
C98   H24   S    
O48   Zn12  S    
C23   C27   A    
C40   H60   S    
C52   H8    S    
C27   C31   A    
C134  H34   S    
C54   Br2   S    
C10   C30   A    
C5    H65   S    
C70   O47   A    
C32   C60   S    
C66   O36   A    
C73   O11   A    
C93   C97   A    
C104  C108  A    
C36   C40   A    
C105  C118  A    
C133  H33   S    
C33   C37   A    
C104  C117  A    
C106  C110  A    
C119  C122  A    
O7    Zn11  S    
C62   O32   A    
C71   O9    A    
C108  H30   S    
C67   O41   A    
O23   Zn2   S    
C33   C57   A    
C97   C100  A    
C6    C46   S    
C95   H21   S    
C107  C111  A    
O19   Zn4   S    
C104  H62   S    
C24   C28   A    
C64   C130  S    
C44   C74   S    
O29   Zn5   S    
C109  H31   S    
C83   C87   A    
O18   Zn3   S    
C72   O10   A    
C92   H18   S    
C120  C123  A    
C93   H19   S    
O36   Zn8   S    
C39   H59   S    
C51   H7    S    
C105  H63   S    
C41   C49   A    
C37   H57   S    
C54   C58   A    
C122  H26   S    
C108  C111  A    
C12   H40   S    
O40   Zn7   S    
O31   Zn7   S    
C106  H64   S    
C18   C22   A    
C128  H4    S    
C82   C116  A    
C22   H46   S    
O42   Zn6   S    
C66   O40   A    
C64   O38   A    
C26   H50   S    
O24   Zn2   S    
O41   Zn5   S    
C74   O8    A    
C62   C88   S    
O13   Zn9   S    
C13   H41   S    
C4    O20   A    
C73   O7    A    
C75   O13   A    
O21   Zn1   S    
C11   H39   S    
C49   H5    S    
C28   H52   S    
C55   Br3   S    
C103  H61   S    
C37   C41   A    
O14   Zn10  S    
C98   C100  A    
C61   O29   A    
C78   C84   A    
C49   C53   A    
C129  Br9   S    
C7    C135  D    
C72   O6    A    
C13   C17   A    
C114  C122  A    
O1    Zn1   S    
C52   C56   A    
C40   C44   A    
C71   O5    A    
C131  Br11  S    
C1    C17   S    
C94   C102  A    
C91   C95   A    
O20   Zn4   S    
O9    Zn10  S    
C22   C26   A    
C81   C113  A    
C34   C58   A    
C77   C83   A    
C1    O1    A    
O47   Zn11  S    
C103  C107  A    
O30   Zn6   S    
C82   C117  S    
C36   C60   A    
C42   C72   S    
C116  C124  A    
O15   Zn11  S    
C80   C90   A    
C20   C24   A    
O46   Zn10  S    
C16   H44   S    
C7    C47   S    
C124  H28   S    
C26   C30   A    
C17   C21   A    
