data_mof_unit_52113.cif
_audit_creation_date              2013-03-05T16:06:02-0500
_audit_creation_method            fapswitch 2.2
_symmetry_space_group_name_H-M    P1
_symmetry_Int_Tables_number       1
_space_group_crystal_system       triclinic
_cell_length_a                    10.888199
_cell_length_b                    9.669421
_cell_length_c                    23.621754
_cell_angle_alpha                 90.139112
_cell_angle_beta                  95.317236
_cell_angle_gamma                 90.095079
_cell_volume                      2476.24575379

loop_
_atom_site_label
_atom_site_type_symbol
_atom_site_description
_atom_site_fract_x
_atom_site_fract_y
_atom_site_fract_z
_atom_type_partial_charge
O1    O     O_R   0.319640 0.618740 0.500000 -0.574434
O2    O     O_R   0.680360 0.381260 0.500000 -0.570372
O3    O     O_R   0.680360 0.618740 0.500000 -0.574287
O4    O     O_R   0.319640 0.381260 0.500000 -0.572748
C1    C     C_R   0.263113 0.499815 0.503380 0.830194
C2    C     C_R   0.736591 0.499894 0.496068 0.832818
O5    O     O_R   0.499960 0.618810 0.417880 -0.572911
O6    O     O_R   0.500040 0.381190 0.582120 -0.588646
O7    O     O_R   0.500040 0.618810 0.582120 -0.564046
O8    O     O_R   0.499960 0.381190 0.417880 -0.588124
C3    C     C_R   0.500565 0.499352 0.391266 0.796317
C4    C     C_R   0.497709 0.499445 0.608912 0.800293
Cu1   Cu    Cu3+1 0.500000 0.640660 0.500000 0.953212
Cu2   Cu    Cu3+1 0.500000 0.359340 0.500000 0.930307
C5    C     C_R   0.597742 0.478789 0.883499 0.563947
C6    C     C_R   0.397338 0.442914 0.117311 0.565429
N1    N     N_R   0.485729 0.483848 0.852269 -0.445329
N2    N     N_R   0.503440 0.484248 0.148197 -0.446117
C7    C     C_R   0.378451 0.481347 0.877825 0.556162
C8    C     C_R   0.606544 0.517782 0.122551 0.555735
C9    C     C_R   0.380727 0.459344 0.936877 -0.141110
C10   C     C_R   0.609612 0.498386 0.063588 -0.139685
C11   C     C_R   0.494702 0.472217 0.970319 -0.095766
C12   C     C_R   0.497290 0.471963 0.030269 -0.097136
C13   C     C_R   0.605566 0.487606 0.943608 -0.079081
C14   C     C_R   0.387659 0.446961 0.057014 -0.080013
C15   C     C_R   0.272053 0.428900 0.963105 0.418233
C16   C     C_R   0.720922 0.509575 0.037225 0.419843
C17   C     C_R   0.273982 0.425953 0.022812 0.094552
C18   C     C_R   0.719018 0.510040 0.977583 0.083862
O9    O     O_2   0.699967 0.464658 0.855917 -0.540184
O10   O     O_2   0.302701 0.398740 0.145521 -0.546901
O11   O     O_2   0.270616 0.501947 0.846013 -0.502038
O12   O     O_2   0.704657 0.571619 0.154259 -0.501694
C19   C     C_R   0.580429 0.396342 0.243349 0.167754
C20   C     C_R   0.432610 0.378303 0.757358 0.171315
C21   C     C_R   0.586472 0.406958 0.303351 0.086254
C22   C     C_R   0.425874 0.387776 0.697309 0.076927
C23   C     C_R   0.503471 0.495926 0.328687 -0.210754
C24   C     C_R   0.490326 0.495799 0.671691 -0.219920
C25   C     C_R   0.422923 0.581272 0.293854 0.330463
C26   C     C_R   0.547357 0.600820 0.706713 0.336406
C27   C     C_R   0.433098 0.588051 0.235254 0.126595
C28   C     C_R   0.531454 0.605719 0.764813 0.128545
C29   C     C_R   0.506897 0.490782 0.209394 0.236459
C30   C     C_R   0.481259 0.490348 0.791024 0.236052
C31   C     C_R   0.062918 0.372607 0.504148 0.353768
C32   C     C_R   0.936391 0.625321 0.492161 0.361086
C33   C     C_R   0.935761 0.372630 0.493252 0.356376
C34   C     C_R   0.063083 0.625468 0.505191 0.360883
C35   C     C_R   0.870252 0.499190 0.491226 -0.429840
C36   C     C_R   0.128938 0.499184 0.506879 -0.423662
C37   C     C_R   0.419274 0.074129 0.462838 0.235178
C38   C     C_R   0.582417 0.926753 0.536244 0.231836
C39   C     C_R   0.581035 0.074907 0.537001 0.234709
C40   C     C_R   0.418329 0.925936 0.463349 0.216392
N3    N     N_R   0.500000 0.852070 0.500000 -0.190570
N4    N     N_R   0.500000 0.147930 0.500000 -0.193523
O13   O     O_3   0.163410 0.395431 0.931179 -0.704754
H1    H     H_    0.183771 0.328415 0.901623 0.346799
O14   O     O_3   0.833943 0.514248 0.068883 -0.706433
H2    H     H_    0.833824 0.441089 0.098230 0.346320
C41   C     C_3   0.153032 0.402178 0.048614 -0.646219
H3    H     H_    0.135280 0.488891 0.077647 0.251316
H4    H     H_    0.071699 0.397268 0.016829 0.251831
H5    H     H_    0.155899 0.302112 0.071609 0.245190
C42   C     C_3   0.838680 0.539528 0.951560 -0.626115
H6    H     H_    0.824796 0.624494 0.920088 0.232915
H7    H     H_    0.914040 0.575087 0.983026 0.249767
H8    H     H_    0.871534 0.444596 0.931226 0.264826
C43   C     C_3   0.649032 0.281843 0.215769 -0.778016
H9    H     H_    0.636496 0.182437 0.237996 0.231784
H10   H     H_    0.614324 0.263598 0.170770 0.222608
H11   H     H_    0.748732 0.307498 0.217599 0.243637
C44   C     C_3   0.392030 0.247043 0.785308 -0.787780
H12   H     H_    0.422476 0.154858 0.762228 0.228686
H13   H     H_    0.433804 0.236205 0.829688 0.222609
H14   H     H_    0.290088 0.245542 0.785291 0.245821
C45   C     C_3   0.681486 0.325295 0.340481 -0.775521
H15   H     H_    0.725225 0.392978 0.374645 0.204820
H16   H     H_    0.636911 0.235448 0.359475 0.247437
H17   H     H_    0.758151 0.286649 0.317113 0.233300
C46   C     C_3   0.348141 0.284961 0.660994 -0.753831
H18   H     H_    0.295271 0.339806 0.625500 0.211738
H19   H     H_    0.407792 0.204513 0.644197 0.246904
H20   H     H_    0.277836 0.233014 0.684580 0.229210
O15   O     O_3   0.330609 0.656612 0.315514 -0.729057
H21   H     H_    0.298371 0.601186 0.346116 0.309856
O16   O     O_3   0.623779 0.697313 0.685734 -0.726294
H22   H     H_    0.679083 0.645597 0.662256 0.311421
C47   C     C_3   0.359473 0.696424 0.200916 -0.664576
H23   H     H_    0.385864 0.705447 0.156868 0.201809
H24   H     H_    0.259624 0.671529 0.199320 0.257796
H25   H     H_    0.375868 0.799383 0.221195 0.233668
C48   C     C_3   0.575632 0.732377 0.798460 -0.684328
H26   H     H_    0.543678 0.734574 0.841672 0.202386
H27   H     H_    0.677971 0.736741 0.802144 0.255609
H28   H     H_    0.538635 0.826857 0.776359 0.231676
O17   O     O_3   0.119522 0.245633 0.510804 -0.650909
H29   H     H_    0.176316 0.250760 0.545989 0.333477
O18   O     O_3   0.880268 0.751360 0.481381 -0.653856
H30   H     H_    0.819735 0.739084 0.447708 0.337872
O19   O     O_3   0.878658 0.245727 0.485855 -0.649672
H31   H     H_    0.819898 0.252276 0.451366 0.336111
O20   O     O_3   0.119536 0.751960 0.515129 -0.652286
H32   H     H_    0.177749 0.742038 0.549725 0.337334
C49   C     C_3   0.329392 0.145854 0.419359 -0.709613
H33   H     H_    0.327413 0.257691 0.420587 0.274691
H34   H     H_    0.351427 0.118781 0.375763 0.189695
H35   H     H_    0.233398 0.114297 0.425068 0.244006
C50   C     C_3   0.679843 0.856325 0.575831 -0.692571
H36   H     H_    0.673241 0.745196 0.577548 0.272941
H37   H     H_    0.772846 0.880822 0.563008 0.248922
H38   H     H_    0.673907 0.891525 0.620121 0.228300
C51   C     C_3   0.670688 0.147428 0.580620 -0.714459
H39   H     H_    0.673236 0.259227 0.579361 0.276168
H40   H     H_    0.647659 0.121396 0.624133 0.188885
H41   H     H_    0.766718 0.115421 0.575312 0.242016
C52   C     C_3   0.324508 0.854553 0.421852 -0.670764
H42   H     H_    0.327247 0.743257 0.422095 0.277089
H43   H     H_    0.229710 0.882437 0.431187 0.244313
H44   H     H_    0.338846 0.884882 0.377710 0.224489

loop_
_geom_bond_atom_site_label_1
_geom_bond_atom_site_label_2
_geom_bond_distance
_ccdc_geom_bond_type
O15   H21   0.990597 S    
C17   C41   1.518903 S    
O18   H30   0.991624 S    
C37   N4    1.379958 A    
C22   C46   1.516275 S    
C15   C17   1.408968 A    
C49   H34   1.109634 S    
C48   H26   1.108677 S    
O3    C2    1.310126 A    
C41   H4    1.107552 S    
C48   H28   1.110837 S    
C23   C25   1.413935 A    
O5    C3    1.314060 A    
C21   C45   1.516868 S    
O1    C1    1.309478 A    
C49   H35   1.108612 S    
C19   C21   1.416249 A    
C12   C14   1.421976 A    
C37   C40   1.433046 A    
Cu1   N3    2.044212 S    
C51   H39   1.081892 S    
C31   O17   1.377482 S    
C40   N3    1.383054 A    
O7    Cu1   1.951760 S    
C43   H11   1.110036 S    
C32   C35   1.414407 A    
O17   H29   0.989994 S    
C51   H40   1.109742 S    
C34   O20   1.377777 S    
C34   C36   1.415865 A    
C11   C12   1.413800 A    
C1    C36   1.470890 S    
C20   C30   1.415141 A    
C2    C35   1.470373 S    
C18   C42   1.518152 S    
O3    Cu1   1.975549 S    
C8    O12   1.349505 S    
C16   O14   1.380116 S    
C24   C26   1.414154 A    
C9    C15   1.416402 A    
C41   H5    1.109840 S    
C19   C43   1.515779 S    
O13   H1    0.991709 S    
C10   C16   1.417085 A    
Cu1   Cu2   2.720202 S    
C25   C27   1.400523 A    
O2    C2    1.306945 A    
C26   C28   1.399835 A    
Cu2   N4    2.044213 S    
O7    C4    1.318988 A    
C28   C30   1.410872 A    
C52   H43   1.108841 S    
C6    C14   1.419074 A    
C25   O15   1.377942 S    
C42   H6    1.110442 S    
N1    C30   1.444561 S    
C31   C33   1.384586 A    
C7    O11   1.349419 S    
C47   H23   1.108414 S    
C43   H10   1.108269 S    
C33   C35   1.416161 A    
C27   C47   1.511640 S    
C45   H15   1.109763 S    
C42   H7    1.108485 S    
C4    C24   1.493060 S    
C44   H12   1.110758 S    
C20   C44   1.516019 S    
C47   H24   1.110319 S    
C44   H13   1.108699 S    
C37   C49   1.520859 S    
C46   H18   1.108740 S    
O6    C4    1.306991 A    
C51   H41   1.109030 S    
C50   H37   1.108906 S    
C3    C23   1.481791 S    
C27   C29   1.412137 A    
C46   H19   1.110087 S    
C8    C10   1.408403 A    
C9    C11   1.413112 A    
O8    Cu2   1.951760 S    
C40   C52   1.513149 S    
C10   C12   1.414225 A    
O1    Cu1   1.974851 S    
C49   H33   1.082023 S    
C20   C22   1.416737 A    
C19   C29   1.416062 A    
N2    C29   1.443807 S    
C45   H16   1.110166 S    
C52   H44   1.108667 S    
C13   C18   1.425340 A    
C5    N1    1.366630 A    
C38   C39   1.432748 A    
O6    Cu2   1.950740 S    
C50   H36   1.077946 S    
C7    C9    1.409498 A    
O4    C1    1.307799 A    
C33   O19   1.378082 S    
C45   H17   1.107505 S    
C52   H42   1.076642 S    
C48   H27   1.110341 S    
C5    O9    1.347786 S    
C31   C36   1.416681 A    
C6    O10   1.347387 S    
O20   H32   0.991659 S    
C26   O16   1.372813 S    
C42   H8    1.110007 S    
C16   C18   1.407099 A    
C43   H9    1.110631 S    
C21   C23   1.419611 A    
C28   C48   1.511765 S    
C15   O13   1.380211 S    
C47   H25   1.110724 S    
C22   C24   1.424446 A    
C39   C51   1.521208 S    
C32   O18   1.377923 S    
C32   C34   1.385243 A    
N1    C7    1.363832 A    
C38   C50   1.511677 S    
C50   H38   1.106986 S    
N2    C8    1.363145 A    
C11   C13   1.420700 A    
O4    Cu2   1.975550 S    
O14   H2    0.991734 S    
O2    Cu2   1.974850 S    
C44   H14   1.110000 S    
C5    C13   1.416879 A    
O8    C3    1.305725 A    
C41   H3    1.110427 S    
O5    Cu1   1.950740 S    
C46   H20   1.108067 S    
C14   C17   1.427940 A    
C6    N2    1.366562 A    
C39   N4    1.379533 A    
O19   H31   0.990378 S    
O16   H22   0.990857 S    
C38   N3    1.382824 A    
