data_mof_unit_50868.cif
_audit_creation_date              2012-12-10T17:40:59-0500
_audit_creation_method            fapswitch 2.2
_symmetry_space_group_name_H-M    P1
_symmetry_Int_Tables_number       1
_space_group_crystal_system       triclinic
_cell_length_a                    14.619878
_cell_length_b                    15.570931
_cell_length_c                    9.976862
_cell_angle_alpha                 92.523064
_cell_angle_beta                  89.628105
_cell_angle_gamma                 89.860464
_cell_volume                      2268.92592345

loop_
_atom_site_label
_atom_site_type_symbol
_atom_type_description
_atom_site_fract_x
_atom_site_fract_y
_atom_site_fract_z
_atom_type_partial_charge
C1    C     C_R   0.391728 0.871877 0.497536 0.984245
C2    C     C_R   0.381024 0.121491 0.504762 0.962372
C3    C     C_R   0.891729 0.371876 0.497535 0.984245
C4    C     C_R   0.881019 0.621487 0.504763 0.962306
C5    C     C_R   0.228074 0.170341 0.454857 0.343128
C6    C     C_R   0.301665 0.764442 0.371218 0.312582
C7    C     C_R   0.728075 0.670345 0.454829 0.343128
C8    C     C_R   0.801664 0.264443 0.371217 0.312610
C9    C     C_R   0.668012 0.738474 0.436817 0.333431
C10   C     C_R   0.725488 0.211455 0.375121 0.337892
C11   C     C_R   0.168004 0.238467 0.436849 0.333427
C12   C     C_R   0.225492 0.711450 0.375117 0.337927
C13   C     C_R   0.692024 0.819966 0.488815 -0.152309
C14   C     C_R   0.687757 0.190349 0.501356 -0.174259
C15   C     C_R   0.192022 0.319965 0.488814 -0.152318
C16   C     C_R   0.187752 0.690353 0.501351 -0.174253
C17   C     C_R   0.327123 0.980171 0.127582 0.437873
C18   C     C_R   0.827123 0.480173 0.127581 0.437899
C19   C     C_R   0.248699 0.964638 0.046184 0.358540
C20   C     C_R   0.748699 0.464645 0.046184 0.358537
C21   C     C_R   0.254094 0.974925 0.910720 -0.244208
C22   C     C_R   0.754093 0.474931 0.910720 -0.244191
C23   C     C_R   0.336613 0.992756 0.852492 -0.159522
C24   C     C_R   0.836613 0.492757 0.852491 -0.159448
C25   C     C_R   0.418387 0.995077 0.925289 0.014801
C26   C     C_R   0.918387 0.495078 0.925288 0.014794
C27   C     C_R   0.416531 0.992368 0.069036 -0.041442
C28   C     C_R   0.916531 0.492370 0.069035 -0.041454
C29   C     C_R   0.578969 0.003608 0.073694 0.504719
C30   C     C_R   0.078969 0.503607 0.073694 0.504727
C31   C     C_R   0.617810 0.123339 0.501487 0.937010
C32   C     C_R   0.621577 0.882376 0.497101 1.009754
C33   C     C_R   0.117808 0.623340 0.501486 0.937037
C34   C     C_R   0.121574 0.382374 0.497101 1.009802
C35   C     C_R   0.579369 0.003811 0.929976 0.362963
C36   C     C_R   0.079369 0.503810 0.929976 0.362920
C37   C     C_R   0.383623 0.277774 0.707474 0.371732
C38   C     C_R   0.378943 0.751948 0.723804 0.403228
C39   C     C_R   0.883563 0.777736 0.707565 0.371688
C40   C     C_R   0.878966 0.251937 0.723789 0.403226
C41   C     C_R   0.407077 0.362585 0.753783 0.270974
C42   C     C_R   0.342587 0.736651 0.852576 0.266538
C43   C     C_R   0.906998 0.862543 0.753929 0.271117
C44   C     C_R   0.842621 0.236631 0.852564 0.266542
C45   C     C_R   0.872768 0.932613 0.688517 -0.133075
C46   C     C_R   0.749330 0.220799 0.865687 -0.149075
C47   C     C_R   0.372813 0.432646 0.688385 -0.133142
C48   C     C_R   0.249294 0.720827 0.865687 -0.149082
C49   C     C_R   0.806243 0.921336 0.590495 0.380199
C50   C     C_R   0.692689 0.215627 0.753578 0.464907
C51   C     C_R   0.306255 0.421354 0.590414 0.380229
C52   C     C_R   0.192661 0.715651 0.753569 0.464916
C53   C     C_R   0.775338 0.836845 0.554268 -0.190493
C54   C     C_R   0.731325 0.219154 0.622640 -0.194360
C55   C     C_R   0.275348 0.336856 0.554225 -0.190482
C56   C     C_R   0.231309 0.719168 0.622637 -0.194376
C57   C     C_R   0.326426 0.266215 0.592561 -0.122852
C58   C     C_R   0.319147 0.753169 0.612609 -0.101557
C59   C     C_R   0.826400 0.766196 0.592611 -0.122818
C60   C     C_R   0.819162 0.253159 0.612603 -0.101547
C61   C     C_R   0.311130 0.186758 0.519616 -0.127113
C62   C     C_R   0.342888 0.790972 0.492015 -0.099488
C63   C     C_R   0.811120 0.686751 0.519623 -0.127099
C64   C     C_R   0.842893 0.290969 0.492011 -0.099464
H1    H     H_    0.193167 0.969726 0.849593 0.215664
H2    H     H_    0.693165 0.469733 0.849594 0.215705
N1    N     N_R   0.498810 0.000000 0.142780 -0.126928
N2    N     N_R   0.998810 0.500000 0.142780 -0.126930
N3    N     N_R   0.498740 0.000000 0.857170 -0.150219
N4    N     N_R   0.998740 0.500000 0.857170 -0.150237
O1    O     O_R   0.408390 0.908380 0.614690 -0.646130
O2    O     O_R   0.408390 0.091620 0.614690 -0.591151
O3    O     O_R   0.908390 0.408380 0.614690 -0.646139
O4    O     O_R   0.908390 0.591620 0.614690 -0.591167
O5    O     O_R   0.408370 0.908380 0.385360 -0.524199
O6    O     O_R   0.408370 0.091620 0.385360 -0.550043
O7    O     O_R   0.908370 0.408380 0.385360 -0.524204
O8    O     O_R   0.908370 0.591620 0.385360 -0.550034
O9    O     O_R   0.591620 0.091610 0.614640 -0.605774
O10   O     O_R   0.591620 0.908390 0.614640 -0.617368
O11   O     O_R   0.091620 0.591610 0.614640 -0.605795
O12   O     O_R   0.091620 0.408390 0.614640 -0.617363
O13   O     O_R   0.591610 0.091610 0.385310 -0.524657
O14   O     O_R   0.591610 0.908390 0.385310 -0.571072
O15   O     O_R   0.091610 0.591610 0.385310 -0.524651
O16   O     O_R   0.091610 0.408390 0.385310 -0.571105
Zn1   Zn    Zn3+2 0.500010 1.000000 0.653130 1.009043
Zn2   Zn    Zn3+2 0.000010 0.500000 0.653130 1.009006
Zn3   Zn    Zn3+2 0.499980 1.000000 0.346870 1.098121
Zn4   Zn    Zn3+2 0.999980 0.500000 0.346870 1.098110
O17   O     O_3   0.203850 0.086235 0.424885 -0.767236
H3    H     H_    0.136466 0.080641 0.429813 0.352915
O18   O     O_3   0.336953 0.790901 0.250868 -0.701445
H4    H     H_    0.287144 0.794265 0.184630 0.336491
O19   O     O_3   0.703849 0.586242 0.424830 -0.767201
H5    H     H_    0.636465 0.580649 0.429771 0.352905
O20   O     O_3   0.836947 0.290905 0.250865 -0.701463
H6    H     H_    0.787140 0.294263 0.184625 0.336479
H7    H     H_    0.333350 0.003846 0.748758 0.238201
H8    H     H_    0.833350 0.503846 0.748758 0.238209
O21   O     O_3   0.663240 0.007875 0.867173 -0.786732
H9    H     H_    0.654296 0.004863 0.770115 0.407984
O22   O     O_3   0.163240 0.507874 0.867173 -0.786745
H10   H     H_    0.154296 0.504863 0.770115 0.407978
O23   O     O_3   0.403558 0.207841 0.782580 -0.717860
H11   H     H_    0.437695 0.225131 0.864308 0.371632
O24   O     O_3   0.471774 0.760887 0.701218 -0.737413
H12   H     H_    0.505838 0.731859 0.771802 0.343770
O25   O     O_3   0.903469 0.707788 0.782652 -0.717916
H13   H     H_    0.937717 0.725039 0.864294 0.371652
O26   O     O_3   0.971795 0.260884 0.701190 -0.737398
H14   H     H_    0.005866 0.231854 0.771766 0.343763
O27   O     O_3   0.464608 0.378942 0.860358 -0.715296
H15   H     H_    0.435158 0.354557 0.939871 0.348911
O28   O     O_3   0.393851 0.743160 0.968090 -0.726997
H16   H     H_    0.445339 0.783049 0.954032 0.345957
O29   O     O_3   0.964458 0.878897 0.860592 -0.715221
H17   H     H_    0.935032 0.854388 0.940023 0.348901
O30   O     O_3   0.893892 0.243139 0.968072 -0.726972
H18   H     H_    0.945375 0.283033 0.954010 0.345948
H19   H     H_    0.894725 0.996971 0.718780 0.206380
H20   H     H_    0.719493 0.216739 0.964772 0.195977
H21   H     H_    0.394781 0.497008 0.718607 0.206360
H22   H     H_    0.219449 0.716773 0.964768 0.195988
O31   O     O_3   0.776148 0.993659 0.529161 -0.775152
H23   H     H_    0.758482 0.976583 0.436088 0.346007
O32   O     O_3   0.600104 0.220001 0.777373 -0.712260
H24   H     H_    0.571196 0.244442 0.697887 0.339492
O33   O     O_3   0.276136 0.493667 0.529078 -0.775156
H25   H     H_    0.258461 0.476582 0.436012 0.346030
O34   O     O_3   0.100073 0.720023 0.777347 -0.712406
H26   H     H_    0.071167 0.744451 0.697849 0.339381
O35   O     O_3   0.585558 0.727763 0.370865 -0.728748
H27   H     H_    0.591740 0.679745 0.302886 0.366177
O36   O     O_3   0.686087 0.182523 0.256095 -0.731185
H28   H     H_    0.735835 0.164745 0.192686 0.363999
O37   O     O_3   0.085539 0.227745 0.370932 -0.728756
H29   H     H_    0.091721 0.179736 0.302939 0.366166
O38   O     O_3   0.186104 0.682506 0.256087 -0.731175
H30   H     H_    0.235859 0.664739 0.192682 0.364012
O39   O     O_3   0.658684 0.004719 0.147201 -0.715658
H31   H     H_    0.712486 0.006149 0.086755 0.366154
O40   O     O_3   0.158684 0.504717 0.147201 -0.715658
H32   H     H_    0.212486 0.506144 0.086755 0.366141
O41   O     O_3   0.312853 0.994880 0.260898 -0.658193
H33   H     H_    0.258700 0.963179 0.291425 0.355002
O42   O     O_3   0.812854 0.494877 0.260898 -0.658168
H34   H     H_    0.758705 0.463169 0.291422 0.355005
O43   O     O_3   0.163230 0.948813 0.098363 -0.712393
H35   H     H_    0.169194 0.899452 0.157031 0.319117
O44   O     O_3   0.663229 0.448825 0.098365 -0.712419
H36   H     H_    0.669189 0.399456 0.157018 0.319121

loop_
_geom_bond_atom_site_label_1
_geom_bond_atom_site_label_2
_ccdc_geom_bond_type
C58   C62   A    
C23   H7    S    
O18   H4    S    
C40   C60   A    
O19   H5    S    
C13   C32   S    
O42   H34   S    
C14   C31   S    
N4    Zn2   S    
C1    C62   S    
O9    Zn1   S    
O41   H33   S    
C53   C59   A    
O36   H28   S    
C54   C60   A    
C3    C64   S    
O8    Zn4   S    
C37   O23   S    
C4    C63   S    
C1    O1    A    
C36   O22   S    
C28   N2    A    
C24   C26   A    
C5    C11   A    
O10   Zn1   S    
C6    C12   A    
C49   C53   A    
O28   H16   S    
N1    Zn3   S    
C31   O13   A    
C18   C20   A    
C34   O16   A    
C38   O24   S    
C9    C13   A    
C22   H2    S    
C33   O15   A    
C19   O43   S    
C38   C58   A    
C11   C15   A    
C12   C16   A    
C36   N4    A    
N2    Zn4   S    
O24   H12   S    
C15   C34   S    
C4    O4    A    
N3    Zn1   S    
C2    C61   S    
O6    Zn3   S    
C29   O39   S    
C29   N1    A    
O39   H31   S    
C2    O2    A    
C44   C46   A    
O20   H6    S    
C40   O26   S    
C13   C53   A    
C51   O33   S    
O13   Zn3   S    
O38   H30   S    
O7    Zn4   S    
C39   O25   S    
C1    O5    A    
O21   H9    S    
C18   C28   A    
C10   O36   S    
O27   H15   S    
C18   O42   S    
C10   C14   A    
O17   H3    S    
C39   C43   A    
C44   O30   S    
C45   H19   S    
C49   O31   S    
C30   O40   S    
C17   C27   A    
C17   O41   S    
C8    O20   S    
C16   C56   A    
O3    Zn2   S    
C4    O8    A    
C16   C33   S    
C32   O10   A    
C47   H21   S    
C45   C49   A    
O44   H36   S    
C6    O18   S    
C39   C59   A    
C41   C47   A    
C12   O38   S    
C5    C61   A    
C42   C48   A    
C57   C61   A    
C43   C45   A    
C7    C63   A    
C5    O17   S    
C8    C64   A    
O1    Zn1   S    
C14   C54   A    
C20   C22   A    
C21   C23   A    
O16   Zn4   S    
O31   H23   S    
C26   N4    A    
C22   C24   A    
O15   Zn4   S    
C25   N3    A    
O14   Zn3   S    
C40   C44   A    
O34   H26   S    
C3    O7    A    
O2    Zn1   S    
C2    O6    A    
O33   H25   S    
O23   H11   S    
C7    C9    A    
C46   C50   A    
O26   H14   S    
C21   H1    S    
C24   H8    S    
C52   O34   S    
C26   C28   A    
C32   O14   A    
C41   O27   S    
C35   O21   S    
C48   H22   S    
C47   C51   A    
O30   H18   S    
C31   O9    A    
C25   C27   A    
C7    O19   S    
O37   H29   S    
C29   C35   A    
C59   C63   A    
C20   O44   S    
C30   C36   A    
C60   C64   A    
C6    C62   A    
C55   C57   A    
O40   H32   S    
C11   O37   S    
C50   C54   A    
O43   H35   S    
O35   H27   S    
O12   Zn2   S    
C17   C19   A    
C56   C58   A    
C51   C55   A    
C23   C25   A    
C37   C41   A    
C3    O3    A    
C30   N2    A    
O11   Zn2   S    
C27   N1    A    
O5    Zn3   S    
C38   C42   A    
C52   C56   A    
C42   O28   S    
C48   C52   A    
C35   N3    A    
C8    C10   A    
O25   H13   S    
O22   H10   S    
C43   O29   S    
C46   H20   S    
C50   O32   S    
C34   O12   A    
O4    Zn2   S    
O29   H17   S    
C33   O11   A    
C37   C57   A    
O32   H24   S    
C15   C55   A    
C19   C21   A    
C9    O35   S    
