data_mof_unit_67625.cif
_audit_creation_date              2012-12-10T18:19:57-0500
_audit_creation_method            fapswitch 2.2
_symmetry_space_group_name_H-M    P1
_symmetry_Int_Tables_number       1
_space_group_crystal_system       triclinic
_cell_length_a                    10.703548
_cell_length_b                    10.618398
_cell_length_c                    9.426285
_cell_angle_alpha                 89.82671
_cell_angle_beta                  89.959867
_cell_angle_gamma                 90.373369
_cell_volume                      1071.31209164

loop_
_atom_site_label
_atom_site_type_symbol
_atom_type_description
_atom_site_fract_x
_atom_site_fract_y
_atom_site_fract_z
_atom_type_partial_charge
C1    C     C_R   0.500300 0.259574 0.500479 0.804974
C2    C     C_R   0.499699 0.740426 0.499521 0.804969
C3    C     C_3   0.420960 0.956244 0.600498 -0.183031
C4    C     C_3   0.579038 0.043757 0.399501 -0.183035
C5    C     C_3   0.561365 0.595848 0.050156 -0.032321
C6    C     C_3   0.438635 0.404152 0.949844 -0.032324
C7    C     C_3   0.448797 0.600997 0.949091 -0.043474
C8    C     C_3   0.551203 0.399003 0.050910 -0.043474
C9    C     C_3   0.612689 0.494755 0.949606 -0.014154
C10   C     C_3   0.387311 0.505244 0.050394 -0.014154
C11   C     C_R   0.259585 0.497413 0.500195 0.861039
C12   C     C_R   0.740415 0.502588 0.499805 0.861041
C13   C     C_3   0.039552 0.467189 0.630649 0.171438
C14   C     C_3   0.960448 0.532814 0.369352 0.171440
C15   C     C_3   0.954689 0.385823 0.534192 0.116497
C16   C     C_3   0.045311 0.614180 0.465809 0.116498
C17   C     C_3   0.877116 0.503492 0.499117 -0.192077
C18   C     C_3   0.122884 0.496511 0.500884 -0.192076
C19   C     C_3   0.961117 0.584624 0.595004 0.009662
C20   C     C_3   0.038882 0.415380 0.404997 0.009661
C21   C     C_3   0.537597 0.038524 0.627254 0.149800
C22   C     C_3   0.462400 0.961476 0.372746 0.149798
C23   C     C_3   0.616574 0.957877 0.525629 -0.183911
C24   C     C_3   0.383423 0.042124 0.474370 -0.183910
C25   C     C_3   0.499576 0.877202 0.497858 -0.047633
C26   C     C_3   0.500422 0.122799 0.502141 -0.047633
Cu1   Cu    Cu3+1 0.500030 0.499990 0.643150 0.947729
Cu2   Cu    Cu3+1 0.499970 0.500010 0.356850 0.947728
H1    H     H_    0.711587 0.920237 0.544575 0.149588
H2    H     H_    0.288411 0.079764 0.455423 0.149588
H3    H     H_    0.356219 0.917121 0.681612 0.151683
H4    H     H_    0.643778 0.082879 0.318386 0.151687
H5    H     H_    0.405265 0.685839 0.901636 0.122449
H6    H     H_    0.594734 0.314160 0.098363 0.122450
H7    H     H_    0.612702 0.676843 0.096842 0.138294
H8    H     H_    0.387299 0.323158 0.903158 0.138296
H9    H     H_    0.707796 0.489002 0.903360 0.152845
H10   H     H_    0.292205 0.510998 0.096642 0.152846
N1    N     N_3   0.500090 0.499970 0.858290 -0.161859
N2    N     N_3   0.499910 0.500030 0.141710 -0.161859
O1    O     O_R   0.500060 0.316850 0.620870 -0.587714
O2    O     O_R   0.499940 0.683150 0.379130 -0.587716
O3    O     O_R   0.500000 0.316860 0.379090 -0.594148
O4    O     O_R   0.500000 0.683140 0.620910 -0.594148
O5    O     O_R   0.316880 0.499960 0.620870 -0.553415
O6    O     O_R   0.683120 0.500040 0.379130 -0.553414
O7    O     O_R   0.316830 0.499970 0.379090 -0.589911
O8    O     O_R   0.683170 0.500030 0.620910 -0.589909
I1    I     I_    0.883197 0.203730 0.592337 -0.460375
I2    I     I_    0.116802 0.796273 0.407661 -0.460380
I3    I     I_    0.097308 0.402354 0.835956 -0.449254
I4    I     I_    0.902693 0.597648 0.164044 -0.449264
C27   C     C_3   0.912426 0.683795 0.698739 -0.349154
C28   C     C_3   0.017130 0.743441 0.787964 -0.303849
C29   C     C_3   0.969723 0.858260 0.867588 -0.818946
H11   H     H_    0.947375 0.934913 0.791597 0.276822
H12   H     H_    0.885696 0.832708 0.930594 0.271152
H13   H     H_    0.042135 0.893375 0.941416 0.259343
H14   H     H_    0.051756 0.674314 0.866659 0.261517
H15   H     H_    0.097152 0.772594 0.720471 0.243670
H16   H     H_    0.864039 0.757702 0.636208 0.199202
H17   H     H_    0.843138 0.639166 0.771014 0.213281
C30   C     C_3   0.087570 0.316208 0.301262 -0.349146
C31   C     C_3   0.982863 0.256564 0.212037 -0.303873
C32   C     C_3   0.030260 0.141741 0.132423 -0.818966
H18   H     H_    0.114309 0.167275 0.069442 0.271143
H19   H     H_    0.052576 0.065082 0.208417 0.276840
H20   H     H_    0.957853 0.106650 0.058573 0.259348
H21   H     H_    0.902840 0.227422 0.279528 0.243674
H22   H     H_    0.948245 0.325688 0.133339 0.261525
H23   H     H_    0.156861 0.360834 0.228988 0.213278
H24   H     H_    0.135956 0.242300 0.363795 0.199206
C33   C     C_3   0.578514 0.086406 0.773019 -0.369690
C34   C     C_3   0.648340 0.985800 0.857430 -0.351237
C35   C     C_3   0.694357 0.039226 0.998055 -0.870495
H25   H     H_    0.757848 0.120369 0.978318 0.270832
H26   H     H_    0.614832 0.072448 0.062230 0.247102
H27   H     H_    0.744533 0.965842 0.059201 0.254783
H28   H     H_    0.587607 0.902510 0.877144 0.211875
H29   H     H_    0.730065 0.954087 0.795430 0.235195
H30   H     H_    0.641188 0.168982 0.758377 0.240614
H31   H     H_    0.494860 0.117739 0.832684 0.195262
C36   C     C_3   0.421484 0.913589 0.226982 -0.369688
C37   C     C_3   0.351647 0.014186 0.142571 -0.351249
C38   C     C_3   0.305626 0.960754 0.001950 -0.870471
H32   H     H_    0.385146 0.927540 0.937762 0.247096
H33   H     H_    0.242144 0.879601 0.021695 0.270834
H34   H     H_    0.255432 0.034131 0.940813 0.254781
H35   H     H_    0.269924 0.045896 0.204577 0.235201
H36   H     H_    0.412374 0.097476 0.122850 0.211877
H37   H     H_    0.505140 0.882262 0.167315 0.195262
H38   H     H_    0.358817 0.831007 0.241627 0.240617

loop_
_geom_bond_atom_site_label_1
_geom_bond_atom_site_label_2
_ccdc_geom_bond_type
Cu1   O8    S    
C7    C10   S    
C29   H11   S    
Cu2   O7    S    
C33   C34   S    
C11   O7    A    
C12   O8    A    
C11   C18   S    
C28   H15   S    
C27   C28   S    
C36   H38   S    
Cu2   O6    S    
C13   C18   S    
C23   H1    S    
C24   C26   S    
Cu2   N2    S    
C21   C33   S    
C9    N1    S    
C10   N2    S    
C13   I3    S    
C27   H16   S    
Cu1   O4    S    
C1    O3    A    
C14   I4    S    
C2    O4    A    
C8    C9    S    
C32   H19   S    
C22   C25   S    
C12   C17   S    
C31   H22   S    
C18   C20   S    
C19   C27   S    
C23   C25   S    
C34   H29   S    
C7    H5    S    
C14   C17   S    
C3    C24   S    
C37   H36   S    
C33   H30   S    
C21   C26   S    
C28   H14   S    
C38   H33   S    
C15   C20   S    
C34   C35   S    
C13   C19   S    
C14   C20   S    
C3    C25   S    
C37   C38   S    
C12   O6    A    
Cu1   N1    S    
C5    C7    S    
C4    C23   S    
C6    C8    S    
C38   H32   S    
C35   H25   S    
C5    C9    S    
C4    C22   S    
C27   H17   S    
Cu1   O1    S    
C36   C37   S    
C32   H20   S    
C9    H9    S    
C29   H12   S    
C8    H6    S    
C31   H21   S    
C3    H3    S    
C35   H26   S    
C4    H4    S    
C1    O1    A    
C30   H23   S    
C34   H28   S    
C13   C15   S    
C1    C26   S    
C14   C16   S    
C3    C21   S    
C37   H35   S    
C33   H31   S    
C38   H34   S    
C15   C17   S    
C28   C29   S    
C16   I2    S    
C6    C10   S    
C4    C26   S    
C36   H37   S    
Cu2   O3    S    
C10   H10   S    
C22   C36   S    
C20   C30   S    
C21   C23   S    
C31   C32   S    
Cu1   O5    S    
C2    O2    A    
C16   C19   S    
C5    H7    S    
Cu2   O2    S    
C17   C19   S    
C6    H8    S    
C2    C25   S    
C22   C24   S    
C15   I1    S    
C35   H27   S    
C24   H2    S    
C11   O5    A    
C30   C31   S    
C30   H24   S    
C16   C18   S    
C32   H18   S    
C29   H13   S    
Cu1   Cu2   S    
C7    N1    S    
C6    N1    S    
C8    N2    S    
C5    N2    S    
