data_mof_unit_56528.cif
_audit_creation_date              2012-12-10T17:56:17-0500
_audit_creation_method            fapswitch 2.2
_symmetry_space_group_name_H-M    P1
_symmetry_Int_Tables_number       1
_space_group_crystal_system       triclinic
_cell_length_a                    13.011664
_cell_length_b                    10.790646
_cell_length_c                    9.51909
_cell_angle_alpha                 89.959554
_cell_angle_beta                  96.100865
_cell_angle_gamma                 90.208691
_cell_volume                      1328.94230487

loop_
_atom_site_label
_atom_site_type_symbol
_atom_type_description
_atom_site_fract_x
_atom_site_fract_y
_atom_site_fract_z
_atom_type_partial_charge
C1    C     C_R   0.503097 0.262391 0.500491 0.773572
C2    C     C_R   0.496906 0.737609 0.499509 0.773576
C3    C     C_R   0.495111 0.871520 0.499333 -0.146738
C4    C     C_R   0.504894 0.128481 0.500666 -0.146730
C5    C     C_R   0.431163 0.428721 0.064468 -0.003373
C6    C     C_R   0.568837 0.571279 0.935532 -0.003376
C7    C     C_R   0.431220 0.428717 0.915655 -0.004517
C8    C     C_R   0.568779 0.571283 0.084345 -0.004509
C9    C     C_R   0.300555 0.499529 0.473672 0.804715
C10   C     C_R   0.699445 0.500469 0.526327 0.804713
C11   C     C_R   0.812047 0.503666 0.541728 -0.086980
C12   C     C_R   0.187952 0.496329 0.458269 -0.086989
C13   C     C_R   0.025581 0.457595 0.314634 -0.007977
C14   C     C_R   0.974420 0.542391 0.685363 -0.007979
C15   C     C_R   0.133419 0.463221 0.329584 -0.153410
C16   C     C_R   0.866582 0.536773 0.670412 -0.153412
C17   C     C_R   0.135518 0.524744 0.574255 -0.252832
C18   C     C_R   0.864481 0.475244 0.425742 -0.252824
C19   C     C_R   0.027906 0.516603 0.565954 0.083603
C20   C     C_R   0.972093 0.483383 0.434042 0.083596
C21   C     C_R   0.435607 0.067371 0.401382 -0.126925
C22   C     C_R   0.564400 0.932629 0.598614 -0.126907
C23   C     C_R   0.428793 0.938541 0.400091 -0.012447
C24   C     C_R   0.571218 0.061460 0.599902 -0.012440
Cu1   Cu    Cu3+1 0.500000 0.500020 0.640660 0.956725
Cu2   Cu    Cu3+1 0.500000 0.499980 0.359340 0.956732
H1    H     H_    0.824705 0.557383 0.760104 0.184930
H2    H     H_    0.175297 0.442615 0.239893 0.184936
H3    H     H_    0.384287 0.121191 0.327779 0.181379
H4    H     H_    0.615720 0.878807 0.672217 0.181388
H5    H     H_    0.376121 0.371488 0.112598 0.131410
H6    H     H_    0.623879 0.628512 0.887402 0.131411
H7    H     H_    0.376223 0.371429 0.851653 0.135317
H8    H     H_    0.623777 0.628571 0.148347 0.135318
N1    N     N_R   0.500030 0.500030 0.852080 -0.168255
N2    N     N_R   0.499970 0.499970 0.147920 -0.168255
O1    O     O_R   0.499990 0.319660 0.618740 -0.586849
O2    O     O_R   0.500010 0.680340 0.381260 -0.586836
O3    O     O_R   0.499990 0.319630 0.381170 -0.571599
O4    O     O_R   0.500010 0.680370 0.618830 -0.571598
O5    O     O_R   0.349000 0.499990 0.599490 -0.582411
O6    O     O_R   0.651000 0.500010 0.400510 -0.582414
O7    O     O_R   0.348990 0.499960 0.361920 -0.597208
O8    O     O_R   0.651010 0.500040 0.638080 -0.597213
H9    H     H_    0.819757 0.445318 0.329794 0.144017
H10   H     H_    0.180241 0.554669 0.670204 0.144022
C25   C     C_2   0.972190 0.426821 0.172634 0.415458
H11   H     H_    0.893855 0.456721 0.140715 0.074864
O9    O     O_2   0.016610 0.368648 0.087236 -0.534566
C26   C     C_2   0.027813 0.573150 0.827367 0.415465
H12   H     H_    0.106138 0.543221 0.859291 0.074883
O10   O     O_2   0.983406 0.631341 0.912759 -0.534556
C27   C     C_2   0.348871 0.876711 0.300308 0.388614
H13   H     H_    0.329828 0.779724 0.312769 0.084858
O11   O     O_2   0.302009 0.934129 0.203228 -0.523416
C28   C     C_2   0.651149 0.123288 0.699674 0.388572
H14   H     H_    0.670157 0.220289 0.687257 0.084889
O12   O     O_2   0.698062 0.065852 0.796695 -0.523419

loop_
_geom_bond_atom_site_label_1
_geom_bond_atom_site_label_2
_ccdc_geom_bond_type
C12   C17   A    
C6    H6    S    
C5    N2    A    
C11   C18   A    
C24   C28   S    
C11   C16   A    
C2    O2    A    
C27   O11   D    
C9    O5    A    
C19   C20   A    
C12   C15   A    
C1    O1    A    
C1    C4    S    
Cu1   O1    S    
C16   H1    S    
C21   C23   A    
C2    C3    S    
Cu1   Cu2   S    
C25   O9    D    
C8    H8    S    
C27   H13   S    
C17   H10   S    
C4    C21   A    
C7    H7    S    
C15   H2    S    
C14   C26   S    
C21   H3    S    
Cu1   N1    S    
Cu1   O8    S    
Cu2   N2    S    
C17   C19   A    
C28   O12   D    
Cu2   O7    S    
C23   C27   S    
C18   C20   A    
C13   C15   A    
Cu1   O4    S    
C4    C24   A    
C9    C12   S    
C14   C16   A    
Cu2   O3    S    
C9    O7    A    
C10   O6    A    
C10   C11   S    
C1    O3    A    
C10   O8    A    
C18   H9    S    
C2    O4    A    
C28   H14   S    
Cu2   O6    S    
C5    C7    A    
C8    N2    A    
C22   C24   A    
Cu1   O5    S    
C26   O10   D    
C13   C25   S    
Cu2   O2    S    
C3    C22   A    
C6    C8    A    
C22   H4    S    
C13   C20   A    
C26   H12   S    
C3    C23   A    
C7    N1    A    
C14   C19   A    
C6    N1    A    
C25   H11   S    
C5    H5    S    
