data_mof_unit_60480.cif
_audit_creation_date              2012-12-11T17:27:18-0500
_audit_creation_method            fapswitch 2.2
_symmetry_space_group_name_H-M    P1
_symmetry_Int_Tables_number       1
_space_group_crystal_system       triclinic
_cell_length_a                    6.956041
_cell_length_b                    21.239488
_cell_length_c                    22.909233
_cell_angle_alpha                 92.95396
_cell_angle_beta                  89.100228
_cell_angle_gamma                 89.493934
_cell_volume                      3379.60139457

loop_
_atom_site_label
_atom_site_type_symbol
_atom_type_description
_atom_site_fract_x
_atom_site_fract_y
_atom_site_fract_z
_atom_type_partial_charge
O1    O     O_R   0.494570 0.443040 0.441850 -0.532932
O2    O     O_R   0.823720 0.437670 0.557760 -0.535552
O3    O     O_R   0.994070 0.556960 0.558150 -0.523208
C1    C     C_R   0.654385 0.422762 0.577136 0.727225
O4    O     O_R   0.824280 0.435690 0.442260 -0.536901
O5    O     O_R   0.994640 0.554970 0.441830 -0.532458
C2    C     C_R   0.657215 0.420334 0.422968 0.741794
O6    O     O_R   0.494000 0.445030 0.558170 -0.533587
O7    O     O_3   0.660820 0.539140 0.499990 -0.364662
V1    V     V_3+5 0.935650 0.492740 0.500000 1.427547
O8    O     O_R   0.324360 0.562330 0.442240 -0.535584
C3    C     C_R   0.155960 0.577036 0.422509 0.728789
O9    O     O_R   0.323800 0.564310 0.557740 -0.524772
C4    C     C_R   0.153197 0.582222 0.579997 0.699456
V2    V     V_3+5 0.435660 0.507260 0.500000 1.426767
O10   O     O_3   0.160620 0.460860 0.500010 -0.361065
C5    C     C_1   0.139793 0.633383 0.631293 -0.204395
C6    C     C_1   0.128916 0.675073 0.673606 0.012929
C7    C     C_1   0.115952 0.724844 0.724348 -0.000599
C8    C     C_1   0.105125 0.766412 0.766768 -0.000957
C9    C     C_1   0.092140 0.816182 0.817511 0.011650
C10   C     C_1   0.081206 0.857871 0.859824 -0.204082
H1    H     H_    0.407622 0.787760 0.201494 0.114372
C11   C     C_R   0.290301 0.727299 0.265559 -0.149859
H2    H     H_    0.430815 0.713539 0.280477 0.112136
C12   C     C_R   0.123532 0.702990 0.291086 0.134634
C13   C     C_R   0.943335 0.721716 0.270729 -0.149572
H3    H     H_    0.812772 0.703574 0.289706 0.112913
C14   C     C_R   0.930093 0.764036 0.225642 -0.146779
H4    H     H_    0.789580 0.777794 0.210723 0.113116
C15   C     C_R   0.096863 0.788342 0.200112 0.135118
C16   C     C_R   0.277060 0.769619 0.220472 -0.146036
C17   C     C_1   0.136949 0.658848 0.337747 -0.052350
C18   C     C_1   0.083444 0.832461 0.153434 -0.044777
C19   C     C_1   0.073630 0.869494 0.114655 -0.177081
C20   C     C_1   0.146753 0.621792 0.376507 -0.187434
H5    H     H_    0.311137 0.290318 0.705963 0.113011
C21   C     C_R   0.430547 0.226011 0.765709 -0.151289
H6    H     H_    0.290570 0.211144 0.780797 0.112158
C22   C     C_R   0.598370 0.200384 0.788597 0.136095
C23   C     C_R   0.778039 0.220477 0.768318 -0.150823
H7    H     H_    0.909162 0.201277 0.785447 0.112837
C24   C     C_R   0.789752 0.265588 0.725705 -0.150722
H8    H     H_    0.929729 0.280451 0.710613 0.112445
C25   C     C_R   0.621929 0.291213 0.702815 0.136288
C26   C     C_R   0.442260 0.271122 0.723096 -0.150311
C27   C     C_1   0.586373 0.153752 0.832796 -0.055319
C28   C     C_1   0.633929 0.337815 0.658589 -0.053866
C29   C     C_1   0.643545 0.376631 0.621546 -0.182687
C30   C     C_1   0.576765 0.114895 0.869802 -0.182212
H9    H     H_    0.342398 0.319851 0.269112 0.128311
C31   C     C_R   0.445817 0.242952 0.212831 -0.164291
H10   H     H_    0.316172 0.241260 0.187194 0.164517
C32   C     C_R   0.598228 0.201048 0.200046 0.073223
C33   C     C_R   0.766823 0.203158 0.232923 0.272371
C34   C     C_R   0.781243 0.247917 0.278981 -0.178185
H11   H     H_    0.910704 0.250227 0.304710 0.151589
C35   C     C_R   0.628196 0.289533 0.291703 0.087886
C36   C     C_R   0.460665 0.287333 0.258984 -0.148681
C37   C     C_1   0.579948 0.155973 0.153159 0.041132
C38   C     C_1   0.642608 0.334961 0.338370 -0.039849
C39   C     C_1   0.651297 0.373788 0.377364 -0.189293
C40   C     C_1   0.568946 0.117425 0.114008 -0.132597
O11   O     O_R   0.726340 0.046440 0.933120 -0.535504
O12   O     O_R   0.395690 0.055650 0.048950 -0.532113
O13   O     O_R   0.225700 0.936320 0.049330 -0.531520
C41   C     C_R   0.562694 0.071057 0.068282 0.742781
O14   O     O_R   0.396600 0.053690 0.933450 -0.537576
O15   O     O_R   0.226620 0.934340 0.933010 -0.525579
C42   C     C_R   0.565942 0.068693 0.914148 0.718465
O16   O     O_R   0.725420 0.048420 0.049440 -0.526051
O17   O     O_3   0.559650 0.952270 0.991250 -0.368567
V3    V     V_3+5 0.284670 0.998570 0.991180 1.452155
O18   O     O_R   0.896930 0.926880 0.933340 -0.527475
C43   C     C_R   0.067617 0.909026 0.911121 0.690268
O19   O     O_R   0.896010 0.928840 0.048840 -0.535251
C44   C     C_R   0.064400 0.914220 0.068630 0.742864
V4    V     V_3+5 0.784710 0.983880 0.991060 1.446509
O20   O     O_3   0.059600 0.030370 0.991120 -0.358488
Br1   Br    Br    0.978552 0.146023 0.216420 -0.580459

loop_
_geom_bond_atom_site_label_1
_geom_bond_atom_site_label_2
_ccdc_geom_bond_type
C22   C27   S    
C33   C34   A    
C13   C14   A    
C23   H7    S    
C7    C8    T    
C1    O6    A    
C32   C37   S    
C25   C26   A    
C12   C13   A    
C37   C40   T    
O19   V4    S    
C6    C7    S    
O5    C3    A    
C21   H6    S    
V2    O10   S    
C17   C20   T    
O12   V3    S    
C34   H11   S    
C18   C19   T    
O17   V4    S    
O8    V2    S    
O12   C41   A    
O15   V3    S    
O1    V2    S    
O11   C42   A    
C3    C20   S    
O7    V1    S    
O14   V3    S    
C35   C38   S    
O9    C4    A    
C23   C24   A    
C4    C5    S    
C10   C43   S    
C31   C32   A    
C27   C30   T    
C40   C41   S    
O18   C43   A    
C11   H2    S    
O4    C2    A    
V4    O20   S    
C35   C36   A    
O13   V3    S    
C19   C44   S    
O2    C1    A    
C24   H8    S    
C11   C16   A    
C2    C39   S    
C14   H4    S    
C31   C36   A    
C12   C17   S    
C15   C16   A    
C5    C6    T    
V3    O20   S    
C15   C18   S    
O19   C44   A    
C24   C25   A    
O3    C4    A    
C28   C29   T    
O6    V2    S    
O9    V2    S    
H9    C36   S    
O2    V1    S    
C31   H10   S    
C25   C28   S    
O13   C44   A    
C32   C33   A    
C22   C23   A    
O1    C2    A    
O11   V4    S    
C11   C12   A    
O17   V3    S    
O5    V1    S    
O8    C3    A    
C1    C29   S    
H1    C16   S    
C30   C42   S    
O4    V1    S    
C14   C15   A    
O3    V1    S    
V1    O10   S    
C21   C22   A    
C33   Br1   S    
C34   C35   A    
O15   C43   A    
C41   O16   A    
O7    V2    S    
C38   C39   T    
C21   C26   A    
C8    C9    S    
O14   C42   A    
O18   V4    S    
C13   H3    S    
H5    C26   S    
C9    C10   T    
O16   V4    S    
