data_mof_unit_13622.cif
_audit_creation_date              2012-12-11T14:36:02-0500
_audit_creation_method            fapswitch 2.2
_symmetry_space_group_name_H-M    P1
_symmetry_Int_Tables_number       1
_space_group_crystal_system       triclinic
_cell_length_a                    13.630055
_cell_length_b                    13.565677
_cell_length_c                    27.426571
_cell_angle_alpha                 90.431722
_cell_angle_beta                  90.116875
_cell_angle_gamma                 59.707213
_cell_volume                      4378.63871144

loop_
_atom_site_label
_atom_site_type_symbol
_atom_type_description
_atom_site_fract_x
_atom_site_fract_y
_atom_site_fract_z
_atom_type_partial_charge
C1    C     C_R   0.620041 0.101465 0.570646 0.540489
C2    C     C_1   0.640779 0.714255 0.612333 -0.025391
C3    C     C_3   0.647460 0.573988 0.766851 -0.075000
C4    C     C_3   0.688433 0.634589 0.802011 0.056733
C5    C     C_3   0.573796 0.688569 0.740300 -0.115874
C6    C     C_3   0.675164 0.659858 0.706653 0.040836
C7    C     C_3   0.614940 0.748628 0.776217 -0.120701
C8    C     C_3   0.715974 0.720586 0.741892 -0.106777
C9    C     C_1   0.694257 0.619281 0.855095 -0.034251
C10   C     C_1   0.661589 0.681864 0.653983 -0.054276
C11   C     C_3   0.044103 0.200851 0.730430 0.324807
C12   C     C_R   0.603161 0.773027 0.566560 0.528152
C13   C     C_3   0.103960 0.101185 0.767071 -0.097921
C14   C     C_1   0.082846 0.208882 0.898619 0.012804
C15   C     C_1   0.214195 0.147243 0.613111 -0.017609
C16   C     C_3   0.056678 0.282899 0.766033 -0.025817
C17   C     C_3   0.119879 0.182407 0.801896 0.001676
C18   C     C_3   0.171588 0.249094 0.742005 0.171043
C19   C     C_3   0.156426 0.169651 0.706720 0.043459
C20   C     C_3   0.234615 0.149707 0.778185 -0.101679
C21   C     C_3   0.219227 0.069005 0.742521 -0.204681
C22   C     C_1   0.102369 0.193493 0.855270 -0.008337
C23   C     C_R   0.272855 0.124530 0.567686 0.525411
C24   C     C_1   0.179621 0.161546 0.654330 -0.028382
C25   C     C_3   0.616752 0.286979 0.742276 -0.118050
C26   C     C_3   0.541532 0.271651 0.780692 -0.070784
C27   C     C_1   0.684744 0.209308 0.905641 0.021288
C28   C     C_1   0.634574 0.134799 0.619550 -0.039412
C29   C     C_3   0.721724 0.215211 0.774916 0.177779
C30   C     C_3   0.646918 0.198898 0.811806 0.022794
C31   C     C_3   0.745661 0.103995 0.748373 -0.151136
C32   C     C_3   0.639605 0.175690 0.715986 0.009517
C33   C     C_3   0.670318 0.088783 0.786408 -0.125747
C34   C     C_R   0.597994 0.068296 0.425978 0.566796
C35   C     C_3   0.565857 0.161121 0.754595 0.319241
C36   C     C_1   0.661611 0.203908 0.864006 -0.006571
C37   C     C_1   0.639091 0.156475 0.662440 -0.064203
C38   C     C_R   0.734126 0.704044 0.360156 -0.140059
C39   C     C_R   0.745425 0.683936 0.310002 0.010879
C40   C     C_R   0.757015 0.663817 0.208212 0.012061
C41   C     C_R   0.841647 0.671055 0.234167 -0.087899
C42   C     C_R   0.836195 0.680264 0.284801 -0.073422
C43   C     C_R   0.766838 0.645226 0.157918 -0.129819
C44   C     C_R   0.682570 0.635685 0.132865 -0.015177
C45   C     C_R   0.602044 0.775662 0.430781 0.533797
C46   C     C_R   0.561744 0.693535 0.359381 -0.125551
C47   C     C_R   0.569446 0.676665 0.309296 -0.021750
C48   C     C_R   0.660158 0.675334 0.284209 0.010112
C49   C     C_R   0.483727 0.668820 0.283751 0.270275
C50   C     C_R   0.484733 0.667488 0.232822 0.175708
C51   C     C_R   0.575247 0.666928 0.207536 -0.024036
C52   C     C_R   0.664106 0.668588 0.233328 0.017082
C53   C     C_R   0.582391 0.658548 0.157053 -0.094958
C54   C     C_R   0.638319 0.715785 0.384178 -0.021590
C55   C     C_R   0.224624 0.054950 0.356987 -0.188414
C56   C     C_R   0.277013 0.121472 0.431389 0.543514
C57   C     C_R   0.198790 0.069572 0.307586 -0.001213
C58   C     C_R   0.158650 0.093878 0.207102 0.023139
C59   C     C_R   0.181704 0.992784 0.230106 -0.118734
C60   C     C_R   0.204943 0.979494 0.279786 -0.119489
C61   C     C_R   0.130890 0.109375 0.157624 -0.130969
C62   C     C_R   0.108282 0.210673 0.135037 -0.017727
C63   C     C_R   0.168893 0.255394 0.364539 0.261800
C64   C     C_R   0.160178 0.267460 0.313365 -0.003661
C65   C     C_R   0.172700 0.173541 0.285151 -0.019929
C66   C     C_R   0.144192 0.367187 0.289288 0.196747
C67   C     C_3   0.748743 0.545616 0.732473 -0.077397
C68   C     C_R   0.142777 0.370643 0.238045 0.153565
C69   C     C_R   0.143748 0.281517 0.210919 -0.010427
C70   C     C_R   0.158631 0.183036 0.234421 0.030480
C71   C     C_R   0.124213 0.291232 0.160820 -0.117138
C72   C     C_R   0.216024 0.145531 0.384915 -0.022641
C73   C     C_R   0.512613 0.177001 0.349474 -0.141230
C74   C     C_R   0.524120 0.198335 0.300647 0.005296
C75   C     C_R   0.554795 0.248067 0.204031 0.017774
C76   C     C_R   0.455410 0.321910 0.230093 -0.107903
C77   C     C_R   0.439446 0.295915 0.277473 -0.150888
C78   C     C_3   0.789834 0.605987 0.768525 -0.087412
C79   C     C_R   0.573998 0.274298 0.156296 0.256401
C80   C     C_R   0.679909 0.202447 0.133808 0.007333
C81   C     C_R   0.698849 0.006570 0.347234 -0.119109
C82   C     C_R   0.712740 0.026877 0.298835 0.020079
C83   C     C_R   0.624801 0.123611 0.275323 0.027187
C84   C     C_R   0.815412 0.955377 0.274336 0.254537
C85   C     C_R   0.827270 0.976420 0.225794 -0.103559
C86   C     C_R   0.740673 0.072793 0.202524 -0.053581
C87   C     C_R   0.639364 0.147593 0.227043 0.008192
C88   C     C_R   0.758361 0.098996 0.156111 -0.174609
C89   C     C_1   0.700342 0.599428 0.898162 0.002083
C90   C     C_R   0.602631 0.084614 0.373498 -0.024077
C91   C     C_R   0.045453 0.238257 0.948622 0.546473
C92   C     C_R   0.712270 0.560834 0.947603 0.546996
C93   C     C_R   0.720610 0.225070 0.952121 0.543970
C94   C     C_R   0.048674 0.244880 0.088258 0.541289
C95   C     C_R   0.707260 0.575057 0.086202 0.542419
C96   C     C_R   0.719018 0.232916 0.089331 0.554012
Cr1   Cr    Cr6+3 0.417550 0.169090 0.500530 1.032099
Cr2   Cr    Cr6+3 0.669180 0.913420 0.499920 0.989119
Cr3   Cr    Cr6+3 0.413260 0.917540 0.499520 0.992944
Cr4   Cr    Cr6+3 0.909170 0.177380 0.020380 1.034384
Cr5   Cr    Cr6+3 0.912710 0.429210 0.018220 1.030654
Cr6   Cr    Cr6+3 0.657170 0.432570 0.019030 1.054455
H1    H     H_    0.878355 0.573904 0.780879 0.124350
H2    H     H_    0.313199 0.128302 0.798575 0.169350
H3    H     H_    0.989075 0.370369 0.776111 0.138575
H4    H     H_    0.457144 0.338719 0.794366 0.149859
H5    H     H_    0.596541 0.367903 0.724110 0.127277
H6    H     H_    0.690037 0.008038 0.804663 0.107013
H7    H     H_    0.828036 0.031722 0.735835 0.100017
H8    H     H_    0.843206 0.630054 0.139119 0.141000
H9    H     H_    0.803372 0.462540 0.713941 0.183720
H10   H     H_    0.794477 0.719713 0.379498 0.125538
H11   H     H_    0.911211 0.670801 0.215228 0.187436
H12   H     H_    0.902175 0.685620 0.304369 0.215077
H13   H     H_    0.515192 0.656925 0.136761 0.197985
H14   H     H_    0.489016 0.701029 0.378468 0.168471
H15   H     H_    0.121575 0.045511 0.137463 0.129438
H16   H     H_    0.257444 0.971332 0.373011 0.143462
H17   H     H_    0.182715 0.923731 0.209586 0.160196
H18   H     H_    0.745293 0.780161 0.731050 0.100783
H19   H     H_    0.226369 0.899189 0.296524 0.163435
H20   H     H_    0.109636 0.367504 0.142417 0.184758
H21   H     H_    0.435155 0.233326 0.369082 0.150352
H22   H     H_    0.390642 0.401127 0.214391 0.220779
H23   H     H_    0.362621 0.354514 0.296631 0.171683
H24   H     H_    0.838677 0.040413 0.138741 0.151102
H25   H     H_    0.560664 0.830222 0.795872 0.099242
H26   H     H_    0.906521 0.920188 0.207126 0.138235
H27   H     H_    0.764456 0.931138 0.365053 0.162211
H28   H     H_    0.484742 0.722656 0.728147 0.108083
H29   H     H_    0.618291 0.514374 0.777841 0.146332
H30   H     H_    0.077946 0.039610 0.778872 0.128380
H31   H     H_    0.286629 0.981336 0.732152 0.107904
O1    O     O_R   0.301710 0.195650 0.554160 -0.498126
O2    O     O_R   0.658900 0.818120 0.449760 -0.522724
O3    O     O_R   0.503220 0.801620 0.445520 -0.522126
O4    O     O_R   0.319370 0.022040 0.450020 -0.512772
O5    O     O_3   0.499990 0.000010 0.499990 -0.275173
O6    O     O_R   0.818720 0.150820 0.967160 -0.501749
O7    O     O_R   0.006410 0.181720 0.970200 -0.488360
O8    O     O_R   0.027890 0.334070 0.964920 -0.508540
O9    O     O_R   0.809600 0.521790 0.967960 -0.494351
O10   O     O_R   0.635520 0.542770 0.964420 -0.504989
O11   O     O_R   0.665950 0.325030 0.970100 -0.505307
O12   O     O_R   0.522390 0.158990 0.550460 -0.486718
O13   O     O_R   0.816620 0.158530 0.074540 -0.538578
O14   O     O_R   0.004460 0.188870 0.069750 -0.497992
O15   O     O_R   0.025800 0.341780 0.072300 -0.522885
O16   O     O_R   0.807650 0.528950 0.067500 -0.499613
O17   O     O_R   0.633420 0.550490 0.071810 -0.503227
O18   O     O_R   0.664000 0.332180 0.069640 -0.452246
O19   O     O_3   0.826350 0.346390 0.019210 -0.253989
O20   O     O_R   0.694390 0.003530 0.554040 -0.507258
O21   O     O_R   0.657700 0.819660 0.549320 -0.502433
O22   O     O_R   0.501930 0.803280 0.552920 -0.505636
O23   O     O_R   0.318170 0.023580 0.549580 -0.507326
O24   O     O_R   0.303010 0.193990 0.446760 -0.473098
O25   O     O_R   0.523600 0.157450 0.450900 -0.499027
O26   O     O_R   0.695690 0.001860 0.446640 -0.524112
Br1   Br    Br    0.218387 0.357115 0.724129 -0.516214
O27   O     O_3   0.478568 0.136012 0.750132 -0.550278
C97   C     C_3   0.517371 0.034613 0.723414 0.000566
H32   H     H_    0.491017 0.980404 0.742849 0.132464
H33   H     H_    0.611562 0.982492 0.718779 0.114208
C98   C     C_3   0.458162 0.066764 0.674847 -0.253944
H34   H     H_    0.371147 0.089407 0.681934 0.185439
H35   H     H_    0.455206 0.143199 0.659329 0.215031
C99   C     C_3   0.510455 0.968664 0.639407 -0.440438
H36   H     H_    0.604606 0.926146 0.640258 0.154637
H37   H     H_    0.482865 0.000345 0.602078 0.197693
H38   H     H_    0.481311 0.908239 0.648959 0.145727
Br2   Br    Br    0.820521 0.267571 0.799640 -0.588383
Br3   Br    Br    0.362404 0.661883 0.199781 -0.499256
O28   O     O_3   0.391316 0.676153 0.308117 -0.568586
C100  C     C_3   0.421077 0.569191 0.328582 0.019655
H39   H     H_    0.511665 0.519467 0.340460 0.112803
H40   H     H_    0.406200 0.517620 0.301108 0.194440
C101  C     C_3   0.345196 0.589909 0.372994 -0.264883
H41   H     H_    0.352154 0.649667 0.398745 0.154864
H42   H     H_    0.255691 0.629551 0.360829 0.212100
C102  C     C_3   0.376998 0.479943 0.399862 -0.442141
H43   H     H_    0.359358 0.424164 0.376417 0.186053
H44   H     H_    0.324713 0.500139 0.433440 0.163979
H45   H     H_    0.468179 0.434521 0.410235 0.146443
Br4   Br    Br    0.142215 0.497070 0.205300 -0.569120
Br5   Br    Br    0.131062 0.498753 0.323641 -0.549919
O29   O     O_3   0.140463 0.348057 0.394748 -0.510787
C103  C     C_3   0.034205 0.381983 0.416626 0.036746
H46   H     H_    0.040628 0.313843 0.441153 0.116971
H47   H     H_    0.968185 0.400964 0.388304 0.134835
C104  C     C_3   0.997403 0.490216 0.446871 -0.241690
H48   H     H_    0.064546 0.474437 0.473926 0.183953
H49   H     H_    0.986146 0.560264 0.422492 0.188440
C105  C     C_3   0.886093 0.527136 0.473781 -0.479619
H50   H     H_    0.818209 0.540959 0.447572 0.147596
H51   H     H_    0.859438 0.608192 0.493862 0.165844
H52   H     H_    0.897275 0.460880 0.500363 0.150386
O30   O     O_3   0.494457 0.373527 0.133338 -0.535081
C106  C     C_3   0.405037 0.359759 0.114544 0.014958
H53   H     H_    0.326486 0.444982 0.115182 0.203247
H54   H     H_    0.386448 0.302610 0.136888 0.130395
C107  C     C_3   0.429475 0.316447 0.061738 -0.271598
H55   H     H_    0.444241 0.375657 0.039299 0.187193
H56   H     H_    0.507140 0.230593 0.060367 0.151079
C108  C     C_3   0.330417 0.308129 0.040281 -0.467153
H57   H     H_    0.315235 0.247950 0.061771 0.157197
H58   H     H_    0.350515 0.276328 0.002099 0.152776
H59   H     H_    0.251895 0.393377 0.040350 0.164821
O31   O     O_3   0.905253 0.865485 0.297982 -0.589282
C109  C     C_3   0.976291 0.902395 0.319059 0.015201
H60   H     H_    0.933668 0.996889 0.324814 0.120933
H61   H     H_    0.050534 0.875956 0.294610 0.175146
C110  C     C_3   0.017559 0.845104 0.368636 -0.257380
H62   H     H_    0.944080 0.874052 0.393690 0.164997
H63   H     H_    0.058046 0.751162 0.364184 0.206503
C111  C     C_3   0.101801 0.874025 0.391853 -0.490156
H64   H     H_    0.178907 0.841180 0.368843 0.161950
H65   H     H_    0.127436 0.833414 0.428213 0.146797
H66   H     H_    0.062570 0.967871 0.396508 0.151333
O32   O     O_3   0.945261 0.238057 0.701794 -0.555865
C112  C     C_3   0.931327 0.146230 0.686258 0.027453
H67   H     H_    0.839319 0.182785 0.679200 0.178631
H68   H     H_    0.955521 0.080114 0.714560 0.130159
C113  C     C_3   0.995525 0.090845 0.638864 -0.288767
H69   H     H_    0.986338 0.157872 0.613127 0.184715
H70   H     H_    0.086744 0.033049 0.647197 0.155811
C114  C     C_3   0.951069 0.019648 0.614419 -0.470185
H71   H     H_    0.953883 0.955439 0.640172 0.152167
H72   H     H_    0.004529 0.974378 0.582178 0.156178
H73   H     H_    0.862464 0.075728 0.601909 0.163808

loop_
_geom_bond_atom_site_label_1
_geom_bond_atom_site_label_2
_ccdc_geom_bond_type
C66   C68   A    
Cr2   O21   S    
Cr5   O15   S    
C40   C41   A    
C98   H34   S    
C55   C57   A    
C73   C74   A    
C71   H20   S    
C105  H51   S    
C111  H66   S    
C74   C83   A    
C43   C44   A    
C2    C12   S    
C113  H69   S    
C26   H4    S    
C104  H49   S    
O27   C97   S    
C7    C8    S    
C47   C49   A    
C102  H43   S    
Cr4   O19   S    
C33   H6    S    
C11   C19   S    
C35   O27   S    
C107  H56   S    
Cr2   O5    S    
C103  C104  S    
C3    H29   S    
C63   O29   S    
C19   C21   S    
C111  H65   S    
C73   C90   A    
C112  C113  S    
C85   C86   A    
C5    C6    S    
C86   C88   A    
C102  H45   S    
C105  H52   S    
Cr4   O14   S    
C65   C70   A    
C97   C98   S    
C17   C20   S    
C103  H47   S    
C18   C19   S    
C41   C42   A    
C69   C71   A    
C92   O10   A    
O28   C100  S    
C49   O28   S    
C88   H24   S    
Cr4   O7    S    
C33   C35   S    
Cr5   O8    S    
C44   C53   A    
C42   H12   S    
C40   C43   A    
C47   C48   A    
Cr4   O13   S    
C16   C17   S    
C56   C72   S    
C107  C108  S    
Cr3   O22   S    
C62   C71   A    
C106  C107  S    
C31   C33   S    
Cr3   O5    S    
O30   C106  S    
C95   O16   A    
C43   H8    S    
C80   C96   S    
C29   C30   S    
C92   O9    A    
C55   C72   A    
C30   C33   S    
C16   C18   S    
Cr6   O18   S    
C34   O26   A    
C61   C62   A    
C58   C61   A    
C99   H37   S    
C105  H50   S    
Cr2   O20   S    
C106  H53   S    
C98   H35   S    
C79   O30   S    
C23   O23   A    
C8    C78   S    
C60   H19   S    
C67   C78   S    
Cr6   O11   S    
Cr1   O1    S    
C4    C7    S    
C30   C36   S    
C21   H31   S    
O32   C112  S    
C101  H41   S    
C39   C42   A    
C97   H33   S    
C110  H63   S    
C25   C29   S    
C3    C67   S    
C45   O2    A    
C107  H55   S    
C61   H15   S    
C104  H48   S    
C76   H22   S    
C32   C35   S    
C84   C85   A    
C111  H64   S    
C100  H40   S    
C50   Br3   S    
C102  H44   S    
C9    C89   T    
C5    C7    S    
C100  C101  S    
C68   C69   A    
C57   C60   A    
C6    C8    S    
C1    O12   A    
C94   O15   A    
C73   H21   S    
C58   C59   A    
C40   C52   A    
C96   O18   A    
Cr2   O2    S    
C74   C77   A    
C81   C82   A    
C79   C80   A    
C103  H46   S    
C51   C53   A    
Cr1   O24   S    
C75   C76   A    
C34   C90   S    
C59   C60   A    
C4    C78   S    
C112  H67   S    
C93   O6    A    
Cr4   O6    S    
C1    C28   S    
C56   O24   A    
Cr5   O9    S    
C81   H27   S    
C114  H71   S    
C38   C54   A    
C110  H62   S    
C29   C31   S    
C57   C65   A    
Cr3   O23   S    
C46   C54   A    
O31   C109  S    
C31   H7    S    
C13   C21   S    
C50   C51   A    
C95   O17   A    
C32   C37   S    
C76   C77   A    
C89   C92   S    
C1    O20   A    
C91   O7    A    
C93   O11   A    
C16   H3    S    
Cr6   O17   S    
C81   C90   A    
C34   O25   A    
C67   H9    S    
C99   H36   S    
C114  H72   S    
C68   Br4   S    
C26   C30   S    
C98   C99   S    
C82   C84   A    
C66   Br5   S    
C49   C50   A    
C27   C93   S    
Cr6   O10   S    
C15   C23   S    
C12   O22   A    
C38   H10   S    
C3    C4    S    
C2    C10   T    
C113  C114  S    
Cr1   O5    S    
C77   H23   S    
C8    H18   S    
C101  C102  S    
C97   H32   S    
C108  H59   S    
C75   C87   A    
C94   O14   A    
C108  H57   S    
C46   C47   A    
C15   C24   T    
C45   O3    A    
C59   H17   S    
C23   O1    A    
C78   H1    S    
C86   C87   A    
Cr1   O12   S    
C31   C32   S    
C58   C70   A    
C12   O21   A    
C3    C5    S    
C113  H70   S    
C83   C87   A    
C45   C54   S    
C101  H42   S    
C110  C111  S    
C20   H2    S    
C46   H14   S    
C27   C36   T    
C109  C110  S    
C96   O13   A    
Cr5   O19   S    
C109  H61   S    
C17   C22   S    
C13   C17   S    
C64   C65   A    
C14   C22   T    
C62   C94   S    
C19   C24   S    
C25   C26   S    
C41   H11   S    
C51   C52   A    
C80   C88   A    
C44   C95   S    
C6    C67   S    
Cr1   O25   S    
C20   C21   S    
C56   O4    A    
C11   C13   S    
C38   C39   A    
C28   C37   T    
C25   C32   S    
Cr5   O16   S    
C63   C72   A    
C84   O31   S    
C13   H30   S    
Cr3   O3    S    
C100  H39   S    
C18   C20   S    
C109  H60   S    
C29   Br2   S    
C69   C70   A    
C14   C91   S    
C104  C105  S    
C11   C16   S    
C18   Br1   S    
C6    C10   S    
C63   C64   A    
C5    H28   S    
C26   C35   S    
C48   C52   A    
C114  H73   S    
Cr2   O26   S    
C112  H68   S    
C82   C83   A    
Cr6   O19   S    
C106  H54   S    
Cr3   O4    S    
C85   H26   S    
O29   C103  S    
C99   H38   S    
C7    H25   S    
C4    C9    S    
C108  H58   S    
C75   C79   A    
C11   O32   S    
C25   H5    S    
C53   H13   S    
C64   C66   A    
C39   C48   A    
C91   O8    A    
C55   H16   S    
