data_mof_unit_33517.cif
_audit_creation_date              2012-12-10T18:09:54-0500
_audit_creation_method            fapswitch 2.2
_symmetry_space_group_name_H-M    P1
_symmetry_Int_Tables_number       1
_space_group_crystal_system       triclinic
_cell_length_a                    10.611331
_cell_length_b                    12.649317
_cell_length_c                    13.098124
_cell_angle_alpha                 82.507196
_cell_angle_beta                  90.795498
_cell_angle_gamma                 100.989781
_cell_volume                      1711.02277388

loop_
_atom_site_label
_atom_site_type_symbol
_atom_type_description
_atom_site_fract_x
_atom_site_fract_y
_atom_site_fract_z
_atom_type_partial_charge
C1    C     C_R   0.490290 0.439153 0.691012 0.837282
C2    C     C_R   0.508080 0.446179 0.974072 0.078594
C3    C     C_R   0.550494 0.465440 0.870923 0.093794
C4    C     C_R   0.741744 0.501002 0.498020 0.823363
C5    C     C_R   0.549900 0.527701 0.037536 0.082923
C6    C     C_R   0.649440 0.617074 0.003655 0.184977
C7    C     C_R   0.704158 0.625389 0.906194 -0.265038
C8    C     C_R   0.655122 0.550450 0.840333 -0.212060
C9    C     C_R   0.493352 0.523586 0.133331 -0.259579
C10   C     C_R   0.644027 0.683514 0.168381 -0.206667
C11   C     C_R   0.485627 0.399761 0.800626 -0.120302
C12   C     C_3   0.122406 0.502894 0.500543 0.150558
C13   C     C_R   0.299324 0.086183 0.361640 -0.314664
C14   C     C_R   0.645736 0.796381 0.634954 0.021132
C15   C     C_R   0.655466 0.892475 0.677229 -0.265611
C16   C     C_R   0.516283 0.560527 0.309062 0.851023
C17   C     C_R   0.587695 0.970355 0.633087 -0.158270
C18   C     C_R   0.515823 0.954935 0.542591 0.016340
C19   C     C_R   0.498970 0.851946 0.508958 0.223828
C20   C     C_R   0.457950 0.036713 0.486093 -0.034472
C21   C     C_R   0.363483 0.007794 0.412235 0.158795
C22   C     C_R   0.339253 0.902314 0.386444 -0.282951
C23   C     C_3   0.061688 0.457809 0.402698 -0.448386
C24   C     C_R   0.410681 0.827055 0.430757 -0.217774
C25   C     C_R   0.499084 0.147936 0.493655 0.283536
C26   C     C_R   0.333510 0.193234 0.381631 -0.045019
C27   C     C_R   0.258824 0.501168 0.498732 0.811276
C28   C     C_3   0.911599 0.429592 0.594961 -0.427781
C29   C     C_3   0.057450 0.430172 0.598856 -0.050803
C30   C     C_3   0.919275 0.464225 0.398494 -0.407415
C31   C     C_3   0.955822 0.620454 0.502405 -0.392466
C32   C     C_3   0.879158 0.503181 0.498168 0.169832
C33   C     C_3   0.727440 0.180652 0.467379 -0.782363
C34   C     C_3   0.099264 0.621297 0.497545 -0.395085
C35   C     C_3   0.115474 0.466483 0.701329 -0.412344
C36   C     C_3   0.075860 0.378949 0.793888 -0.368266
C37   C     C_3   0.121898 0.421349 0.894527 -0.854109
C38   C     C_R   0.694126 0.695615 0.068799 -0.212989
C39   C     C_R   0.545783 0.595234 0.200953 -0.051764
C40   C     C_R   0.402365 0.302133 0.836301 -0.196430
C41   C     C_R   0.376327 0.273959 0.940858 -0.151421
C42   C     C_R   0.425589 0.346307 0.009359 -0.201567
H1    H     H_    0.858540 0.345262 0.595577 0.157005
H2    H     H_    0.400153 0.321003 0.089486 0.135462
H3    H     H_    0.312722 0.198295 0.968375 0.139261
H4    H     H_    0.877768 0.458736 0.664477 0.152758
H5    H     H_    0.700806 0.558628 0.765641 0.147688
H6    H     H_    0.282679 0.254157 0.344936 0.137670
H7    H     H_    0.269466 0.879456 0.328159 0.147868
H8    H     H_    0.224228 0.065027 0.306867 0.145370
H9    H     H_    0.695637 0.734204 0.669803 0.128292
H10   H     H_    0.589878 0.040572 0.672391 0.160743
H11   H     H_    0.712657 0.905462 0.745154 0.145350
H12   H     H_    0.140360 0.671270 0.425087 0.169232
H13   H     H_    0.394170 0.749768 0.403141 0.209814
H14   H     H_    0.072007 0.345615 0.595933 0.148752
H15   H     H_    0.862964 0.383666 0.388001 0.187860
H16   H     H_    0.071494 0.371624 0.403252 0.181137
H17   H     H_    0.929605 0.677360 0.436865 0.175217
H18   H     H_    0.933285 0.650416 0.575073 0.173868
H19   H     H_    0.146870 0.661076 0.562615 0.187611
H20   H     H_    0.630540 0.245161 0.579781 0.257761
H21   H     H_    0.820288 0.207836 0.504291 0.222548
H22   H     H_    0.719747 0.232024 0.393035 0.245172
H23   H     H_    0.901264 0.521571 0.330272 0.166580
H24   H     H_    0.725967 0.096536 0.450955 0.243837
H25   H     H_    0.227099 0.452526 0.891256 0.277078
H26   H     H_    0.072330 0.487916 0.908887 0.254162
H27   H     H_    0.099949 0.354664 0.959472 0.245650
H28   H     H_    0.969819 0.352876 0.798246 0.224699
H29   H     H_    0.118427 0.306837 0.785064 0.217642
H30   H     H_    0.221914 0.483602 0.696635 0.208756
H31   H     H_    0.084948 0.542752 0.715361 0.214166
H32   H     H_    0.111453 0.505019 0.332059 0.162068
H33   H     H_    0.686262 0.739236 0.221143 0.154589
H34   H     H_    0.783075 0.690935 0.880099 0.135915
H35   H     H_    0.771064 0.763452 0.044271 0.131871
H36   H     H_    0.411084 0.461959 0.159392 0.140105
H37   H     H_    0.353872 0.249475 0.783148 0.152853
N1    N     N_R   0.433240 0.222190 0.444680 -0.119723
N2    N     N_R   0.566070 0.776970 0.554790 -0.130843
N3    N     N_2   0.621472 0.183515 0.534925 -0.320981
O1    O     O_R   0.468120 0.366740 0.627160 -0.627002
O2    O     O_R   0.510770 0.544830 0.662520 -0.606463
O3    O     O_R   0.663880 0.410950 0.482330 -0.620641
O4    O     O_R   0.706530 0.589040 0.517700 -0.636839
O5    O     O_R   0.489230 0.455170 0.337480 -0.605959
O6    O     O_R   0.531880 0.633260 0.372840 -0.635833
O7    O     O_R   0.293470 0.410960 0.482300 -0.627542
O8    O     O_R   0.336120 0.589050 0.517670 -0.638598
Zn1   Zn    Zn3+2 0.471520 0.381090 0.476390 0.919216
Zn2   Zn    Zn3+2 0.528480 0.618910 0.523610 0.913138

loop_
_geom_bond_atom_site_label_1
_geom_bond_atom_site_label_2
_ccdc_geom_bond_type
C23   H16   S    
C30   H15   S    
O5    Zn1   S    
C12   C29   S    
C25   N1    A    
C41   C42   A    
C35   C36   S    
C1    C11   S    
O3    Zn1   S    
C7    C8    A    
C24   H13   S    
C12   C23   S    
C28   H4    S    
C15   H11   S    
C28   C29   S    
C37   H27   S    
C5    C6    A    
C4    O4    A    
C20   C25   A    
C37   H26   S    
C9    C39   A    
C27   O8    A    
C18   C19   A    
C31   H17   S    
N2    Zn2   S    
C35   H31   S    
C14   H9    S    
C16   O5    A    
C6    C38   A    
C27   O7    A    
O7    Zn1   S    
C33   N3    S    
C36   H29   S    
C26   H6    S    
H20   N3    S    
C21   C22   A    
C42   H2    S    
C17   H10   S    
C36   H28   S    
C33   H24   S    
C31   C34   S    
C12   C27   S    
C23   C30   S    
O6    Zn2   S    
C28   C32   S    
C3    C8    A    
C4    O3    A    
C34   H19   S    
C26   N1    A    
C10   C39   A    
C1    O2    A    
C31   H18   S    
C5    C9    A    
C10   H33   S    
O8    Zn2   S    
C31   C32   S    
C33   H21   S    
C17   C18   A    
C40   H37   S    
C13   C21   A    
C4    C32   S    
C7    H34   S    
C22   H7    S    
C40   C41   A    
C38   H35   S    
C35   H30   S    
C34   H12   S    
C25   N3    S    
C22   C24   A    
C13   C26   A    
C2    C5    A    
C23   H32   S    
C12   C34   S    
C15   C17   A    
C36   C37   S    
C6    C7    A    
C29   H14   S    
C1    O1    A    
O1    Zn1   S    
C29   C35   S    
C28   H1    S    
C10   C38   A    
N1    Zn1   S    
C19   C24   A    
C8    H5    S    
O4    Zn2   S    
C30   C32   S    
C2    C42   A    
C33   H22   S    
C37   H25   S    
C2    C3    A    
C18   C20   A    
C9    H36   S    
C11   C40   A    
C30   H23   S    
C3    C11   A    
C16   C39   S    
C13   H8    S    
C20   C21   A    
C16   O6    A    
C41   H3    S    
C14   C15   A    
O2    Zn2   S    
C14   N2    A    
C19   N2    A    
