data_mof_unit_44925.cif
_audit_creation_date              2013-03-05T16:46:09-0500
_audit_creation_method            fapswitch 2.2
_symmetry_space_group_name_H-M    P1
_symmetry_Int_Tables_number       1
_space_group_crystal_system       triclinic
_cell_length_a                    10.777092
_cell_length_b                    10.711041
_cell_length_c                    9.95338
_cell_angle_alpha                 88.533118
_cell_angle_beta                  90.909966
_cell_angle_gamma                 92.080739
_cell_volume                      1147.69481702

loop_
_atom_site_label
_atom_site_type_symbol
_atom_site_description
_atom_site_fract_x
_atom_site_fract_y
_atom_site_fract_z
_atom_type_partial_charge
O1    O     O_R   0.500020 0.316790 0.614690 -0.619157
O2    O     O_R   0.500000 0.316760 0.385350 -0.626475
C1    C     C_R   0.503434 0.260410 0.501125 0.872501
O3    O     O_R   0.316770 0.500030 0.614670 -0.626762
O4    O     O_R   0.316750 0.499990 0.385330 -0.622732
C2    C     C_R   0.260651 0.501716 0.498642 0.857759
Zn1   Zn    Zn3+2 0.500010 0.500020 0.653130 0.950003
Zn2   Zn    Zn3+2 0.499990 0.499980 0.346870 0.992795
O5    O     O_R   0.500000 0.683240 0.614650 -0.629659
O6    O     O_R   0.499980 0.683210 0.385310 -0.575060
O7    O     O_R   0.683250 0.500010 0.614670 -0.614279
O8    O     O_R   0.683230 0.499970 0.385330 -0.594406
C3    C     C_R   0.502244 0.739902 0.498980 0.887589
C4    C     C_R   0.740139 0.502503 0.501245 0.890879
H1    H     H_    0.287960 0.788762 0.966482 0.134346
C5    C     C_R   0.251796 0.792110 0.178469 -0.084850
H2    H     H_    0.304650 0.878605 0.193313 0.128455
C6    C     C_R   0.192937 0.731145 0.287230 -0.077767
H3    H     H_    0.201288 0.771039 0.386026 0.098110
C7    C     C_R   0.124197 0.618699 0.268468 0.175913
C8    C     C_R   0.114466 0.568988 0.139518 -0.139964
H4    H     H_    0.062721 0.481990 0.123589 0.133668
C9    C     C_R   0.173421 0.630321 0.030972 -0.131852
H5    H     H_    0.165523 0.591786 0.931650 0.128877
C10   C     C_R   0.242212 0.741616 0.050494 -0.071039
C11   C     C_R   0.935007 0.548235 0.387706 -0.200555
H6    H     H_    0.883599 0.586472 0.303928 0.219327
C12   C     C_R   0.873613 0.505832 0.503545 -0.101429
C13   C     C_R   0.941196 0.470682 0.619561 0.001531
C14   C     C_R   0.067447 0.462237 0.611563 -0.239039
H7    H     H_    0.118721 0.431789 0.700417 0.160533
C15   C     C_R   0.128564 0.504465 0.495994 -0.088814
C16   C     C_R   0.062956 0.553221 0.384138 -0.023748
C17   C     C_R   0.894113 0.597635 0.810256 -0.256231
H8    H     H_    0.926757 0.677534 0.749864 0.179537
C18   C     C_R   0.859796 0.614632 0.942593 0.350341
C19   C     C_R   0.820670 0.509875 0.020644 -0.288967
H9    H     H_    0.790943 0.519710 0.122209 0.196055
C20   C     C_R   0.815190 0.390691 0.966322 -0.213606
H10   H     H_    0.782893 0.311592 0.027854 0.174172
C21   C     C_R   0.850977 0.373101 0.833658 0.164667
C22   C     C_R   0.892074 0.478342 0.755834 0.064204
C23   C     C_R   0.528597 0.061552 0.622039 0.131894
C24   C     C_R   0.521191 0.129479 0.501502 -0.119633
C25   C     C_R   0.532727 0.069082 0.379005 -0.217622
H11   H     H_    0.534498 0.119842 0.283432 0.182593
C26   C     C_R   0.529845 0.940390 0.378025 -0.171936
H12   H     H_    0.527453 0.895326 0.282910 0.237446
C27   C     C_R   0.518227 0.872331 0.498890 -0.134186
C28   C     C_R   0.527316 0.933735 0.620721 0.181226
C29   C     C_3   0.444756 0.920989 0.739874 -0.474244
C30   C     C_3   0.445945 0.062104 0.740792 -0.490894
H13   H     H_    0.351935 0.877773 0.715546 0.195190
H14   H     H_    0.492545 0.879551 0.828877 0.246223
H15   H     H_    0.353758 0.100515 0.715411 0.201414
H16   H     H_    0.494599 0.101540 0.830346 0.217964
C31   C     C_R   0.465030 0.394839 0.073689 0.146683
N1    N     N_R   0.499160 0.499140 0.142800 -0.161336
C32   C     C_R   0.543947 0.601480 0.067486 0.302091
C33   C     C_R   0.543511 0.600073 0.924552 -0.192753
H17   H     H_    0.580713 0.679575 0.867415 0.197806
N2    N     N_R   0.499160 0.499180 0.857150 -0.131323
C34   C     C_R   0.462706 0.395668 0.931719 0.206679
C35   C     C_3   0.336466 0.333119 0.930197 -0.498704
C36   C     C_3   0.342592 0.327125 0.082525 -0.472235
H18   H     H_    0.263876 0.395235 0.889559 0.202417
H19   H     H_    0.334831 0.239539 0.886118 0.201666
H20   H     H_    0.271508 0.381827 0.131303 0.220610
H21   H     H_    0.351517 0.230594 0.124422 0.200401
N3    N     N_3   0.844178 0.248934 0.781909 -0.430019
H22   H     H_    0.875050 0.247939 0.683087 0.186537
H23   H     H_    0.750468 0.219993 0.778816 0.197622
N4    N     N_R   0.595234 0.711045 0.129683 0.206813
O9    O     O_R   0.678151 0.700302 0.224783 -0.355066
O10   O     O_R   0.586402 0.818942 0.067761 -0.450049
N5    N     N_R   0.867149 0.737870 0.996446 0.238545
O11   O     O_R   0.854975 0.835434 0.917276 -0.375575
O12   O     O_R   0.901405 0.754438 0.120660 -0.361111

loop_
_geom_bond_atom_site_label_1
_geom_bond_atom_site_label_2
_geom_bond_distance
_ccdc_geom_bond_type
C2    C15   1.424699 S    
C13   C22   1.469145 S    
N4    O9    1.297222 A    
C17   C22   1.399844 A    
C26   C27   1.395558 A    
C25   H11   1.083621 S    
Zn1   O7    2.017519 S    
C11   H6    1.074407 S    
N2    C34   1.367471 A    
C12   C13   1.405926 A    
C19   H9    1.074185 S    
N5    O12   1.299349 A    
C6    H3    1.083322 S    
C14   H7    1.084740 S    
O7    C4    1.292440 A    
C23   C30   1.491563 S    
H1    C10   1.082007 S    
C33   N2    1.354923 A    
C17   H8    1.084431 S    
C21   C22   1.413084 A    
O5    C3    1.287815 A    
C18   N5    1.436419 S    
Zn2   N1    2.031313 S    
C5    H2    1.081949 S    
C9    H5    1.081931 S    
N3    H22   1.043785 S    
C32   N4    1.430111 S    
C6    C7    1.405930 A    
C30   H15   1.112001 S    
C32   C33   1.423075 A    
C8    H4    1.082341 S    
N4    O10   1.301618 A    
O3    Zn1   2.005581 S    
C31   C34   1.412711 A    
C25   C26   1.377928 A    
C1    C24   1.422177 S    
C29   C30   1.511339 S    
C35   H19   1.103839 S    
N5    O11   1.301813 A    
O3    C2    1.295134 A    
C20   H10   1.082980 S    
N1    C32   1.388342 A    
C33   H17   1.080264 S    
C29   H13   1.112665 S    
C35   H18   1.110064 S    
C23   C24   1.389828 A    
Zn1   N2    2.030643 S    
C13   C14   1.370610 A    
C11   C16   1.378995 A    
C26   H12   1.073143 S    
Zn2   O8    2.005582 S    
C36   H20   1.106736 S    
C28   C29   1.494400 S    
C3    C27   1.422626 S    
C7    C16   1.483969 S    
Zn2   O6    2.009126 S    
O8    C4    1.298439 A    
C8    C9    1.399174 A    
C24   C25   1.404130 A    
C5    C10   1.397401 A    
Zn1   O5    1.989861 S    
C18   C19   1.404197 A    
O1    Zn1   2.009126 S    
O2    Zn2   1.989858 S    
C31   C36   1.485215 S    
O6    C3    1.297162 A    
O4    Zn2   2.017519 S    
C23   C28   1.369010 A    
C11   C12   1.396083 A    
C29   H14   1.108602 S    
C4    C12   1.437441 S    
C15   C16   1.408630 A    
O2    C1    1.287727 A    
C19   C20   1.397984 A    
C35   C36   1.516387 S    
C14   C15   1.391903 A    
C31   N1    1.363091 A    
O4    C2    1.288963 A    
C36   H21   1.111782 S    
C17   C18   1.391975 A    
C9    C10   1.396979 A    
C34   C35   1.494568 S    
C7    C8    1.403032 A    
C20   C21   1.400725 A    
C5    C6    1.398648 A    
C27   C28   1.394645 A    
N3    H23   1.045829 S    
O1    C1    1.296773 A    
C30   H16   1.111865 S    
C21   N3    1.437447 S    
