data_mof_unit_36912.cif
_audit_creation_date              2012-12-11T14:25:33-0500
_audit_creation_method            fapswitch 2.2
_symmetry_space_group_name_H-M    P1
_symmetry_Int_Tables_number       1
_space_group_crystal_system       triclinic
_cell_length_a                    6.968248
_cell_length_b                    14.713712
_cell_length_c                    16.239329
_cell_angle_alpha                 90.607586
_cell_angle_beta                  89.96831
_cell_angle_gamma                 89.72345
_cell_volume                      1664.88550754

loop_
_atom_site_label
_atom_site_type_symbol
_atom_type_description
_atom_site_fract_x
_atom_site_fract_y
_atom_site_fract_z
_atom_type_partial_charge
O1    O     O_R   0.494490 0.416160 0.413410 -0.543063
O2    O     O_R   0.823830 0.407240 0.585990 -0.506099
O3    O     O_R   0.994160 0.583840 0.586590 -0.536652
C1    C     C_R   0.655281 0.383391 0.612036 0.720363
O4    O     O_R   0.824200 0.405280 0.414020 -0.523572
O5    O     O_R   0.994530 0.581860 0.413390 -0.544741
C2    C     C_R   0.655782 0.382110 0.386380 0.738175
O6    O     O_R   0.494110 0.418140 0.586610 -0.548828
O7    O     O_3   0.660810 0.557940 0.500000 -0.379315
V1    V     V_3+5 0.935650 0.489250 0.500000 1.463453
O8    O     O_R   0.324250 0.592760 0.414010 -0.547793
C3    C     C_R   0.155617 0.613313 0.385015 0.726256
O9    O     O_R   0.323880 0.594720 0.585980 -0.523357
C4    C     C_R   0.153849 0.618358 0.613379 0.734485
V2    V     V_3+5 0.435660 0.510750 0.500000 1.433424
O10   O     O_3   0.160630 0.442060 0.500000 -0.364190
C5    C     C_3   0.935922 0.684503 0.725758 0.091769
H1    H     H_    0.823064 0.696786 0.678680 0.236890
C6    C     C_3   0.918606 0.758792 0.795321 0.166305
H2    H     H_    0.894246 0.721361 0.853808 0.079570
H3    H     H_    0.123858 0.921816 0.716198 0.104631
C7    C     C_3   0.171628 0.789170 0.650685 0.136761
C8    C     C_3   0.296068 0.671867 0.748562 0.429565
C9    C     C_3   0.137611 0.689726 0.682276 -0.085734
H4    H     H_    0.301660 0.598907 0.765433 0.057254
C10   C     C_3   0.115956 0.808739 0.808281 -0.044760
C11   C     C_3   0.187051 0.854194 0.727258 -0.340095
C12   C     C_3   0.261828 0.731206 0.827008 -0.443497
H5    H     H_    0.208969 0.688031 0.877976 0.081839
H6    H     H_    0.399293 0.758835 0.849272 0.196894
H7    H     H_    0.312039 0.791550 0.617844 0.166319
H8    H     H_    0.339891 0.869916 0.735742 0.170288
C13   C     C_2   0.986403 0.708885 0.281801 -0.132126
C14   C     C_2   0.150675 0.680325 0.317466 -0.309923
H9    H     H_    0.850669 0.682399 0.303742 0.136595
H10   H     H_    0.288065 0.706140 0.297511 0.128343
C15   C     C_2   0.974452 0.775884 0.213348 -0.136897
C16   C     C_2   0.126940 0.813259 0.175604 -0.310576
H11   H     H_    0.831067 0.794602 0.193318 0.134558
H12   H     H_    0.271466 0.795556 0.194111 0.129283
C17   C     C_2   0.770343 0.195196 0.771726 -0.318164
C18   C     C_2   0.614581 0.182201 0.819447 0.421003
H13   H     H_    0.893678 0.150689 0.779872 0.114692
C19   C     C_2   0.794003 0.268712 0.709886 0.328425
C20   C     C_2   0.641944 0.310188 0.673560 -0.307420
H14   H     H_    0.497651 0.287901 0.686581 0.178942
C21   C     C_2   0.776791 0.198672 0.218378 -0.163773
C22   C     C_2   0.612618 0.174762 0.179970 -0.369808
H15   H     H_    0.909212 0.170146 0.194218 0.154634
H16   H     H_    0.475478 0.198360 0.203177 0.130364
C23   C     C_2   0.788799 0.257215 0.295070 0.331778
C24   C     C_2   0.645424 0.316104 0.316331 -0.377971
H17   H     H_    0.516561 0.319982 0.279235 0.114450
O11   O     O_R   0.770850 0.076180 0.907410 -0.559033
O12   O     O_R   0.440600 0.088970 0.079950 -0.541994
O13   O     O_R   0.270430 0.912340 0.080550 -0.544765
C25   C     C_R   0.608695 0.110282 0.109022 0.773748
O14   O     O_R   0.441120 0.087010 0.907980 -0.513131
O15   O     O_R   0.270950 0.910370 0.907350 -0.546243
C26   C     C_R   0.609424 0.109328 0.880845 0.664709
O16   O     O_R   0.770320 0.078150 0.080620 -0.538541
O17   O     O_3   0.604200 0.936340 0.994000 -0.384239
V3    V     V_3+5 0.329300 0.004970 0.993950 1.434330
O18   O     O_R   0.941240 0.899420 0.907920 -0.545428
C27   C     C_R   0.109562 0.877337 0.879315 0.695002
O19   O     O_R   0.940720 0.901380 0.079890 -0.542494
C28   C     C_R   0.110087 0.880019 0.108215 0.734531
V4    V     V_3+5 0.829310 0.983370 0.993880 1.388871
O20   O     O_3   0.104280 0.052120 0.993920 -0.362162
F1    F     F_    0.460045 0.238813 0.816560 -0.708597
N1    N     N_2   0.985270 0.291258 0.686884 -0.482220
H18   H     H_    0.078038 0.294128 0.736319 0.286047
C29   C     C_3   0.061834 0.235677 0.620396 -0.488959
H19   H     H_    0.203080 0.262731 0.601093 0.192885
H20   H     H_    0.964331 0.236848 0.566307 0.179514
H21   H     H_    0.081237 0.164371 0.640866 0.164205
N2    N     N_2   0.914619 0.593116 0.759898 -0.561991
H22   H     H_    0.996705 0.578867 0.810981 0.235854
C30   C     C_3   0.725860 0.553936 0.764148 -0.405242
H23   H     H_    0.639398 0.590201 0.811651 0.205822
H24   H     H_    0.738379 0.481621 0.782340 0.173971
H25   H     H_    0.656056 0.555500 0.702829 0.239779
N3    N     N_2   0.953023 0.250342 0.347938 -0.484694
H26   H     H_    0.921506 0.234681 0.408206 0.240645
C31   C     C_3   0.129290 0.210372 0.317218 -0.566248
H27   H     H_    0.245240 0.221054 0.363145 0.196881
H28   H     H_    0.172512 0.243908 0.259227 0.196578
H29   H     H_    0.111456 0.136104 0.307136 0.183236
N4    N     N_2   0.747128 0.816634 0.786913 -0.449971
H30   H     H_    0.673220 0.824838 0.841420 0.260661
C32   C     C_3   0.744839 0.899517 0.739538 -0.438170
H31   H     H_    0.606960 0.935549 0.748424 0.133264
H32   H     H_    0.757654 0.884365 0.673273 0.222107
H33   H     H_    0.850090 0.949198 0.762836 0.160264
N5    N     N_2   0.024768 0.822449 0.594027 -0.544740
H34   H     H_    0.024012 0.892410 0.589935 0.255020
C33   C     C_3   0.018097 0.782930 0.512129 -0.567922
H35   H     H_    0.953922 0.832121 0.468403 0.188549
H36   H     H_    0.923295 0.722989 0.511790 0.230767
H37   H     H_    0.164271 0.765241 0.489716 0.176542
F2    F     F_    0.472595 0.694312 0.715870 -0.715951

loop_
_geom_bond_atom_site_label_1
_geom_bond_atom_site_label_2
_ccdc_geom_bond_type
O19   V4    S    
C17   H13   S    
C17   C18   D    
N5    H34   S    
C1    O6    A    
C33   H35   S    
C22   C25   S    
C21   H15   S    
O11   C26   A    
C31   H27   S    
C24   H17   S    
C10   C11   S    
O17   V3    S    
O18   V4    S    
C12   H5    S    
C2    C24   S    
O5    C3    A    
O11   V4    S    
O14   C26   A    
V2    O10   S    
C18   F1    S    
C19   N1    S    
C29   H19   S    
C4    C9    S    
C6    C10   S    
C13   H9    S    
O8    V2    S    
C21   C22   D    
V4    O20   S    
O12   V3    S    
C8    C9    S    
O1    V2    S    
N4    C32   S    
O7    V1    S    
N2    H22   S    
C22   H16   S    
O19   C28   A    
H3    C11   S    
O9    C4    A    
C29   H20   S    
C33   H36   S    
C13   C14   D    
O4    C2    A    
C1    C20   S    
N2    C30   S    
C5    C9    S    
C7    H7    S    
C31   H28   S    
C23   C24   D    
V3    O20   S    
C18   C26   S    
C32   H31   S    
C30   H24   S    
C21   C23   S    
C20   H14   S    
C13   C15   S    
O2    C1    A    
C15   C16   D    
C6    N4    S    
C32   H32   S    
N3    H26   S    
C17   C19   S    
C5    N2    S    
C5    H1    S    
O13   V3    S    
C8    C12   S    
O3    C4    A    
N3    C31   S    
O6    V2    S    
C7    C11   S    
O9    V2    S    
C29   H21   S    
C7    C9    S    
C3    C14   S    
O2    V1    S    
C23   N3    S    
C33   H37   S    
C19   C20   D    
N1    C29   S    
C31   H29   S    
O14   V3    S    
C11   H8    S    
O1    C2    A    
C10   C27   S    
C10   C12   S    
O5    V1    S    
C30   H25   S    
O8    C3    A    
N5    C33   S    
C25   O16   A    
O13   C28   A    
O15   V3    S    
O17   V4    S    
O18   C27   A    
C6    H2    S    
O12   C25   A    
O7    V2    S    
O4    V1    S    
C15   H11   S    
O3    V1    S    
V1    O10   S    
O15   C27   A    
C32   H33   S    
C16   H12   S    
O16   V4    S    
C8    F2    S    
C12   H6    S    
C5    C6    S    
C14   H10   S    
C8    H4    S    
C30   H23   S    
C7    N5    S    
N1    H18   S    
C16   C28   S    
N4    H30   S    
