data_mof_unit_45897.cif
_audit_creation_date              2012-12-10T16:52:42-0500
_audit_creation_method            fapswitch 2.2
_symmetry_space_group_name_H-M    P1
_symmetry_Int_Tables_number       1
_space_group_crystal_system       triclinic
_cell_length_a                    12.993174
_cell_length_b                    10.956818
_cell_length_c                    9.724706
_cell_angle_alpha                 87.717372
_cell_angle_beta                  95.63264
_cell_angle_gamma                 90.670221
_cell_volume                      1376.62646576

loop_
_atom_site_label
_atom_site_type_symbol
_atom_type_description
_atom_site_fract_x
_atom_site_fract_y
_atom_site_fract_z
_atom_type_partial_charge
C1    C     C_R   0.499456 0.265328 0.502990 0.736213
C2    C     C_R   0.026171 0.466145 0.563545 0.084057
C3    C     C_R   0.972693 0.504837 0.435754 0.111163
C4    C     C_R   0.865734 0.516260 0.424569 -0.235921
C5    C     C_R   0.864705 0.458357 0.667918 -0.217716
C6    C     C_R   0.971255 0.444337 0.679446 -0.197808
C7    C     C_2   0.440672 0.933332 0.417689 -0.200528
C8    C     C_2   0.510288 0.863642 0.493017 -0.313329
C9    C     C_2   0.448056 0.067771 0.410073 0.367741
C10   C     C_2   0.497297 0.132007 0.514105 0.210783
C11   C     C_2   0.456344 0.414865 0.920953 -0.015628
C12   C     C_R   0.300753 0.496235 0.474805 0.801476
C13   C     C_2   0.442386 0.427420 0.072605 0.108420
C14   C     C_R   0.500234 0.733708 0.497546 0.835458
C15   C     C_R   0.699185 0.499029 0.525433 0.774104
C16   C     C_R   0.811493 0.492361 0.540079 -0.035559
C17   C     C_R   0.187938 0.489968 0.460353 -0.160669
C18   C     C_R   0.026709 0.532259 0.321018 -0.220960
C19   C     C_R   0.133805 0.526989 0.333918 -0.279802
C20   C     C_R   0.133442 0.450610 0.573163 0.391299
Cu1   Cu    Cu3+1 0.500020 0.500020 0.638640 0.952669
Cu2   Cu    Cu3+1 0.499980 0.499980 0.361360 0.964175
H1    H     H_    0.824876 0.544435 0.325974 0.147396
H2    H     H_    0.427214 0.332696 0.872092 0.123254
H3    H     H_    0.510878 0.582441 0.887004 0.238945
H4    H     H_    0.383003 0.372504 0.116356 0.095338
H5    H     H_    0.823791 0.440041 0.758445 0.163529
H6    H     H_    0.986383 0.561636 0.222606 0.150330
H7    H     H_    0.010224 0.417090 0.779297 0.176254
H8    H     H_    0.174386 0.554449 0.245447 0.181991
H9    H     H_    0.377830 0.890290 0.354448 0.153577
H10   H     H_    0.578309 0.898853 0.550636 0.177192
N1    N     N_2   0.498860 0.498660 0.846770 -0.268902
N2    N     N_2   0.498840 0.498630 0.152900 -0.002763
O1    O     O_R   0.500020 0.321960 0.617050 -0.590281
O2    O     O_R   0.499980 0.321920 0.382890 -0.550915
O3    O     O_R   0.349010 0.500000 0.598060 -0.534547
O4    O     O_R   0.348980 0.499950 0.363910 -0.612427
O5    O     O_R   0.500020 0.678080 0.617110 -0.574357
O6    O     O_R   0.499980 0.678040 0.382950 -0.601882
O7    O     O_R   0.651020 0.500050 0.636090 -0.577724
O8    O     O_R   0.650990 0.500000 0.401940 -0.579629
O9    O     O_3   0.527479 0.073021 0.641429 -0.634580
C21   C     C_3   0.626390 0.110385 0.702845 0.048924
H11   H     H_    0.648767 0.042241 0.787883 0.173549
H12   H     H_    0.622034 0.198467 0.754240 0.179658
C22   C     C_3   0.713003 0.114859 0.604460 -0.411089
H13   H     H_    0.711156 0.031406 0.543406 0.214470
H14   H     H_    0.702491 0.195220 0.531348 0.207988
C23   C     C_3   0.819471 0.125215 0.684858 -0.894305
H15   H     H_    0.823256 0.206104 0.750367 0.254948
H16   H     H_    0.879364 0.135146 0.611221 0.259190
H17   H     H_    0.836166 0.041836 0.751691 0.252016
O10   O     O_3   0.588108 0.535111 0.101705 -0.533866
C24   C     C_3   0.613687 0.657482 0.135264 0.181783
H18   H     H_    0.683566 0.682174 0.082621 0.109870
H19   H     H_    0.639261 0.665586 0.245700 0.177880
C25   C     C_3   0.530300 0.753209 0.085595 -0.410005
H20   H     H_    0.514410 0.756191 0.971691 0.203077
H21   H     H_    0.456698 0.731880 0.130757 0.239331
C26   C     C_3   0.566842 0.881333 0.124949 -0.870862
H22   H     H_    0.592612 0.883655 0.236909 0.258518
H23   H     H_    0.502681 0.947121 0.100069 0.280164
H24   H     H_    0.632510 0.910311 0.065866 0.240177
O11   O     O_3   0.184446 0.403167 0.695437 -0.614966
C27   C     C_3   0.212370 0.280207 0.678949 0.094805
H25   H     H_    0.276610 0.257459 0.759107 0.166060
H26   H     H_    0.242381 0.265520 0.577514 0.093767
C28   C     C_3   0.122244 0.192225 0.700492 -0.403236
H27   H     H_    0.090925 0.210146 0.799975 0.226321
H28   H     H_    0.059924 0.206805 0.615014 0.213965
C29   C     C_3   0.156626 0.059408 0.703040 -0.890988
H29   H     H_    0.187816 0.038840 0.604282 0.249439
H30   H     H_    0.089407 0.998199 0.716923 0.257911
H31   H     H_    0.217036 0.041141 0.790220 0.259547
O12   O     O_3   0.402775 0.126009 0.290286 -0.616911
C30   C     C_3   0.297552 0.149445 0.304871 0.028622
H32   H     H_    0.291419 0.242762 0.343858 0.149214
H33   H     H_    0.262381 0.083220 0.377478 0.117458
C31   C     C_3   0.234983 0.143040 0.163674 -0.313489
H34   H     H_    0.270330 0.203653 0.086726 0.214560
H35   H     H_    0.236000 0.047954 0.128028 0.214152
C32   C     C_3   0.123150 0.181534 0.170727 -0.921399
H36   H     H_    0.085490 0.121019 0.245665 0.256202
H37   H     H_    0.079533 0.174795 0.067221 0.252558
H38   H     H_    0.120373 0.277512 0.202830 0.265559

loop_
_geom_bond_atom_site_label_1
_geom_bond_atom_site_label_2
_ccdc_geom_bond_type
C27   H26   S    
C24   H18   S    
C26   H24   S    
C7    C8    D    
C22   H14   S    
C30   H32   S    
C28   H27   S    
C29   H31   S    
C5    C6    A    
C27   C28   S    
Cu1   N1    S    
C25   H21   S    
C15   C16   S    
Cu2   O4    S    
C11   H2    S    
C17   C20   A    
C3    C18   A    
C28   H28   S    
C18   C19   A    
C12   O3    A    
C26   H23   S    
C5    C16   A    
C14   O5    A    
C5    H5    S    
C22   H13   S    
C12   C17   S    
C23   H16   S    
C9    O12   S    
C9    C10   D    
C21   C22   S    
C25   C26   S    
C27   H25   S    
Cu1   Cu2   S    
C2    C6    A    
C31   C32   S    
C21   H12   S    
C22   C23   S    
C30   H33   S    
Cu2   N2    S    
C23   H17   S    
C7    H9    S    
C2    C20   A    
C8    H10   S    
C20   O11   S    
C11   N1    D    
C18   H6    S    
O12   C30   S    
C15   O7    A    
C29   H30   S    
C4    H1    S    
C29   H29   S    
C25   H20   S    
C4    C16   A    
C28   C29   S    
O9    C21   S    
C32   H36   S    
Cu1   O5    S    
Cu2   O6    S    
C6    H7    S    
C23   H15   S    
Cu1   O7    S    
C31   H35   S    
C32   H37   S    
N2    O10   S    
C24   H19   S    
C13   H4    S    
C3    C4    A    
C21   H11   S    
C1    O1    A    
C30   C31   S    
C7    C9    S    
O10   C24   S    
C8    C14   S    
C10   O9    S    
C1    C10   S    
C15   O8    A    
C31   H34   S    
Cu1   O1    S    
Cu2   O2    S    
C2    C3    A    
C13   N2    D    
C11   C13   S    
Cu2   O8    S    
C17   C19   A    
C12   O4    A    
C26   H22   S    
C14   O6    A    
C32   H38   S    
Cu1   O3    S    
O11   C27   S    
C24   C25   S    
C19   H8    S    
C1    O2    A    
H3    N1    S    
