data_mof_unit_8508.cif
_audit_creation_date              2012-10-26T20:18:15-0400
_audit_creation_method            fapswitch 2.2
_symmetry_space_group_name_H-M    P1
_symmetry_Int_Tables_number       1
_space_group_crystal_system       triclinic
_cell_length_a                    23.511077
_cell_length_b                    8.679394
_cell_length_c                    7.416853
_cell_angle_alpha                 103.117081
_cell_angle_beta                  93.366242
_cell_angle_gamma                 92.32303
_cell_volume                      1469.20462079

loop_
_atom_site_label
_atom_site_type_symbol
_atom_type_description
_atom_site_fract_x
_atom_site_fract_y
_atom_site_fract_z
_atom_type_partial_charge
C1    C     C_R   0.498301 0.199568 0.453089 0.550030
C2    C     C_R   0.705820 0.575053 0.638839 -0.161977
C3    C     C_R   0.235294 0.424724 0.360691 -0.074019
C4    C     C_R   0.764703 0.575993 0.638752 -0.073899
C5    C     C_R   0.209259 0.507731 0.514583 0.244795
C6    C     C_R   0.790714 0.492314 0.485178 0.244728
C7    C     C_2   0.497493 0.031632 0.426655 -0.156232
C8    C     C_2   0.502511 0.968368 0.573344 -0.156200
C9    C     C_R   0.391072 0.504246 0.504834 0.549296
C10   C     C_R   0.608923 0.495766 0.495172 0.549242
C11   C     C_R   0.880380 0.610687 0.426105 0.416179
C12   C     C_R   0.501700 0.800432 0.546910 0.550065
C13   C     C_R   0.119589 0.389267 0.573479 0.416132
C14   C     C_R   0.879681 0.386647 0.563047 0.399004
C15   C     C_R   0.120291 0.613359 0.436626 0.398990
C16   C     C_R   0.939252 0.385966 0.567546 0.007342
C17   C     C_R   0.060718 0.614004 0.432065 0.007354
C18   C     C_R   0.969908 0.500358 0.498378 -0.067623
C19   C     C_R   0.030062 0.499598 0.501207 -0.067617
C20   C     C_R   0.940482 0.615206 0.426511 0.065862
C21   C     C_R   0.059487 0.384743 0.573061 0.065832
C22   C     C_R   0.968452 0.272890 0.638931 -0.129353
C23   C     C_R   0.242435 0.595952 0.672237 0.059541
C24   C     C_R   0.031518 0.727068 0.360659 -0.129357
C25   C     C_R   0.027928 0.270882 0.642426 0.081856
C26   C     C_R   0.972041 0.729061 0.357137 0.081875
C27   C     C_3   0.213360 0.684512 0.838926 -0.339682
C28   C     C_3   0.786557 0.314279 0.161539 -0.339786
C29   C     C_3   0.340051 0.699661 0.834358 -0.368253
C30   C     C_3   0.659873 0.298999 0.166581 -0.368326
C31   C     C_R   0.757515 0.403438 0.327961 0.059580
C32   C     C_R   0.302960 0.599433 0.671998 -0.015290
C33   C     C_R   0.696995 0.399923 0.328359 -0.015252
C34   C     C_R   0.328619 0.510235 0.514806 0.006284
C35   C     C_R   0.671365 0.489776 0.485185 0.006331
C36   C     C_R   0.294178 0.425646 0.360714 -0.162046
Cu1   Cu    Cu3+1 0.506340 0.517380 0.684380 0.941021
Cu2   Cu    Cu3+1 0.493660 0.482620 0.315620 0.940990
H1    H     H_    0.945233 0.184485 0.692540 0.166071
H2    H     H_    0.545111 0.619689 0.050897 0.240421
H3    H     H_    0.039537 0.041264 0.642084 0.228174
H4    H     H_    0.044748 0.165351 0.854739 0.230416
H5    H     H_    0.960429 0.958677 0.357469 0.228150
H6    H     H_    0.955225 0.834587 0.144817 0.230421
H7    H     H_    0.222465 0.813951 0.858346 0.146380
H8    H     H_    0.166345 0.663896 0.825563 0.158215
H9    H     H_    0.228943 0.645909 0.965064 0.148834
H10   H     H_    0.833564 0.335132 0.174607 0.158233
H11   H     H_    0.777532 0.184899 0.143004 0.146498
H12   H     H_    0.054738 0.815478 0.307058 0.166090
H13   H     H_    0.770872 0.352150 0.035025 0.148849
H14   H     H_    0.372206 0.773514 0.782901 0.148112
H15   H     H_    0.316325 0.783263 0.934066 0.121203
H16   H     H_    0.361839 0.621754 0.913020 0.163765
H17   H     H_    0.627709 0.225662 0.218726 0.147930
H18   H     H_    0.638087 0.376383 0.087203 0.163854
H19   H     H_    0.683581 0.214864 0.067409 0.121148
H20   H     H_    0.312954 0.358093 0.239590 0.134365
H21   H     H_    0.687051 0.643121 0.759669 0.134275
H22   H     H_    0.209474 0.358233 0.240255 0.142122
H23   H     H_    0.790542 0.643006 0.758845 0.142183
H24   H     H_    0.492756 0.959744 0.285397 0.131834
H25   H     H_    0.507248 0.040256 0.714602 0.131836
H26   H     H_    0.454888 0.380312 0.949103 0.240362
N1    N     N_R   0.851785 0.496988 0.492115 -0.414536
N2    N     N_R   0.148186 0.503014 0.507555 -0.414532
N3    N     N_2   0.484110 0.456420 0.038520 -0.262711
N4    N     N_2   0.515890 0.543580 0.961480 -0.262658
N5    N     N_3   0.055591 0.152806 0.717618 -0.546986
N6    N     N_3   0.944378 0.847131 0.281934 -0.547038
O1    O     O_R   0.504120 0.286130 0.619770 -0.501669
O2    O     O_2   0.149606 0.282445 0.639856 -0.440160
O3    O     O_2   0.849638 0.277487 0.628097 -0.491225
O4    O     O_2   0.150337 0.722562 0.371654 -0.491226
O5    O     O_R   0.495880 0.713870 0.380230 -0.501676
O6    O     O_R   0.493410 0.256770 0.308360 -0.500720
O7    O     O_R   0.506590 0.743230 0.691640 -0.500732
O8    O     O_R   0.423230 0.514630 0.655730 -0.509488
O9    O     O_R   0.576770 0.485370 0.344270 -0.509435
O10   O     O_R   0.412530 0.485280 0.344320 -0.501107
O11   O     O_R   0.587470 0.514720 0.655680 -0.501021
O12   O     O_2   0.850361 0.717472 0.359666 -0.440231

loop_
_geom_bond_atom_site_label_1
_geom_bond_atom_site_label_2
_ccdc_geom_bond_type
C2    C35   A    
Cu1   N4    S    
C7    C8    D    
Cu2   O6    S    
C1    O1    A    
Cu2   O10   S    
C19   C21   A    
C24   C26   A    
C29   C32   S    
C36   H20   S    
C28   H13   S    
C29   H16   S    
C30   H19   S    
C18   C19   A    
C33   C35   A    
C6    N1    S    
C22   C25   A    
C31   C33   A    
H6    N6    S    
C10   C35   S    
C23   C27   S    
C34   C36   A    
C13   N2    A    
C3    H22   S    
C27   H7    S    
C6    C31   A    
Cu1   O11   S    
Cu2   O9    S    
Cu2   O5    S    
C11   O12   S    
C24   H12   S    
C11   C20   A    
C17   C24   A    
N3    N4    D    
C14   O3    S    
C4    C6    A    
C2    H21   S    
C15   N2    A    
C30   H18   S    
C4    H23   S    
H4    N5    S    
C29   H15   S    
C9    O10   A    
C32   C34   A    
C2    C4    A    
H26   N3    S    
C7    H24   S    
Cu1   Cu2   S    
C28   H11   S    
C5    C23   A    
C8    C12   S    
C12   O7    A    
C13   C21   A    
C27   H8    S    
H5    N6    S    
Cu1   O1    S    
C9    C34   S    
C26   N6    S    
C14   C16   A    
C25   N5    S    
H3    N5    S    
Cu1   O8    S    
C27   H9    S    
C15   C17   A    
C21   C25   A    
C28   H10   S    
C16   C22   A    
C30   C33   S    
C1    C7    S    
C1    O6    A    
C28   C31   S    
C5    N2    S    
C3    C5    A    
C10   O9    A    
C13   O2    S    
C30   H17   S    
C10   O11   A    
C23   C32   A    
C20   C26   A    
C3    C36   A    
C22   H1    S    
C17   C19   A    
C14   N1    A    
C18   C20   A    
C9    O8    A    
C8    H25   S    
C15   O4    S    
Cu1   O7    S    
Cu2   N3    S    
C16   C18   A    
H2    N4    S    
C12   O5    A    
C11   N1    A    
C29   H14   S    
