data_mof_unit_44770.cif
_audit_creation_date              2012-12-10T18:57:11-0500
_audit_creation_method            fapswitch 2.2
_symmetry_space_group_name_H-M    P1
_symmetry_Int_Tables_number       1
_space_group_crystal_system       triclinic
_cell_length_a                    8.750517
_cell_length_b                    10.823507
_cell_length_c                    9.563647
_cell_angle_alpha                 90.101649
_cell_angle_beta                  98.113365
_cell_angle_gamma                 90.220526
_cell_volume                      896.709950579

loop_
_atom_site_label
_atom_site_type_symbol
_atom_type_description
_atom_site_fract_x
_atom_site_fract_y
_atom_site_fract_z
_atom_type_partial_charge
C1    C     C_R   0.496537 0.262414 0.499397 0.795769
C2    C     C_R   0.455806 0.935269 0.368833 -0.178211
C3    C     C_R   0.480929 0.870865 0.497649 -0.098059
C4    C     C_R   0.482371 0.937010 0.623285 0.114619
C5    C     C_3   0.592590 0.932262 0.757500 -0.469772
C6    C     C_3   0.591524 0.072425 0.757043 -0.437158
C7    C     C_R   0.632184 0.523380 0.090857 0.201992
C8    C     C_R   0.372244 0.466510 0.057653 -0.086880
C9    C     C_R   0.371934 0.467195 0.909176 -0.083266
C10   C     C_R   0.634390 0.518718 0.943953 0.113866
C11   C     C_3   0.740105 0.628555 0.949088 -0.058872
C12   C     C_R   0.204231 0.493933 0.463508 0.756270
C13   C     C_3   0.728066 0.638805 0.106180 0.189549
C14   C     C_R   0.496988 0.737689 0.499675 0.807698
C15   C     C_R   0.796091 0.498310 0.535833 0.913873
C16   C     C_2   0.038484 0.477713 0.442958 0.234174
C17   C     C_2   0.962136 0.500740 0.552728 -0.413472
C18   C     C_R   0.481790 0.064149 0.622881 0.120113
C19   C     C_R   0.480071 0.129372 0.497078 -0.094990
C20   C     C_R   0.455734 0.064169 0.368515 -0.211922
Cu1   Cu    Cu3+1 0.499990 0.499980 0.640670 0.933091
Cu2   Cu    Cu3+1 0.500010 0.500020 0.359330 0.987299
H1    H     H_    0.267245 0.441955 0.841145 0.145443
H2    H     H_    0.690748 0.705794 0.881436 0.174623
H3    H     H_    0.838954 0.627825 0.177337 0.198855
H4    H     H_    0.022454 0.527410 0.655424 0.126421
H5    H     H_    0.444018 0.112037 0.268234 0.168897
H6    H     H_    0.443305 0.886869 0.268720 0.188824
H7    H     H_    0.538489 0.892255 0.845683 0.197210
H8    H     H_    0.706288 0.892678 0.742586 0.194545
H9    H     H_    0.536729 0.112789 0.844626 0.202287
H10   H     H_    0.704454 0.114079 0.742035 0.197344
H11   H     H_    0.267990 0.440516 0.098861 0.143460
N1    N     N_R   0.500980 0.500930 0.148050 -0.182219
N2    N     N_R   0.500990 0.500890 0.852140 -0.189772
O1    O     O_R   0.500000 0.319640 0.618810 -0.579175
O2    O     O_R   0.500020 0.319680 0.381230 -0.581514
O3    O     O_R   0.274830 0.499980 0.591380 -0.603730
O4    O     O_R   0.274850 0.500020 0.353800 -0.601916
O5    O     O_R   0.499980 0.680320 0.618770 -0.590279
O6    O     O_R   0.500000 0.680360 0.381190 -0.544141
O7    O     O_R   0.725150 0.499980 0.646200 -0.606653
O8    O     O_R   0.725170 0.500020 0.408620 -0.508513
O9    O     O_3   0.961713 0.434503 0.315220 -0.730734
H12   H     H_    0.037096 0.414488 0.250567 0.322644
N3    N     N_2   0.895844 0.594693 0.928461 -0.435829
H13   H     H_    0.906547 0.517575 0.867485 0.275153
C21   C     C_3   0.994857 0.696673 0.902129 -0.700804
H14   H     H_    0.114978 0.663233 0.904573 0.225187
H15   H     H_    0.994218 0.768864 0.984802 0.248724
H16   H     H_    0.955153 0.737075 0.796578 0.221039
O10   O     O_3   0.646156 0.743948 0.139889 -0.722274
H17   H     H_    0.546898 0.747637 0.075178 0.311187

loop_
_geom_bond_atom_site_label_1
_geom_bond_atom_site_label_2
_ccdc_geom_bond_type
C8    C9    A    
C7    C10   A    
C6    H10   S    
C10   N2    A    
Cu1   N2    S    
C20   H5    S    
Cu2   O8    S    
C13   O10   S    
C16   O9    S    
C19   C20   A    
C1    O2    A    
C4    C18   A    
C12   O4    A    
C21   H15   S    
C2    C3    A    
C15   O8    A    
Cu1   O1    S    
C8    N1    A    
Cu1   Cu2   S    
O10   H17   S    
C11   C13   S    
C13   H3    S    
C3    C14   S    
C14   O6    A    
C6    C18   S    
Cu2   O4    S    
C21   H14   S    
C6    H9    S    
C5    H7    S    
C8    H11   S    
C12   O3    A    
C5    C6    S    
Cu2   N1    S    
C7    N1    A    
N3    C21   S    
C1    C19   S    
Cu2   O6    S    
C10   C11   S    
C17   H4    S    
C2    C20   A    
C3    C4    A    
C12   C16   S    
C11   H2    S    
C7    C13   S    
O9    H12   S    
C15   O7    A    
C15   C17   S    
C18   C19   A    
C5    H8    S    
C9    N2    A    
N3    H13   S    
C4    C5    S    
C11   N3    S    
C2    H6    S    
Cu2   O2    S    
C14   O5    A    
C21   H16   S    
C9    H1    S    
Cu1   O3    S    
Cu1   O7    S    
C1    O1    A    
C16   C17   D    
Cu1   O5    S    
