data_mof_unit_47314.cif
_audit_creation_date              2013-03-05T15:45:11-0500
_audit_creation_method            fapswitch 2.2
_symmetry_space_group_name_H-M    P1
_symmetry_Int_Tables_number       1
_space_group_crystal_system       triclinic
_cell_length_a                    11.502597
_cell_length_b                    11.503314
_cell_length_c                    19.464189
_cell_angle_alpha                 90.307703
_cell_angle_beta                  89.744802
_cell_angle_gamma                 60.176561
_cell_volume                      2234.26581755

loop_
_atom_site_label
_atom_site_type_symbol
_atom_site_description
_atom_site_fract_x
_atom_site_fract_y
_atom_site_fract_z
_atom_type_partial_charge
O1    O     O_R   0.267740 0.231990 0.575440 -0.500914
O2    O     O_R   0.527280 0.186680 0.570530 -0.497237
C1    C     C_R   0.640662 0.117752 0.599033 0.548653
O3    O     O_R   0.728090 0.003480 0.576380 -0.501000
O4    O     O_R   0.682970 0.789220 0.570490 -0.493430
C2    C     C_R   0.612770 0.745008 0.598348 0.555104
O5    O     O_R   0.499290 0.771920 0.575530 -0.495192
O6    O     O_R   0.285330 0.030900 0.569730 -0.490022
C3    C     C_R   0.239728 0.145640 0.597864 0.553917
O7    O     O_R   0.270980 0.227040 0.423900 -0.466781
O8    O     O_R   0.530280 0.182090 0.430050 -0.486932
C4    C     C_R   0.645904 0.112242 0.402884 0.545187
O9    O     O_R   0.731330 0.998530 0.424830 -0.513009
O10   O     O_R   0.685970 0.784630 0.430010 -0.514045
C5    C     C_R   0.622776 0.727463 0.407189 0.569434
O11   O     O_R   0.502530 0.766960 0.423990 -0.489229
O12   O     O_R   0.288330 0.026310 0.429250 -0.510207
C6    C     C_R   0.304048 0.114380 0.393854 0.573154
Cr1   Cr    Cr6+3 0.404720 0.198220 0.499960 1.054102
Cr2   Cr    Cr6+3 0.698290 0.897110 0.500380 1.034964
Cr3   Cr    Cr6+3 0.396970 0.904720 0.499610 1.057408
O13   O     O_3   0.499990 0.000020 0.499980 -0.287013
C7    C     C_1   0.670755 0.647624 0.860302 0.005648
C8    C     C_1   0.655091 0.683076 0.728283 -0.030118
C9    C     C_1   0.663920 0.667172 0.799675 -0.030408
C10   C     C_1   0.641349 0.702762 0.667707 0.008018
C11   C     C_1   0.127944 0.198612 0.859539 0.007526
C12   C     C_1   0.170798 0.170086 0.727648 -0.030082
C13   C     C_1   0.150731 0.181993 0.799014 -0.029759
C14   C     C_1   0.193922 0.160920 0.667116 0.005865
C15   C     C_1   0.678284 0.191040 0.860973 0.007119
C16   C     C_1   0.658411 0.167768 0.728955 -0.029492
C17   C     C_1   0.665362 0.180979 0.800401 -0.029543
C18   C     C_1   0.653033 0.150341 0.668419 0.008020
C19   C     C_R   0.596050 0.587577 0.319613 0.003316
C20   C     C_R   0.592712 0.581082 0.247905 -0.024213
C21   C     C_R   0.698352 0.579878 0.208288 -0.007131
C22   C     C_R   0.798825 0.594860 0.242354 0.052075
C23   C     C_R   0.782384 0.629912 0.311475 -0.159971
H1    H     H_    0.849059 0.659530 0.334996 0.146762
C24   C     C_R   0.675390 0.636544 0.348440 -0.020310
C25   C     C_R   0.280416 0.225602 0.280526 0.062051
C26   C     C_R   0.237271 0.245383 0.212121 0.059795
C27   C     C_R   0.169672 0.180667 0.186480 0.065798
C28   C     C_R   0.169027 0.076430 0.224937 0.059979
C29   C     C_R   0.222615 0.049659 0.290900 -0.134468
H2    H     H_    0.219412 0.971889 0.320578 0.161111
C30   C     C_R   0.269949 0.128856 0.320596 0.005820
C31   C     C_R   0.628510 0.075061 0.281190 -0.121865
H3    H     H_    0.593722 0.005952 0.294368 0.118318
C32   C     C_R   0.636560 0.102843 0.212606 -0.156532
H4    H     H_    0.610905 0.053550 0.172772 0.118452
C33   C     C_R   0.679442 0.193275 0.196150 0.072881
C34   C     C_R   0.721396 0.249803 0.247582 -0.062811
H5    H     H_    0.765603 0.310645 0.234276 0.098482
C35   C     C_R   0.710625 0.224493 0.316158 -0.118420
H6    H     H_    0.741982 0.269087 0.355849 0.135750
C36   C     C_R   0.661995 0.139036 0.332670 0.049021
O14   O     O_R   0.821500 0.119550 0.952820 -0.502972
O15   O     O_R   0.037130 0.162750 0.957360 -0.494474
C37   C     C_R   0.082872 0.230914 0.928868 0.545311
O16   O     O_R   0.056440 0.344950 0.951330 -0.503005
O17   O     O_R   0.797900 0.560570 0.957460 -0.492200
C38   C     C_R   0.683693 0.605692 0.929741 0.552201
O18   O     O_R   0.596140 0.579600 0.952720 -0.499080
O19   O     O_R   0.639070 0.321380 0.958660 -0.495077
C39   C     C_R   0.708086 0.206573 0.930321 0.544351
O20   O     O_R   0.821240 0.124490 0.104360 -0.497768
O21   O     O_R   0.036900 0.167320 0.097830 -0.487751
C40   C     C_R   0.087116 0.233426 0.124368 0.576477
O22   O     O_R   0.056190 0.349890 0.102870 -0.468945
O23   O     O_R   0.797670 0.565150 0.097930 -0.453853
C41   C     C_R   0.708301 0.551921 0.133746 0.570224
O24   O     O_R   0.595880 0.584540 0.104260 -0.486232
O25   O     O_R   0.638830 0.325960 0.099140 -0.493078
C42   C     C_R   0.707011 0.210684 0.126143 0.537606
Cr4   Cr    Cr6+3 0.926180 0.152240 0.028110 1.042337
Cr5   Cr    Cr6+3 0.921340 0.452070 0.027460 1.062350
Cr6   Cr    Cr6+3 0.626260 0.447120 0.028700 1.054024
O26   O     O_3   0.824590 0.350480 0.028090 -0.292925
C43   C     C_2   0.516384 0.547816 0.365259 0.599040
O27   O     O_2   0.410248 0.558328 0.346644 -0.496989
O28   O     O_R   0.565151 0.497312 0.430565 -0.701447
H7    H     H_    0.504342 0.472583 0.456840 0.340970
C44   C     C_2   0.469872 0.594699 0.216190 0.655133
O29   O     O_2   0.379668 0.706016 0.200625 -0.526189
O30   O     O_R   0.456065 0.482502 0.204917 -0.693045
H8    H     H_    0.369059 0.506349 0.181102 0.326512
N1    N     N_3   0.912839 0.584257 0.206657 -0.567430
H9    H     H_    0.909990 0.676334 0.210685 0.232962
H10   H     H_    0.998350 0.512903 0.232018 0.229820
N2    N     N_3   0.326155 0.309885 0.310758 -0.565688
H11   H     H_    0.245573 0.408009 0.312440 0.250903
H12   H     H_    0.400599 0.309515 0.279887 0.268439
N3    N     N_3   0.260524 0.332166 0.168497 -0.603775
H13   H     H_    0.217655 0.427365 0.191023 0.231539
H14   H     H_    0.363897 0.293195 0.163401 0.237167
N4    N     N_3   0.108611 0.001985 0.198551 -0.571272
H15   H     H_    0.171441 0.938731 0.159596 0.276600
H16   H     H_    0.103393 0.940199 0.236231 0.245633

loop_
_geom_bond_atom_site_label_1
_geom_bond_atom_site_label_2
_geom_bond_distance
_ccdc_geom_bond_type
O30   H8    1.011988 S    
O11   Cr3   2.048696 S    
O18   Cr6   2.033025 S    
C11   C13   1.199194 T    
C41   O24   1.291770 A    
O21   Cr4   1.930347 S    
N3    H13   1.044247 S    
O25   C42   1.275342 A    
O14   Cr4   2.049145 S    
C43   O27   1.222259 D    
C19   C43   1.500764 S    
C23   C24   1.391495 A    
O4    Cr2   1.914986 S    
C2    C10   1.420879 S    
C28   C29   1.394887 A    
C15   C39   1.426124 S    
O19   Cr6   1.933238 S    
C22   N1    1.431588 S    
O8    Cr1   1.919682 S    
C20   C21   1.430443 A    
C8    C10   1.198063 T    
C28   N4    1.438908 S    
O4    C2    1.269733 A    
Cr5   O26   1.974319 S    
C5    O11   1.263235 A    
C35   H6    1.082749 S    
O23   Cr5   1.928722 S    
C11   C37   1.422883 S    
O14   C39   1.267512 A    
C34   H5    1.081785 S    
C19   C20   1.399040 A    
O6    C3    1.272077 A    
C31   C32   1.387671 A    
C26   N3    1.435894 S    
C15   C17   1.201131 T    
C27   C40   1.475314 S    
C40   O22   1.276641 A    
N1    H10   1.044271 S    
C4    C36   1.433879 S    
O19   C39   1.274394 A    
Cr3   O13   1.974384 S    
C37   O16   1.265039 A    
C43   O28   1.399315 S    
O6    Cr3   1.930740 S    
C29   C30   1.396780 A    
C44   O30   1.392935 S    
C34   C35   1.385749 A    
O15   Cr4   1.918156 S    
O1    Cr1   2.038717 S    
C32   H4    1.083296 S    
O10   Cr2   1.932713 S    
Cr1   O13   1.978372 S    
O1    C3    1.265994 A    
C8    C9    1.400089 S    
C5    C24   1.455716 S    
C23   H1    1.084073 S    
C1    C18   1.426227 S    
C44   O29   1.222088 D    
O12   Cr3   1.921136 S    
C31   C36   1.404084 A    
Cr6   O26   1.979249 S    
O15   C37   1.269512 A    
C32   C33   1.393053 A    
C16   C18   1.201165 T    
C26   C27   1.408238 A    
C21   C22   1.417298 A    
O28   H7    1.013912 S    
O7    Cr1   2.046082 S    
N2    H12   1.042151 S    
O12   C6    1.312363 A    
C25   C30   1.415313 A    
C3    C14   1.422830 S    
C7    C38   1.420907 S    
Cr2   O13   1.979576 S    
N4    H15   1.045374 S    
N4    H16   1.046069 S    
O24   Cr6   2.050610 S    
C33   C42   1.435142 S    
C25   C26   1.402724 A    
C1    O3    1.268315 A    
C27   C28   1.420054 A    
Cr4   O26   1.978705 S    
O20   Cr4   2.033231 S    
C21   C41   1.475983 S    
C29   H2    1.083296 S    
C12   C13   1.401874 S    
O9    Cr2   2.030379 S    
O2    Cr1   1.929986 S    
O16   Cr5   2.045553 S    
O23   C41   1.310047 A    
C6    C30   1.468798 S    
O8    C4    1.272903 A    
N3    H14   1.045430 S    
C33   C34   1.402615 A    
C2    O5    1.265567 A    
C20   C44   1.480122 S    
O20   C42   1.258566 A    
C38   O18   1.265872 A    
C12   C14   1.199167 T    
O2    C1    1.272784 A    
O5    Cr3   2.038123 S    
C16   C17   1.405051 S    
C22   C23   1.387254 A    
O7    C6    1.290649 A    
N2    H11   1.045454 S    
C35   C36   1.389718 A    
C25   N2    1.437726 S    
C7    C9    1.198062 T    
O21   C40   1.270451 A    
C19   C24   1.406236 A    
O17   C38   1.271758 A    
O3    Cr2   2.050666 S    
C4    O9    1.261079 A    
C31   H3    1.084253 S    
O10   C5    1.278018 A    
N1    H9    1.045778 S    
O25   Cr6   1.914437 S    
O22   Cr5   2.041405 S    
O17   Cr5   1.924325 S    
