data_mof_unit_45762.cif
_audit_creation_date              2013-03-05T16:26:33-0500
_audit_creation_method            fapswitch 2.2
_symmetry_space_group_name_H-M    P1
_symmetry_Int_Tables_number       1
_space_group_crystal_system       triclinic
_cell_length_a                    18.315427
_cell_length_b                    18.301924
_cell_length_c                    34.370105
_cell_angle_alpha                 90.084888
_cell_angle_beta                  89.934975
_cell_angle_gamma                 90.18528
_cell_volume                      11521.0385521

loop_
_atom_site_label
_atom_site_type_symbol
_atom_site_description
_atom_site_fract_x
_atom_site_fract_y
_atom_site_fract_z
_atom_type_partial_charge
Zn1   Zn    Zn3+2 0.000000 0.586730 0.032740 0.944487
Zn2   Zn    Zn3+2 0.413270 1.000000 0.032740 0.938723
Zn3   Zn    Zn3+2 0.000000 0.413270 0.032740 0.938389
Zn4   Zn    Zn3+2 0.586730 1.000000 0.032740 0.937124
Zn5   Zn    Zn3+2 0.500000 0.086730 0.532740 0.941031
Zn6   Zn    Zn3+2 0.913270 0.500000 0.532740 0.939533
Zn7   Zn    Zn3+2 0.500000 0.913270 0.532740 0.943674
Zn8   Zn    Zn3+2 0.086730 0.500000 0.532740 0.943627
Zn9   Zn    Zn3+2 0.913250 0.500000 0.967240 0.948907
Zn10  Zn    Zn3+2 0.500000 0.913250 0.967240 0.943779
Zn11  Zn    Zn3+2 0.086750 0.500000 0.967240 0.951691
Zn12  Zn    Zn3+2 0.500000 0.086750 0.967240 0.948180
Zn13  Zn    Zn3+2 0.413250 1.000000 0.467240 0.939350
Zn14  Zn    Zn3+2 0.000000 0.413250 0.467240 0.941155
Zn15  Zn    Zn3+2 0.586750 1.000000 0.467240 0.935831
Zn16  Zn    Zn3+2 0.000000 0.586750 0.467240 0.941206
O1    O     O_3   0.000000 0.500000 0.999990 -0.474345
O2    O     O_3   0.500000 0.000000 0.999990 -0.475021
O3    O     O_3   0.500000 0.000000 0.499990 -0.472032
O4    O     O_3   1.000000 0.500000 0.499990 -0.472676
O5    O     O_R   0.060740 0.500000 0.912560 -0.641011
O6    O     O_R   0.500000 0.060740 0.912560 -0.636530
O7    O     O_R   0.939260 0.500000 0.912560 -0.638490
O8    O     O_R   0.500000 0.939260 0.912560 -0.646806
O9    O     O_R   0.560740 0.000000 0.412560 -0.640903
O10   O     O_R   0.000000 0.560740 0.412560 -0.641897
O11   O     O_R   0.439260 0.000000 0.412560 -0.640472
O12   O     O_R   1.000000 0.439260 0.412560 -0.642778
O13   O     O_R   0.000000 0.560680 0.087420 -0.645353
O14   O     O_R   0.439320 1.000000 0.087420 -0.648171
O15   O     O_R   0.000000 0.439320 0.087420 -0.639897
O16   O     O_R   0.560680 1.000000 0.087420 -0.644068
O17   O     O_R   0.500000 0.060680 0.587420 -0.640295
O18   O     O_R   0.939320 0.500000 0.587420 -0.641843
O19   O     O_R   0.500000 0.939320 0.587420 -0.645500
O20   O     O_R   0.060680 0.500000 0.587420 -0.647852
O21   O     O_R   0.853840 0.585430 0.977070 -0.646841
O22   O     O_R   0.414570 0.853840 0.977070 -0.648773
O23   O     O_R   0.146160 0.414570 0.977070 -0.638817
O24   O     O_R   0.585430 0.146160 0.977070 -0.634869
O25   O     O_R   0.146160 0.585430 0.977070 -0.651308
O26   O     O_R   0.585430 0.853840 0.977070 -0.642698
O27   O     O_R   0.853840 0.414570 0.977070 -0.649473
O28   O     O_R   0.414570 0.146160 0.977070 -0.645162
O29   O     O_R   0.353840 0.085430 0.477070 -0.655896
O30   O     O_R   0.914570 0.353840 0.477070 -0.648769
O31   O     O_R   0.646160 0.914570 0.477070 -0.659941
O32   O     O_R   0.085430 0.646160 0.477070 -0.646676
O33   O     O_R   0.646160 0.085430 0.477070 -0.650461
O34   O     O_R   0.085430 0.353840 0.477070 -0.657258
O35   O     O_R   0.353840 0.914570 0.477070 -0.645996
O36   O     O_R   0.914570 0.646160 0.477070 -0.658032
O37   O     O_R   0.085450 0.353820 0.022910 -0.649454
O38   O     O_R   0.646180 0.085450 0.022910 -0.654077
O39   O     O_R   0.914550 0.646180 0.022910 -0.643479
O40   O     O_R   0.353820 0.914550 0.022910 -0.636649
O41   O     O_R   0.914550 0.353820 0.022910 -0.659383
O42   O     O_R   0.353820 0.085450 0.022910 -0.658913
O43   O     O_R   0.085450 0.646180 0.022910 -0.650287
O44   O     O_R   0.646180 0.914550 0.022910 -0.656304
O45   O     O_R   0.585450 0.853820 0.522910 -0.632289
O46   O     O_R   0.146180 0.585450 0.522910 -0.650070
O47   O     O_R   0.414550 0.146180 0.522910 -0.643367
O48   O     O_R   0.853820 0.414550 0.522910 -0.650036
O49   O     O_R   0.414550 0.853820 0.522910 -0.654742
O50   O     O_R   0.853820 0.585450 0.522910 -0.641687
O51   O     O_R   0.585450 0.146180 0.522910 -0.656189
O52   O     O_R   0.146180 0.414550 0.522910 -0.653917
C1    C     C_R   0.000049 0.500281 0.894184 0.796191
C2    C     C_R   0.499860 0.999934 0.894222 0.797326
C3    C     C_R   0.500033 0.000105 0.394277 0.802288
C4    C     C_R   0.000115 0.499943 0.394299 0.793630
C5    C     C_R   0.999811 0.500039 0.105736 0.849224
C6    C     C_R   0.499971 0.999783 0.105735 0.847375
C7    C     C_R   0.499765 0.000057 0.605671 0.847532
C8    C     C_R   0.999910 0.500936 0.605638 0.847162
C9    C     C_R   0.858940 0.638705 0.000981 0.797672
C10   C     C_R   0.360629 0.859539 0.000462 0.811493
C11   C     C_R   0.140864 0.360948 0.000807 0.794938
C12   C     C_R   0.640285 0.139942 0.999811 0.837193
C13   C     C_R   0.140772 0.639117 0.000705 0.821064
C14   C     C_R   0.638496 0.858470 0.000932 0.803620
C15   C     C_R   0.861144 0.359063 0.999172 0.810568
C16   C     C_R   0.362331 0.141991 0.001776 0.798275
C17   C     C_R   0.359231 0.139153 0.500708 0.807927
C18   C     C_R   0.859326 0.360468 0.499370 0.825717
C19   C     C_R   0.640808 0.861015 0.500609 0.810036
C20   C     C_R   0.140299 0.639725 0.499641 0.827182
C21   C     C_R   0.639037 0.141057 0.499199 0.807079
C22   C     C_R   0.138293 0.358397 0.501312 0.823966
C23   C     C_R   0.360832 0.859158 0.499313 0.806713
C24   C     C_R   0.860781 0.640914 0.500945 0.812059
C25   C     C_R   0.212298 0.734693 0.969676 -0.051403
C26   C     C_R   0.286706 0.233070 0.970132 -0.033640
C27   C     C_R   0.736109 0.317996 0.991099 -0.001785
C28   C     C_R   0.713522 0.765037 0.969095 -0.023588
C29   C     C_R   0.768613 0.715386 0.969521 -0.032681
C30   C     C_R   0.682768 0.265653 0.991239 -0.001080
C31   C     C_R   0.233102 0.284495 0.969811 -0.029538
C32   C     C_R   0.265611 0.787483 0.969583 -0.040350
C33   C     C_R   0.763922 0.183186 0.490620 -0.005702
C34   C     C_R   0.780999 0.728230 0.468492 -0.035881
C35   C     C_R   0.234708 0.818392 0.496875 -0.009864
C36   C     C_R   0.219591 0.272834 0.468655 -0.043966
C37   C     C_R   0.272220 0.219191 0.468575 -0.037372
C38   C     C_R   0.181513 0.765884 0.496465 -0.026781
C39   C     C_R   0.728422 0.781695 0.468330 -0.035737
C40   C     C_R   0.816765 0.235730 0.488706 -0.028232
C41   C     C_R   0.198216 0.693504 0.002778 -0.113969
C42   C     C_R   0.310367 0.201594 0.004627 -0.117817
C43   C     C_R   0.809240 0.299677 0.995423 -0.145566
C44   C     C_R   0.689254 0.797521 0.003430 -0.113003
C45   C     C_R   0.799284 0.690418 0.003764 -0.125736
C46   C     C_R   0.699930 0.192195 0.996231 -0.134325
C47   C     C_R   0.200207 0.308749 0.003829 -0.126472
C48   C     C_R   0.306570 0.801951 0.002679 -0.132801
C49   C     C_R   0.690670 0.201000 0.495080 -0.144207
C50   C     C_R   0.805434 0.697750 0.503232 -0.148612
C51   C     C_R   0.308256 0.799957 0.495851 -0.138737
C52   C     C_R   0.192332 0.300551 0.503543 -0.132572
C53   C     C_R   0.301233 0.192849 0.503182 -0.148631
C54   C     C_R   0.199413 0.692144 0.495630 -0.125899
C55   C     C_R   0.699169 0.807908 0.502957 -0.153644
C56   C     C_R   0.799350 0.309022 0.494366 -0.132575
C57   C     C_R   0.235762 0.709255 0.038113 0.139047
C58   C     C_R   0.285905 0.231778 0.040761 0.141057
C59   C     C_R   0.830366 0.225026 0.991910 0.124157
C60   C     C_R   0.709586 0.764759 0.039504 0.144274
C61   C     C_R   0.766367 0.710877 0.039714 0.119861
C62   C     C_R   0.774387 0.170059 0.992939 0.126815
C63   C     C_R   0.229287 0.285771 0.040308 0.115806
C64   C     C_R   0.290637 0.765023 0.038119 0.125831
C65   C     C_R   0.669180 0.275519 0.490177 0.118402
C66   C     C_R   0.773455 0.720258 0.539374 0.118646
C67   C     C_R   0.328387 0.726499 0.486753 0.120240
C68   C     C_R   0.219706 0.274175 0.539778 0.141581
C69   C     C_R   0.275743 0.220187 0.539514 0.123906
C70   C     C_R   0.272428 0.671203 0.486571 0.137203
C71   C     C_R   0.722849 0.779365 0.539229 0.119433
C72   C     C_R   0.724908 0.331138 0.490821 0.137541
C73   C     C_3   0.291051 0.768234 0.929432 -0.023525
C74   C     C_3   0.204997 0.261301 0.930708 -0.030390
C75   C     C_3   0.628387 0.314496 0.011157 -0.053174
C76   C     C_3   0.798610 0.737144 0.930722 -0.028011
C77   C     C_3   0.734018 0.791726 0.929175 -0.051487
C78   C     C_3   0.689697 0.372814 0.011986 -0.088417
C79   C     C_3   0.265593 0.202349 0.931132 -0.049595
C80   C     C_3   0.229877 0.709945 0.929169 -0.046262
C81   C     C_3   0.873530 0.188042 0.507127 -0.031923
C82   C     C_3   0.766515 0.824431 0.437034 -0.021796
C83   C     C_3   0.132532 0.807643 0.523454 -0.039841
C84   C     C_3   0.234975 0.176263 0.437093 -0.018541
C85   C     C_3   0.177631 0.237474 0.436144 -0.042714
C86   C     C_3   0.192849 0.867131 0.523955 -0.064056
C87   C     C_3   0.824089 0.763239 0.436372 -0.042603
C88   C     C_3   0.812549 0.129584 0.510991 -0.070491
H1    H     H_    0.346268 0.742968 0.930806 0.162935
H2    H     H_    0.216249 0.305101 0.909036 0.150793
H3    H     H_    0.615038 0.294658 0.040965 0.138973
H4    H     H_    0.792498 0.691362 0.909607 0.151107
H5    H     H_    0.692186 0.774627 0.907491 0.140931
H6    H     H_    0.710830 0.382783 0.041908 0.139580
H7    H     H_    0.308812 0.213534 0.909132 0.140713
H8    H     H_    0.251891 0.653303 0.929014 0.159503
H9    H     H_    0.890994 0.210894 0.535703 0.135378
H10   H     H_    0.789181 0.875949 0.449495 0.154305
H11   H     H_    0.127971 0.778708 0.551855 0.139288
H12   H     H_    0.211832 0.124884 0.449496 0.154599
H13   H     H_    0.123081 0.218348 0.446214 0.161235
H14   H     H_    0.220349 0.871279 0.552755 0.130627
H15   H     H_    0.878358 0.782434 0.446909 0.153159
H16   H     H_    0.795201 0.121997 0.541785 0.125947
C89   C     C_R   0.439914 0.027897 0.832019 -0.247120
C90   C     C_R   0.033916 0.444521 0.831512 -0.240264
C91   C     C_R   0.558677 0.971096 0.831760 -0.245430
C92   C     C_R   0.966828 0.557770 0.831885 -0.244278
C93   C     C_R   0.939395 0.525362 0.332294 -0.247966
C94   C     C_R   0.534982 0.944371 0.332034 -0.251305
C95   C     C_R   0.060428 0.473920 0.332078 -0.248152
C96   C     C_R   0.465199 0.055938 0.332117 -0.251837
C97   C     C_R   0.499488 0.999697 0.851885 -0.023729
C98   C     C_R   0.000219 0.500869 0.851761 -0.024270
C99   C     C_R   0.000017 0.499786 0.352102 -0.013906
C100  C     C_R   0.500095 0.000167 0.352026 -0.021352
C101  C     C_R   0.559837 0.970117 0.790842 0.074332
C102  C     C_R   0.966541 0.559807 0.790982 0.075022
C103  C     C_R   0.437930 0.027908 0.791101 0.074341
C104  C     C_R   0.034437 0.443220 0.790624 0.073458
C105  C     C_R   0.062405 0.474625 0.291197 0.075131
C106  C     C_R   0.465678 0.058165 0.291247 0.073962
C107  C     C_R   0.936960 0.524197 0.291434 0.075012
C108  C     C_R   0.534341 0.941943 0.291178 0.074386
C109  C     C_R   0.498737 0.998886 0.770451 -0.005856
C110  C     C_R   0.000443 0.501638 0.770307 -0.005367
C111  C     C_R   0.999580 0.499366 0.270750 -0.004836
C112  C     C_R   0.499986 0.000003 0.270687 -0.003285
C113  C     C_R   0.619214 0.938798 0.770002 0.148165
C114  C     C_R   0.930739 0.616803 0.770407 0.146344
C115  C     C_R   0.378295 0.059065 0.770526 0.149129
C116  C     C_R   0.070312 0.386536 0.769714 0.146310
C117  C     C_R   0.124378 0.448514 0.270532 0.145881
C118  C     C_R   0.430267 0.115415 0.270683 0.147737
C119  C     C_R   0.874724 0.550014 0.271034 0.146823
C120  C     C_R   0.569679 0.884580 0.270562 0.147239
C121  C     C_R   0.120517 0.442366 0.229536 0.169824
C122  C     C_R   0.425329 0.110981 0.229640 0.170500
C123  C     C_R   0.878209 0.556162 0.230030 0.169482
C124  C     C_R   0.574733 0.888923 0.229533 0.169698
C125  C     C_R   0.614777 0.932903 0.729066 0.171458
C126  C     C_R   0.924176 0.611623 0.729512 0.172916
C127  C     C_R   0.382634 0.065312 0.729555 0.168738
C128  C     C_R   0.076356 0.391962 0.728853 0.173113
C129  C     C_R   0.062472 0.476494 0.209136 0.076970
C130  C     C_R   0.467980 0.058784 0.209226 0.077952
C131  C     C_R   0.936331 0.522439 0.209316 0.076149
C132  C     C_R   0.532055 0.940999 0.209168 0.077519
C133  C     C_R   0.559814 0.971669 0.708825 0.076213
C134  C     C_R   0.966899 0.559963 0.708906 0.073930
C135  C     C_R   0.437778 0.026984 0.708977 0.075238
C136  C     C_R   0.033077 0.443479 0.708679 0.077132
C137  C     C_R   0.999433 0.499392 0.229806 -0.131146
C138  C     C_R   0.499973 0.999912 0.229790 -0.132617
C139  C     C_R   0.498697 0.999060 0.729507 -0.130840
C140  C     C_R   0.000196 0.501748 0.729391 -0.131579
C141  C     C_R   0.065255 0.489616 0.168537 0.115323
C142  C     C_R   0.480767 0.063349 0.168657 0.113797
C143  C     C_R   0.933746 0.510041 0.168581 0.114293
C144  C     C_R   0.519396 0.936276 0.168595 0.116041
C145  C     C_R   0.563975 0.985175 0.668357 0.111385
C146  C     C_R   0.978742 0.564689 0.668265 0.118827
C147  C     C_R   0.434344 0.014818 0.668291 0.116379
C148  C     C_R   0.020220 0.438435 0.668242 0.112286
C149  C     C_R   0.999593 0.500049 0.148295 -0.057057
C150  C     C_R   0.499935 0.999748 0.148315 -0.055998
C151  C     C_R   0.499346 0.000142 0.648098 -0.056708
C152  C     C_R   0.999636 0.501462 0.648042 -0.056175
H17   H     H_    0.395849 0.049801 0.849328 0.149729
H18   H     H_    0.059385 0.402279 0.848479 0.138854
H19   H     H_    0.603277 0.950084 0.848899 0.148243
H20   H     H_    0.941168 0.599689 0.849117 0.139173
H21   H     H_    0.894573 0.545600 0.349635 0.143613
H22   H     H_    0.561776 0.903038 0.349217 0.150548
H23   H     H_    0.105438 0.453853 0.349252 0.143692
H24   H     H_    0.438544 0.097398 0.349369 0.150331
C153  C     C_3   0.223249 0.660893 0.073693 -0.412240
C154  C     C_3   0.263957 0.588562 0.069535 -0.912996
H25   H     H_    0.323072 0.598731 0.064628 0.262139
H26   H     H_    0.257658 0.555974 0.096536 0.254436
H27   H     H_    0.241848 0.556253 0.044832 0.258968
H28   H     H_    0.240597 0.687285 0.101112 0.215851
H29   H     H_    0.164424 0.650072 0.078382 0.225018
C155  C     C_3   0.321695 0.210431 0.079162 -0.395105
C156  C     C_3   0.382945 0.263512 0.090069 -0.941379
H30   H     H_    0.434636 0.245825 0.076224 0.258297
H31   H     H_    0.370402 0.320273 0.080913 0.265882
H32   H     H_    0.390913 0.263463 0.122086 0.261053
H33   H     H_    0.281248 0.208492 0.103024 0.210963
H34   H     H_    0.343949 0.154578 0.078923 0.226860
C157  C     C_3   0.910507 0.204322 0.985954 -0.388902
C158  C     C_3   0.925990 0.181700 0.943961 -0.907647
H35   H     H_    0.886904 0.140345 0.933105 0.283127
H36   H     H_    0.923321 0.230272 0.924670 0.262217
H37   H     H_    0.981431 0.157779 0.942299 0.247261
H38   H     H_    0.949197 0.249016 0.992087 0.229140
H39   H     H_    0.926896 0.161083 0.006725 0.186179
C159  C     C_3   0.664806 0.779845 0.075959 -0.415184
C160  C     C_3   0.597029 0.730942 0.076524 -0.911946
H40   H     H_    0.612626 0.672684 0.073023 0.264070
H41   H     H_    0.567910 0.736763 0.104652 0.256536
H42   H     H_    0.559348 0.746375 0.052624 0.258561
H43   H     H_    0.696176 0.771213 0.103012 0.213986
H44   H     H_    0.648136 0.837623 0.077827 0.224524
C161  C     C_3   0.791451 0.675462 0.077443 -0.404774
C162  C     C_3   0.846617 0.724129 0.098623 -0.811109
H45   H     H_    0.893808 0.736834 0.079494 0.280636
H46   H     H_    0.821279 0.776303 0.107876 0.237864
H47   H     H_    0.867285 0.695549 0.124762 0.239748
H48   H     H_    0.744649 0.662419 0.096733 0.202289
H49   H     H_    0.816673 0.621449 0.071920 0.195588
C163  C     C_3   0.792710 0.089078 0.988913 -0.376728
C164  C     C_3   0.764031 0.058159 0.950473 -0.892079
H50   H     H_    0.760024 0.101068 0.927738 0.261071
H51   H     H_    0.802665 0.016365 0.939761 0.253418
H52   H     H_    0.709455 0.032767 0.954553 0.250000
H53   H     H_    0.851781 0.077836 0.990039 0.204897
H54   H     H_    0.771065 0.057363 0.013828 0.226904
C165  C     C_3   0.200595 0.319146 0.078090 -0.392681
C166  C     C_3   0.139408 0.272871 0.096029 -0.800474
H55   H     H_    0.095737 0.261197 0.074585 0.280330
H56   H     H_    0.160368 0.219899 0.106759 0.230236
H57   H     H_    0.114946 0.302716 0.120941 0.241695
H58   H     H_    0.244688 0.326978 0.099747 0.210250
H59   H     H_    0.180340 0.375381 0.073087 0.195260
C167  C     C_3   0.336346 0.780599 0.074317 -0.405513
C168  C     C_3   0.296983 0.832572 0.102126 -0.822666
H60   H     H_    0.289512 0.886829 0.088371 0.285541
H61   H     H_    0.242513 0.810967 0.110420 0.242353
H62   H     H_    0.329962 0.839850 0.128940 0.242075
H63   H     H_    0.350939 0.729242 0.089480 0.203756
H64   H     H_    0.390113 0.804881 0.066772 0.192409
C169  C     C_3   0.589062 0.294752 0.483000 -0.392587
C170  C     C_3   0.575271 0.314682 0.440472 -0.890005
H65   H     H_    0.603979 0.365570 0.432165 0.272746
H66   H     H_    0.593565 0.269603 0.421129 0.261296
H67   H     H_    0.515892 0.323223 0.435870 0.243502
H68   H     H_    0.551358 0.249237 0.489234 0.228704
H69   H     H_    0.570618 0.338740 0.502885 0.188110
C171  C     C_3   0.796030 0.684517 0.577649 -0.359900
C172  C     C_3   0.747390 0.618826 0.587526 -0.782289
H70   H     H_    0.689795 0.635684 0.591121 0.240437
H71   H     H_    0.748659 0.576636 0.564419 0.275484
H72   H     H_    0.766277 0.593746 0.615124 0.232613
H73   H     H_    0.854006 0.667816 0.576601 0.192010
H74   H     H_    0.794780 0.722575 0.602575 0.189802
C173  C     C_3   0.407567 0.708271 0.476644 -0.397685
C174  C     C_3   0.418259 0.699325 0.432809 -0.884067
H75   H     H_    0.386924 0.652170 0.421394 0.272480
H76   H     H_    0.400699 0.749669 0.417458 0.261193
H77   H     H_    0.476960 0.689999 0.426438 0.242696
H78   H     H_    0.446289 0.751167 0.485896 0.224874
H79   H     H_    0.426422 0.659291 0.492627 0.188372
C175  C     C_3   0.181608 0.293534 0.578009 -0.400803
C176  C     C_3   0.116905 0.242375 0.585376 -0.938058
H80   H     H_    0.129168 0.185649 0.575884 0.267929
H81   H     H_    0.104024 0.240893 0.616922 0.261158
H82   H     H_    0.068230 0.262479 0.569538 0.254600
H83   H     H_    0.219266 0.290966 0.603058 0.210358
H84   H     H_    0.162892 0.350624 0.579292 0.230705
C177  C     C_3   0.303246 0.186849 0.577521 -0.390904
C178  C     C_3   0.363590 0.233646 0.595780 -0.803481
H85   H     H_    0.409322 0.242054 0.575075 0.280924
H86   H     H_    0.342666 0.288044 0.604485 0.232802
H87   H     H_    0.385223 0.205907 0.621994 0.239043
H88   H     H_    0.258407 0.178311 0.598719 0.205013
H89   H     H_    0.323736 0.130607 0.573011 0.196433
C179  C     C_3   0.289052 0.591153 0.477258 -0.395391
C180  C     C_3   0.254006 0.566376 0.438972 -0.866083
H90   H     H_    0.275958 0.512093 0.430562 0.237012
H91   H     H_    0.193991 0.560784 0.441869 0.250013
H92   H     H_    0.266218 0.605777 0.415302 0.260641
H93   H     H_    0.347975 0.579778 0.474868 0.207471
H94   H     H_    0.270155 0.555492 0.501318 0.223539
C181  C     C_3   0.701193 0.818750 0.576816 -0.374595
C182  C     C_3   0.640074 0.779546 0.598957 -0.781594
H95   H     H_    0.604735 0.820151 0.613763 0.245919
H96   H     H_    0.605181 0.746825 0.579011 0.266486
H97   H     H_    0.663349 0.743599 0.621691 0.234817
H98   H     H_    0.749030 0.828248 0.595902 0.172815
H99   H     H_    0.683438 0.875422 0.570634 0.186599
C183  C     C_3   0.706236 0.412496 0.488125 -0.383360
C184  C     C_3   0.736236 0.447792 0.450959 -0.859117
H100  H     H_    0.711942 0.502887 0.447318 0.237314
H101  H     H_    0.796295 0.454752 0.452308 0.247210
H102  H     H_    0.722483 0.414259 0.425032 0.255505
H103  H     H_    0.647014 0.423070 0.488675 0.203391
H104  H     H_    0.727004 0.442114 0.514008 0.221721
C185  C     C_3   0.288284 0.834144 0.901367 -0.339003
C186  C     C_3   0.343508 0.825150 0.868356 -0.876705
H105  H     H_    0.399957 0.826817 0.880133 0.276765
H106  H     H_    0.335355 0.772408 0.853008 0.258477
H107  H     H_    0.337502 0.870313 0.847140 0.247357
H108  H     H_    0.233398 0.843646 0.889072 0.211247
H109  H     H_    0.303348 0.884794 0.917428 0.198065
C187  C     C_3   0.124388 0.236171 0.930446 -0.314749
C188  C     C_3   0.094892 0.235522 0.889016 -0.935495
H110  H     H_    0.083391 0.292362 0.879969 0.257881
H111  H     H_    0.134866 0.211753 0.868343 0.277357
H112  H     H_    0.043489 0.203605 0.887386 0.256728
H113  H     H_    0.116533 0.182268 0.944370 0.211483
H114  H     H_    0.090064 0.274951 0.947085 0.193643
C189  C     C_3   0.560387 0.328442 0.985239 -0.337058
C190  C     C_3   0.491486 0.297694 0.003913 -0.860831
H115  H     H_    0.499615 0.240019 0.012671 0.272646
H116  H     H_    0.477534 0.330752 0.029957 0.245099
H117  H     H_    0.445331 0.300727 0.983062 0.262413
H118  H     H_    0.549864 0.387211 0.980755 0.217505
H119  H     H_    0.567241 0.303442 0.955938 0.224018
C191  C     C_3   0.877546 0.767771 0.933016 -0.310125
C192  C     C_3   0.915035 0.764639 0.893515 -0.936614
H120  H     H_    0.927420 0.707010 0.886139 0.254568
H121  H     H_    0.879606 0.787496 0.870488 0.279803
H122  H     H_    0.967121 0.795817 0.894466 0.251460
H123  H     H_    0.879854 0.823966 0.944839 0.213655
H124  H     H_    0.911183 0.734236 0.952859 0.191331
C193  C     C_3   0.748168 0.874575 0.927751 -0.340023
C194  C     C_3   0.781684 0.899277 0.889254 -0.911194
H125  H     H_    0.841928 0.902843 0.891652 0.267642
H126  H     H_    0.766756 0.861657 0.865184 0.265462
H127  H     H_    0.761471 0.954664 0.882014 0.253841
H128  H     H_    0.694493 0.902151 0.930539 0.201308
H129  H     H_    0.781974 0.893031 0.952712 0.199264
C195  C     C_3   0.679773 0.444416 0.988897 -0.329365
C196  C     C_3   0.636904 0.500895 0.012377 -0.916249
H130  H     H_    0.583308 0.478909 0.021909 0.266485
H131  H     H_    0.668486 0.517349 0.038569 0.251984
H132  H     H_    0.627618 0.550245 0.994307 0.257927
H133  H     H_    0.733924 0.468982 0.982946 0.246615
H134  H     H_    0.654154 0.434716 0.960083 0.202483
C197  C     C_3   0.245644 0.120057 0.933289 -0.323513
C198  C     C_3   0.213349 0.090096 0.895596 -0.907114
H135  H     H_    0.153162 0.095669 0.895480 0.271547
H136  H     H_    0.236918 0.118675 0.870071 0.266680
H137  H     H_    0.225643 0.030868 0.893108 0.242749
H138  H     H_    0.296936 0.089402 0.938392 0.196342
H139  H     H_    0.208956 0.107697 0.958207 0.198161
C199  C     C_3   0.162844 0.718213 0.902429 -0.343301
C200  C     C_3   0.179423 0.695492 0.860619 -0.859900
H140  H     H_    0.215352 0.736010 0.846258 0.267060
H141  H     H_    0.205723 0.640901 0.859902 0.260364
H142  H     H_    0.127811 0.692315 0.843859 0.243570
H143  H     H_    0.119246 0.681200 0.913449 0.208729
H144  H     H_    0.139798 0.774214 0.903327 0.195278
C201  C     C_3   0.938046 0.173527 0.478983 -0.293338
C202  C     C_3   0.007268 0.152599 0.500968 -0.942677
H145  H     H_    0.032778 0.202313 0.513465 0.263968
H146  H     H_    0.995338 0.113665 0.524886 0.275901
H147  H     H_    0.046853 0.127125 0.480620 0.242347
H148  H     H_    0.925359 0.131280 0.456973 0.205933
H149  H     H_    0.950758 0.223698 0.462142 0.230564
C203  C     C_3   0.717359 0.838537 0.401187 -0.328771
C204  C     C_3   0.739127 0.909839 0.381123 -0.875453
H150  H     H_    0.730386 0.956781 0.401122 0.276382
H151  H     H_    0.797437 0.908658 0.372363 0.252955
H152  H     H_    0.705181 0.918352 0.354833 0.241980
H153  H     H_    0.717977 0.793671 0.379671 0.203131
H154  H     H_    0.659588 0.844191 0.410623 0.215215
C205  C     C_3   0.057288 0.823991 0.504864 -0.318171
C206  C     C_3   0.997890 0.831228 0.535853 -0.930150
H155  H     H_    0.990897 0.778611 0.551539 0.249495
H156  H     H_    0.012079 0.874518 0.557191 0.270299
H157  H     H_    0.945180 0.845195 0.521822 0.247879
H158  H     H_    0.057475 0.873324 0.486377 0.212088
H159  H     H_    0.040982 0.778088 0.485556 0.229269
C207  C     C_3   0.284779 0.161867 0.401463 -0.331062
C208  C     C_3   0.263023 0.090584 0.381282 -0.873440
H160  H     H_    0.271116 0.043694 0.401305 0.278200
H161  H     H_    0.204896 0.092047 0.372267 0.252365
H162  H     H_    0.297403 0.081679 0.355147 0.241745
H163  H     H_    0.284742 0.206669 0.379976 0.203356
H164  H     H_    0.342340 0.156027 0.411134 0.215219
C209  C     C_3   0.172066 0.288331 0.400489 -0.341156
C210  C     C_3   0.129615 0.252496 0.367303 -0.878397
H165  H     H_    0.161607 0.207856 0.353877 0.265107
H166  H     H_    0.076794 0.230357 0.378070 0.261207
H167  H     H_    0.117757 0.293599 0.344510 0.241067
H168  H     H_    0.141575 0.338082 0.409204 0.228288
H169  H     H_    0.226281 0.307769 0.390341 0.188808
C211  C     C_3   0.179473 0.942812 0.505541 -0.323331
C212  C     C_3   0.133221 0.992218 0.531472 -0.918477
H170  H     H_    0.075482 0.974206 0.531663 0.276806
H171  H     H_    0.154669 0.992628 0.561689 0.257931
H172  H     H_    0.135287 0.048939 0.520094 0.246299
H173  H     H_    0.233235 0.970214 0.501988 0.221435
H174  H     H_    0.155530 0.938732 0.475957 0.201151
C213  C     C_3   0.830253 0.712177 0.400719 -0.339276
C214  C     C_3   0.873168 0.747723 0.367633 -0.876193
H175  H     H_    0.841808 0.792921 0.354426 0.265021
H176  H     H_    0.926260 0.769047 0.378446 0.262309
H177  H     H_    0.884406 0.706614 0.344659 0.241210
H178  H     H_    0.860537 0.662424 0.409487 0.229348
H179  H     H_    0.776184 0.692707 0.390400 0.187895
C215  C     C_3   0.817743 0.055973 0.489034 -0.310798
C216  C     C_3   0.875130 0.004889 0.506167 -0.914454
H180  H     H_    0.930512 0.019848 0.496012 0.279187
H181  H     H_    0.873285 0.005778 0.538468 0.259734
H182  H     H_    0.864242 0.948150 0.496244 0.233151
H183  H     H_    0.764490 0.027604 0.492198 0.227006
H184  H     H_    0.826631 0.063321 0.457319 0.200572
C217  C     C_3   0.689204 0.915733 0.790656 -0.415360
C218  C     C_3   0.735197 0.982863 0.800850 -0.881481
H185  H     H_    0.745575 0.015932 0.774315 0.265770
H186  H     H_    0.707187 0.017458 0.822766 0.260657
H187  H     H_    0.788742 0.965474 0.812669 0.251595
H188  H     H_    0.677062 0.882230 0.816684 0.191460
H189  H     H_    0.724312 0.879998 0.772695 0.218583
C219  C     C_3   0.904398 0.685833 0.791093 -0.414470
C220  C     C_3   0.969352 0.734942 0.801063 -0.884979
H190  H     H_    0.003766 0.709460 0.823769 0.260740
H191  H     H_    0.003147 0.744884 0.774716 0.265324
H192  H     H_    0.949746 0.788565 0.811854 0.251944
H193  H     H_    0.867297 0.719112 0.773016 0.219297
H194  H     H_    0.871584 0.672765 0.817305 0.193322
C221  C     C_3   0.308991 0.083427 0.791668 -0.412463
C222  C     C_3   0.263508 0.017330 0.804178 -0.893050
H195  H     H_    0.254080 0.980372 0.778992 0.267388
H196  H     H_    0.291114 0.986525 0.827613 0.257533
H197  H     H_    0.209552 0.035699 0.815115 0.252674
H198  H     H_    0.322280 0.119178 0.816753 0.187834
H199  H     H_    0.272760 0.117205 0.773374 0.220178
C223  C     C_3   0.096941 0.317385 0.789966 -0.416696
C224  C     C_3   0.032180 0.267581 0.799384 -0.878428
H200  H     H_    0.995995 0.293009 0.821467 0.264422
H201  H     H_    0.999981 0.256527 0.772621 0.264715
H202  H     H_    0.052088 0.214509 0.810674 0.252830
H203  H     H_    0.134652 0.284791 0.771798 0.219524
H204  H     H_    0.129452 0.330309 0.816259 0.192106
C225  C     C_3   0.195154 0.428982 0.291772 -0.417481
C226  C     C_3   0.234670 0.497569 0.306193 -0.874303
H205  H     H_    0.249614 0.532791 0.281101 0.264262
H206  H     H_    0.200338 0.529600 0.326566 0.261867
H207  H     H_    0.285440 0.481681 0.321609 0.245139
H208  H     H_    0.184431 0.390957 0.316162 0.193179
H209  H     H_    0.234668 0.399603 0.273146 0.221609
C227  C     C_3   0.399303 0.181952 0.292085 -0.417969
C228  C     C_3   0.460352 0.232070 0.306710 -0.879317
H210  H     H_    0.497577 0.203234 0.326899 0.260118
H211  H     H_    0.492667 0.252961 0.281692 0.265077
H212  H     H_    0.436233 0.279319 0.322375 0.244344
H213  H     H_    0.363995 0.216275 0.273559 0.221188
H214  H     H_    0.363301 0.164980 0.316348 0.192567
C229  C     C_3   0.804153 0.569549 0.292612 -0.417417
C230  C     C_3   0.765074 0.501001 0.307358 -0.874105
H215  H     H_    0.749845 0.465469 0.282401 0.264333
H216  H     H_    0.799805 0.469271 0.327577 0.261172
H217  H     H_    0.714496 0.516906 0.323033 0.245088
H218  H     H_    0.815099 0.607980 0.316859 0.192894
H219  H     H_    0.764209 0.598498 0.274152 0.221769
C231  C     C_3   0.600521 0.818063 0.291899 -0.418193
C232  C     C_3   0.539381 0.768268 0.306741 -0.879319
H220  H     H_    0.502408 0.797333 0.327058 0.260337
H221  H     H_    0.506792 0.747356 0.281835 0.264942
H222  H     H_    0.563435 0.721014 0.322326 0.244307
H223  H     H_    0.635486 0.783429 0.273253 0.221250
H224  H     H_    0.636785 0.835091 0.316040 0.192471
C233  C     C_3   0.170902 0.389202 0.208839 -0.942712
H225  H     H_    0.149780 0.372687 0.179963 0.260539
H226  H     H_    0.226440 0.412919 0.205632 0.242971
H227  H     H_    0.174233 0.337384 0.225520 0.232592
C234  C     C_3   0.365705 0.153126 0.208813 -0.945302
H228  H     H_    0.353266 0.130358 0.179667 0.262561
H229  H     H_    0.313563 0.148261 0.225151 0.233077
H230  H     H_    0.380842 0.211684 0.206083 0.241897
C235  C     C_3   0.827407 0.609203 0.209740 -0.943786
H231  H     H_    0.848359 0.626058 0.180953 0.259241
H232  H     H_    0.771985 0.585207 0.206574 0.243434
H233  H     H_    0.823918 0.660897 0.226608 0.232591
C236  C     C_3   0.634654 0.847006 0.208696 -0.941127
H234  H     H_    0.647739 0.870391 0.179797 0.260851
H235  H     H_    0.686517 0.851453 0.225263 0.232280
H236  H     H_    0.619438 0.788539 0.205510 0.243407
C237  C     C_3   0.661151 0.876459 0.708160 -0.943441
H237  H     H_    0.639167 0.862290 0.679130 0.262006
H238  H     H_    0.718365 0.895912 0.705232 0.244173
H239  H     H_    0.660258 0.824166 0.724515 0.231183
C238  C     C_3   0.863152 0.652576 0.709194 -0.944964
H240  H     H_    0.848917 0.627961 0.680707 0.260194
H241  H     H_    0.812154 0.648712 0.726602 0.231826
H242  H     H_    0.877966 0.710957 0.705233 0.242870
C239  C     C_3   0.336554 0.122372 0.709098 -0.942111
H243  H     H_    0.359005 0.137447 0.680309 0.259471
H244  H     H_    0.279384 0.103015 0.705813 0.243711
H245  H     H_    0.337224 0.174213 0.725940 0.231495
C240  C     C_3   0.137143 0.351212 0.708053 -0.944187
H246  H     H_    0.150200 0.375306 0.679297 0.261556
H247  H     H_    0.188594 0.355879 0.724967 0.232408
H248  H     H_    0.122804 0.292611 0.704445 0.242540
C241  C     C_3   0.136725 0.501512 0.147137 -0.939785
H249  H     H_    0.183275 0.509794 0.167234 0.259677
H250  H     H_    0.147829 0.455137 0.127228 0.236865
H251  H     H_    0.133474 0.552385 0.129695 0.240254
C242  C     C_3   0.483135 0.135600 0.147355 -0.936332
H252  H     H_    0.436582 0.138663 0.126990 0.252039
H253  H     H_    0.483092 0.183090 0.167373 0.260418
H254  H     H_    0.534599 0.139917 0.130372 0.234595
C243  C     C_3   0.862384 0.498781 0.146994 -0.931278
H255  H     H_    0.865472 0.448440 0.128989 0.237061
H256  H     H_    0.815729 0.490032 0.167008 0.259284
H257  H     H_    0.851504 0.545774 0.127551 0.235416
C244  C     C_3   0.517961 0.863943 0.147255 -0.942633
H258  H     H_    0.565938 0.860282 0.127831 0.248914
H259  H     H_    0.516283 0.816686 0.167354 0.259131
H260  H     H_    0.467767 0.859746 0.129301 0.235639
C245  C     C_3   0.636404 0.993118 0.647297 -0.932245
H261  H     H_    0.683035 0.997705 0.667675 0.259068
H262  H     H_    0.644919 0.946712 0.627101 0.236278
H263  H     H_    0.636787 0.044526 0.630162 0.235558
C246  C     C_3   0.978560 0.637108 0.646918 -0.932829
H264  H     H_    0.929687 0.641040 0.628156 0.236660
H265  H     H_    0.980998 0.684283 0.667128 0.257979
H266  H     H_    0.028003 0.641741 0.628326 0.228829
C247  C     C_3   0.362365 0.008592 0.646749 -0.933046
H267  H     H_    0.361887 0.958166 0.628727 0.233694
H268  H     H_    0.315260 0.003271 0.666813 0.258605
H269  H     H_    0.354818 0.056259 0.627356 0.236955
C248  C     C_3   0.019627 0.366060 0.646903 -0.932234
H270  H     H_    0.066787 0.363825 0.626840 0.254293
H271  H     H_    0.019925 0.318667 0.666907 0.257981
H272  H     H_    0.968686 0.360707 0.629609 0.234371

loop_
_geom_bond_atom_site_label_1
_geom_bond_atom_site_label_2
_geom_bond_distance
_ccdc_geom_bond_type
C232  H222  1.110576 S    
C153  H28   1.104844 S    
C185  C186  1.528177 S    
C93   C107  1.405238 A    
C248  H270  1.105463 S    
Zn5   O51   1.932943 S    
C49   C65   1.430965 A    
C180  H90   1.110712 S    
C155  H34   1.101724 S    
C241  H249  1.107800 S    
C236  H236  1.110177 S    
C92   C98   1.390099 A    
C28   C77   1.503888 S    
C203  C204  1.528433 S    
C248  H271  1.107662 S    
C7    C151  1.458217 S    
C30   C46   1.392582 A    
C80   C199  1.542428 S    
C238  H242  1.110075 S    
C113  C217  1.527032 S    
C190  H115  1.108618 S    
C86   H14   1.113522 S    
C186  H107  1.108874 S    
C162  H45   1.109614 S    
C240  H246  1.108395 S    
C200  H142  1.108862 S    
C216  H180  1.106059 S    
C212  H170  1.106714 S    
C86   C211  1.544108 S    
C163  H53   1.102679 S    
C130  C138  1.418127 A    
C202  H147  1.110067 S    
Zn13  O35   1.931975 S    
C39   C82   1.500918 S    
C57   C153  1.527331 S    
O34   C22   1.280510 A    
C229  H219  1.105902 S    
C212  H171  1.110781 S    
O52   C22   1.274804 A    
C177  H88   1.108077 S    
O41   C15   1.278406 A    
C17   C53   1.451802 S    
C6    C150  1.463480 S    
C118  C227  1.531808 S    
Zn4   O2    1.947921 S    
C122  C130  1.420114 A    
C96   H24   1.079869 S    
C221  H198  1.108383 S    
C199  H144  1.110058 S    
C153  C154  1.527850 S    
O47   C17   1.275157 A    
C202  H146  1.109775 S    
C46   C62   1.428190 A    
C27   C78   1.498824 S    
C107  C119  1.421454 A    
C40   C56   1.393113 A    
C9    C45   1.450844 S    
C131  C137  1.419685 A    
C36   C37   1.378084 A    
C143  C149  1.404713 A    
C228  H211  1.110939 S    
C178  H85   1.108961 S    
C225  H208  1.107283 S    
C166  H57   1.109768 S    
Zn16  O36   1.937362 S    
C20   C54   1.450855 S    
C231  H223  1.105941 S    
C111  C137  1.407232 A    
C76   C191  1.550965 S    
C179  C180  1.532141 S    
C244  H260  1.110196 S    
O22   C10   1.277489 A    
C163  H54   1.107507 S    
C217  C218  1.527923 S    
C115  C221  1.529264 S    
C71   C181  1.530930 S    
C174  H75   1.106543 S    
C164  H52   1.109806 S    
C205  C206  1.527543 S    
Zn12  O24   1.932294 S    
C245  H263  1.110730 S    
C194  H126  1.109410 S    
C78   H6    1.113854 S    
C2    C97   1.455151 S    
Zn16  O4    1.947586 S    
C246  H266  1.110825 S    
C230  H215  1.110948 S    
Zn1   O13   1.939570 S    
C226  H205  1.110948 S    
C108  C120  1.422797 A    
Zn3   O15   1.938200 S    
C25   C32   1.371442 A    
Zn4   O16   1.938447 S    
Zn3   O41   1.933001 S    
C73   H1    1.114473 S    
C116  C223  1.526924 S    
Zn7   O3    1.947285 S    
C235  H232  1.110102 S    
C248  H272  1.110805 S    
C194  H127  1.109025 S    
C223  C224  1.528250 S    
C146  C246  1.515889 S    
C180  H92   1.110033 S    
O11   C3    1.277587 A    
C227  C228  1.528902 S    
C241  H251  1.109914 S    
C118  C122  1.415839 A    
O49   C23   1.279842 A    
C229  H218  1.107769 S    
C106  C118  1.423263 A    
C76   C77   1.551855 S    
C79   C197  1.550482 S    
C141  C241  1.516005 S    
C231  C232  1.529119 S    
C196  H130  1.109046 S    
C161  H48   1.108680 S    
C190  H117  1.110453 S    
Zn10  O22   1.932239 S    
C125  C133  1.417194 A    
C211  C212  1.526576 S    
C164  H50   1.111338 S    
C33   C49   1.389974 A    
C220  H191  1.111202 S    
C188  H110  1.107161 S    
Zn13  O29   1.936852 S    
Zn14  O34   1.938543 S    
C77   H5    1.113304 S    
Zn6   O4    1.945838 S    
Zn10  O2    1.944865 S    
C83   H11   1.114152 S    
C88   H16   1.113480 S    
C219  H193  1.106110 S    
Zn3   O1    1.947285 S    
Zn15  O33   1.931594 S    
C247  H267  1.110740 S    
C75   C189  1.554052 S    
C171  H73   1.106441 S    
C175  H84   1.101500 S    
Zn12  O28   1.937362 S    
C189  H118  1.104404 S    
C159  H44   1.103347 S    
C179  H93   1.102709 S    
C101  C113  1.423139 A    
C191  C192  1.521796 S    
C207  H164  1.111307 S    
C96   C100  1.387755 A    
Zn8   O46   1.932678 S    
C155  C156  1.528267 S    
C208  H161  1.109557 S    
C133  C139  1.417896 A    
C93   H21   1.080061 S    
C204  H150  1.111346 S    
C11   C47   1.453278 S    
O27   C15   1.276860 A    
C184  H100  1.110768 S    
C60   C61   1.435514 A    
C90   C98   1.389176 A    
C184  H102  1.109982 S    
O8    C2    1.277669 A    
C209  H168  1.110285 S    
C168  H61   1.109080 S    
C243  H255  1.110654 S    
C173  H78   1.102994 S    
C132  C144  1.416386 A    
C174  H77   1.110645 S    
C58   C155  1.526266 S    
C159  H43   1.105368 S    
O16   C6    1.277118 A    
C156  H30   1.108166 S    
O14   C6    1.277461 A    
C160  H42   1.110904 S    
C89   H17   1.079945 S    
Zn15  O9    1.939316 S    
C104  C116  1.423263 A    
C77   C193  1.538290 S    
C197  C198  1.525259 S    
C82   H10   1.114207 S    
C230  H217  1.110540 S    
Zn12  O6    1.938022 S    
C148  C152  1.400187 A    
O40   C10   1.273876 A    
C187  C188  1.523561 S    
C53   C69   1.423345 A    
C24   C50   1.456779 S    
C179  H94   1.108639 S    
O45   C19   1.276928 A    
C66   C171  1.528069 S    
C215  H183  1.108761 S    
O17   C7    1.275382 A    
C114  C219  1.528042 S    
C214  H175  1.106786 S    
Zn5   O17   1.939570 S    
C205  H159  1.110215 S    
O9    C3    1.277789 A    
C211  H174  1.110088 S    
C36   C85   1.501514 S    
C201  H149  1.110068 S    
C50   C66   1.433246 A    
C91   C97   1.388730 A    
C148  C248  1.513168 S    
C144  C244  1.512657 S    
C185  H108  1.105288 S    
C233  H225  1.106898 S    
Zn4   O44   1.937562 S    
C203  H153  1.104305 S    
C183  C184  1.532814 S    
C222  H195  1.111086 S    
C238  H240  1.108207 S    
C172  H71   1.107133 S    
C221  H199  1.105722 S    
C196  H132  1.110552 S    
C170  H66   1.111103 S    
Zn9   O27   1.931975 S    
C80   H8    1.113509 S    
C120  C124  1.415443 A    
C81   H9    1.113801 S    
C163  C164  1.529400 S    
C188  H112  1.107776 S    
C66   C71   1.426829 A    
C218  H185  1.111160 S    
Zn9   O7    1.938267 S    
C192  H122  1.110507 S    
O50   C24   1.271933 A    
C242  H253  1.107705 S    
C135  C139  1.417954 A    
Zn11  O5    1.939316 S    
C165  H59   1.108869 S    
O5    C1    1.279137 A    
C176  H81   1.109692 S    
O31   C19   1.275295 A    
C187  H113  1.106014 S    
C247  H269  1.107782 S    
C29   C76   1.495724 S    
C237  H237  1.106515 S    
C94   C108  1.404920 A    
C35   C86   1.500011 S    
C221  C222  1.528535 S    
C48   C64   1.423387 A    
C38   C54   1.390104 A    
C234  H228  1.107994 S    
C34   C39   1.375118 A    
C8    C152  1.457437 S    
C147  C247  1.516639 S    
C142  C242  1.512916 S    
C186  H106  1.109094 S    
C72   C183  1.531814 S    
C42   C58   1.430604 A    
C21   C49   1.453061 S    
C204  H152  1.108889 S    
C145  C245  1.517138 S    
C82   C87   1.540850 S    
C18   C56   1.454672 S    
C23   C51   1.452084 S    
C76   H4    1.113130 S    
C229  C230  1.529165 S    
C117  C225  1.531997 S    
C206  H155  1.111311 S    
C243  H257  1.108650 S    
Zn9   O1    1.948224 S    
C232  H221  1.110942 S    
C154  H25   1.110729 S    
C89   C103  1.406880 A    
C65   C169  1.530499 S    
C74   C79   1.550449 S    
C102  C110  1.423002 A    
C10   C48   1.445781 S    
C231  H224  1.107190 S    
C135  C147  1.417093 A    
C198  H135  1.107407 S    
C218  H187  1.109681 S    
C156  H32   1.110225 S    
C160  H40   1.111053 S    
C126  C238  1.519006 S    
C236  H235  1.110734 S    
C195  H133  1.106604 S    
C88   C215  1.546354 S    
Zn1   O1    1.944563 S    
C142  C150  1.402374 A    
Zn2   O14   1.939497 S    
Zn1   O39   1.939252 S    
C167  H63   1.109009 S    
C79   H7    1.112781 S    
C158  H35   1.104910 S    
C19   C55   1.449470 S    
Zn3   O37   1.938070 S    
C183  H103  1.102549 S    
C214  H177  1.109420 S    
C91   H19   1.079788 S    
C238  H241  1.110787 S    
C190  H116  1.109741 S    
C59   C157  1.530565 S    
C223  H203  1.106075 S    
C200  H141  1.110815 S    
C114  C126  1.413831 A    
C107  C111  1.424047 A    
C143  C243  1.517007 S    
C125  C237  1.518881 S    
C121  C129  1.421008 A    
C197  H139  1.111087 S    
C84   C85   1.538498 S    
C242  H252  1.105386 S    
C233  H227  1.110818 S    
C117  C121  1.415210 A    
C165  H58   1.107763 S    
C147  C151  1.403860 A    
C94   H22   1.079943 S    
C210  H165  1.106853 S    
C210  H166  1.110928 S    
O6    C2    1.278136 A    
C222  H197  1.109887 S    
C103  C109  1.423772 A    
O18   C8    1.274880 A    
C154  H27   1.110088 S    
C185  H109  1.112376 S    
C75   C78   1.546994 S    
C201  C202  1.526852 S    
C189  H119  1.112661 S    
Zn10  O26   1.938543 S    
C162  H47   1.107905 S    
C224  H201  1.111205 S    
C61   C161  1.522675 S    
C32   C48   1.388004 A    
C39   C55   1.390027 A    
C207  C208  1.528556 S    
C217  H189  1.105847 S    
C192  H120  1.108511 S    
Zn14  O30   1.932239 S    
Zn15  O3    1.946139 S    
C127  C239  1.518714 S    
C178  H86   1.108544 S    
C108  C112  1.424301 A    
C74   H2    1.113681 S    
C237  H239  1.110729 S    
C32   C73   1.497908 S    
Zn1   O43   1.932943 S    
C95   H23   1.080090 S    
C167  C168  1.529131 S    
C244  H259  1.108049 S    
C189  C190  1.521768 S    
C213  H179  1.109767 S    
C234  H230  1.110214 S    
C40   C81   1.500834 S    
Zn5   O47   1.939252 S    
C25   C80   1.498397 S    
C174  H76   1.111096 S    
Zn8   O20   1.938447 S    
Zn6   O48   1.932302 S    
C191  H123  1.105979 S    
C245  H262  1.107411 S    
Zn7   O45   1.938070 S    
O35   C23   1.277761 A    
C193  H129  1.110160 S    
C129  C137  1.419080 A    
C246  H265  1.108147 S    
C178  H87   1.109030 S    
C230  H216  1.108764 S    
C227  H214  1.106751 S    
C216  H182  1.110047 S    
C226  H206  1.108847 S    
O32   C20   1.276105 A    
C5    C149  1.462748 S    
C206  H157  1.110377 S    
C33   C40   1.363746 A    
C175  C176  1.529053 S    
C153  H29   1.106487 S    
C89   C97   1.389079 A    
C213  C214  1.526787 S    
C235  H231  1.104843 S    
Zn16  O10   1.938022 S    
C240  H247  1.110792 S    
O12   C4    1.276503 A    
C85   C209  1.543626 S    
C158  H37   1.108457 S    
O48   C18   1.281633 A    
C219  C220  1.527629 S    
C180  H91   1.108012 S    
C155  H33   1.105107 S    
O38   C12   1.280540 A    
C241  H250  1.108629 S    
C84   C207  1.548956 S    
C197  H138  1.110016 S    
C226  H207  1.110541 S    
Zn13  O3    1.948224 S    
Zn14  O4    1.944865 S    
C54   C70   1.426263 A    
C157  H38   1.100801 S    
C101  C109  1.423886 A    
C168  H60   1.109363 S    
C215  C216  1.528077 S    
C68   C69   1.426975 A    
C33   C88   1.501634 S    
C93   C99   1.386162 A    
O21   C9    1.277505 A    
C26   C42   1.389267 A    
C51   C67   1.429297 A    
C176  H80   1.111338 S    
C103  C115  1.423084 A    
C52   C68   1.428349 A    
C14   C44   1.457078 S    
C145  C151  1.401985 A    
C239  H243  1.106079 S    
Zn7   O49   1.933001 S    
C28   C44   1.393595 A    
C105  C111  1.424471 A    
C165  C166  1.532035 S    
C182  H97   1.108697 S    
C242  H254  1.110785 S    
O25   C13   1.277952 A    
C158  H36   1.111010 S    
C123  C131  1.422049 A    
C177  H89   1.107381 S    
C219  H194  1.108369 S    
C124  C236  1.519184 S    
C116  C128  1.412231 A    
O10   C4    1.276713 A    
C171  H74   1.103600 S    
C92   H20   1.077321 S    
C13   C41   1.447764 S    
C199  H143  1.111994 S    
C202  H145  1.107769 S    
C224  H202  1.109366 S    
C15   C43   1.447343 S    
O36   C24   1.284882 A    
C164  H51   1.106079 S    
C84   H12   1.115264 S    
C127  C135  1.419103 A    
C193  C194  1.526470 S    
C37   C84   1.499703 S    
Zn11  O1    1.946139 S    
C38   C83   1.499941 S    
C225  H209  1.105978 S    
C3    C100  1.452166 S    
C56   C72   1.428892 A    
C169  C170  1.528542 S    
O43   C13   1.274609 A    
C4    C99   1.450300 S    
C195  C196  1.528904 S    
O28   C16   1.280687 A    
Zn2   O42   1.938799 S    
C134  C140  1.417824 A    
Zn5   O3    1.944563 S    
C220  H192  1.109316 S    
C128  C136  1.416378 A    
C205  H158  1.104830 S    
C95   C105  1.405587 A    
C141  C149  1.403766 A    
C146  C152  1.403048 A    
C188  H111  1.109100 S    
C194  H125  1.108264 S    
C96   C106  1.405374 A    
C160  H41   1.108716 S    
C81   C201  1.549590 S    
C169  H68   1.101456 S    
C181  H99   1.108899 S    
C31   C47   1.387697 A    
Zn7   O19   1.938200 S    
C131  C143  1.418831 A    
C119  C229  1.532486 S    
C62   C163  1.526737 S    
C121  C233  1.518754 S    
C44   C60   1.428372 A    
O15   C5    1.276402 A    
C73   C185  1.546643 S    
C215  H184  1.110266 S    
C109  C139  1.407235 A    
C65   C72   1.439339 A    
C214  H176  1.110830 S    
C128  C240  1.519490 S    
C235  H233  1.110849 S    
C85   H13   1.112576 S    
C169  H69   1.108576 S    
C199  C200  1.525850 S    
C102  C114  1.423336 A    
Zn10  O8    1.939388 S    
Zn2   O40   1.932302 S    
C201  H148  1.105266 S    
O23   C11   1.280509 A    
C36   C52   1.393912 A    
C67   C70   1.438033 A    
C181  C182  1.530190 S    
C78   C195  1.544355 S    
C55   C71   1.421213 A    
C30   C75   1.504057 S    
Zn2   O2    1.945838 S    
C177  C178  1.530614 S    
O7    C1    1.279408 A    
C31   C74   1.499933 S    
C203  H154  1.111440 S    
O26   C14   1.274962 A    
Zn15  O31   1.938091 S    
Zn6   O18   1.939497 S    
Zn16  O32   1.932294 S    
C222  H196  1.107437 S    
C209  C210  1.527154 S    
C27   C30   1.366066 A    
C232  H220  1.108731 S    
C47   C63   1.427266 A    
C172  H70   1.106763 S    
C196  H131  1.111266 S    
C170  H67   1.110747 S    
O19   C7    1.275593 A    
C228  H210  1.108767 S    
Zn8   O4    1.947921 S    
C45   C61   1.424344 A    
C58   C63   1.434832 A    
O37   C11   1.273550 A    
C81   C88   1.549888 S    
C166  H56   1.107742 S    
C239  H245  1.110757 S    
C90   H18   1.076873 S    
O39   C9    1.274634 A    
C218  H186  1.109629 S    
C192  H121  1.107401 S    
O13   C5    1.276759 A    
O51   C21   1.278586 A    
C87   C213  1.544257 S    
C225  C226  1.529141 S    
C83   C86   1.548644 S    
C187  H114  1.107648 S    
C247  H268  1.107990 S    
C195  H134  1.110157 S    
C182  H95   1.109681 S    
O20   C8    1.276603 A    
C73   C80   1.544591 S    
C90   C104  1.405506 A    
O44   C14   1.280960 A    
C134  C146  1.416062 A    
C198  H137  1.111007 S    
C200  H140  1.106239 S    
O24   C12   1.279093 A    
C68   C175  1.528773 S    
C162  H46   1.109032 S    
C207  H163  1.104323 S    
C122  C234  1.519481 S    
C106  C112  1.424226 A    
C1    C98   1.458159 S    
C208  H162  1.108542 S    
C133  C145  1.414962 A    
C212  H172  1.110386 S    
C104  C110  1.423343 A    
C204  H151  1.109543 S    
C181  H98   1.108226 S    
C186  H105  1.111031 S    
C91   C101  1.406591 A    
C74   C187  1.544991 S    
C206  H156  1.109286 S    
C209  H169  1.109731 S    
C168  H62   1.110111 S    
C95   C99   1.386620 A    
C243  H256  1.107752 S    
C154  H26   1.109598 S    
C82   C203  1.549250 S    
C136  C148  1.412732 A    
C129  C141  1.417097 A    
C220  H190  1.108114 S    
C198  H136  1.108415 S    
C156  H31   1.110701 S    
C227  H213  1.105879 S    
C105  C117  1.421914 A    
C236  H234  1.107817 S    
C119  C123  1.415317 A    
C16   C42   1.453123 S    
C208  H160  1.111244 S    
O29   C17   1.278176 A    
C167  H64   1.109700 S    
C184  H101  1.107956 S    
C157  H39   1.108913 S    
O42   C16   1.274238 A    
C175  H83   1.104927 S    
C183  H104  1.108103 S    
C224  H200  1.109813 S    
C28   C29   1.360160 A    
Zn9   O21   1.936852 S    
C161  C162  1.529086 S    
C37   C53   1.390827 A    
C223  H204  1.107612 S    
C211  H173  1.110284 S    
C239  H244  1.110142 S    
Zn11  O23   1.938091 S    
C69   C177  1.529154 S    
C41   C57   1.424941 A    
C12   C46   1.454791 S    
Zn8   O52   1.937562 S    
C233  H226  1.110099 S    
C43   C59   1.426101 A    
C22   C52   1.453781 S    
C112  C138  1.405640 A    
O46   C20   1.281074 A    
C29   C45   1.383592 A    
C157  C158  1.527425 S    
C136  C140  1.416913 A    
C83   C205  1.549889 S    
C171  C172  1.532299 S    
C110  C140  1.406283 A    
C172  H72   1.110480 S    
C67   C173  1.528662 S    
C26   C79   1.503328 S    
C70   C179  1.530642 S    
C170  H65   1.105749 S    
C228  H212  1.110577 S    
C60   C159  1.522148 S    
Zn4   O38   1.932678 S    
C144  C150  1.402844 A    
C35   C51   1.390120 A    
O33   C21   1.276838 A    
C240  H248  1.110158 S    
C34   C50   1.393536 A    
C217  H188  1.107258 S    
C92   C102  1.406375 A    
C126  C134  1.417528 A    
Zn12  O2    1.947586 S    
C123  C235  1.517814 S    
C176  H82   1.109195 S    
C166  H55   1.108319 S    
C210  H167  1.109029 S    
C59   C62   1.434519 A    
C173  C174  1.527679 S    
C237  H238  1.110140 S    
C27   C43   1.389994 A    
C173  H79   1.108367 S    
C63   C165  1.527655 S    
C57   C64   1.430131 A    
C244  H258  1.105102 S    
C213  H178  1.109998 S    
C26   C31   1.362295 A    
C234  H229  1.110720 S    
C64   C167  1.526357 S    
C161  H49   1.108525 S    
C35   C38   1.366343 A    
C115  C127  1.415106 A    
C75   H3    1.114075 S    
C191  H124  1.107247 S    
C245  H261  1.108041 S    
C130  C142  1.416170 A    
C132  C138  1.418118 A    
C113  C125  1.413340 A    
C159  C160  1.528154 S    
C193  H128  1.110500 S    
C87   H15   1.113867 S    
Zn6   O50   1.938799 S    
C124  C132  1.420317 A    
C246  H264  1.106406 S    
C182  H96   1.110986 S    
Zn11  O25   1.931594 S    
C25   C41   1.389178 A    
C216  H181  1.110734 S    
C120  C231  1.531983 S    
Zn13  O11   1.938267 S    
Zn14  O12   1.939388 S    
C34   C87   1.499656 S    
C94   C100  1.387217 A    
O30   C18   1.274628 A    
