data_mof_unit_42585.cif
_audit_creation_date              2012-12-11T15:34:11-0500
_audit_creation_method            fapswitch 2.2
_symmetry_space_group_name_H-M    P1
_symmetry_Int_Tables_number       1
_space_group_crystal_system       triclinic
_cell_length_a                    15.058507
_cell_length_b                    15.059213
_cell_length_c                    34.946591
_cell_angle_alpha                 90.596283
_cell_angle_beta                  90.135557
_cell_angle_gamma                 60.05471
_cell_volume                      6866.46113708

loop_
_atom_site_label
_atom_site_type_symbol
_atom_type_description
_atom_site_fract_x
_atom_site_fract_y
_atom_site_fract_z
_atom_type_partial_charge
C1    C     C_R   0.302496 0.608459 0.555699 0.562143
C2    C     C_R   0.643801 0.637983 0.673638 0.039929
C3    C     C_R   0.270821 0.636491 0.266054 -0.112957
C4    C     C_R   0.203764 0.619637 0.288563 0.028359
C5    C     C_R   0.132706 0.598344 0.271048 -0.103772
C6    C     C_R   0.124373 0.600355 0.231322 -0.103746
C7    C     C_R   0.187925 0.622498 0.208714 0.030938
C8    C     C_R   0.220048 0.545902 0.353121 -0.124739
C9    C     C_R   0.239998 0.546467 0.391969 -0.135298
C10   C     C_R   0.222294 0.715570 0.386192 0.090263
C11   C     C_R   0.203674 0.713285 0.347201 -0.094545
C12   C     C_R   0.207201 0.626970 0.330304 0.000063
C13   C     C_R   0.559223 0.712225 0.653110 -0.145976
C14   C     C_R   0.247661 0.628089 0.408629 0.026698
C15   C     C_R   0.735724 0.025864 0.943431 0.540171
C16   C     C_R   0.745335 0.722780 0.945233 0.546665
C17   C     C_R   0.039525 0.733207 0.948642 0.559208
C18   C     C_R   0.723169 0.038530 0.052910 0.543242
C19   C     C_R   0.733541 0.734497 0.054747 0.545820
C20   C     C_R   0.028143 0.744611 0.057895 0.558568
C21   C     C_R   0.551293 0.700852 0.613791 -0.141837
C22   C     C_R   0.646509 0.662536 0.792953 0.342097
C23   C     C_R   0.643519 0.646574 0.715670 0.361793
C24   C     C_R   0.739407 0.589600 0.854095 -0.115931
C25   C     C_R   0.764076 0.604152 0.891280 -0.130459
C26   C     C_R   0.623708 0.779574 0.890526 -0.120255
C27   C     C_R   0.599882 0.765371 0.853287 -0.115292
C28   C     C_R   0.659707 0.671435 0.834281 0.035632
C29   C     C_R   0.610234 0.587405 0.555697 0.548628
C30   C     C_R   0.708612 0.700405 0.909301 0.022906
C31   C     C_R   0.721739 0.075085 0.905964 0.019560
C32   C     C_R   0.630988 0.105387 0.885364 -0.121285
C33   C     C_R   0.625913 0.128498 0.846703 -0.117232
C34   C     C_R   0.711006 0.122677 0.828059 0.028573
C35   C     C_R   0.798648 0.101090 0.849216 -0.115044
C36   C     C_R   0.804140 0.077156 0.887962 -0.120496
C37   C     C_R   0.739595 0.195850 0.768604 -0.105643
C38   C     C_R   0.733308 0.206904 0.728922 -0.103465
C39   C     C_R   0.698968 0.152251 0.706264 0.024558
C40   C     C_R   0.590390 0.300531 0.553566 0.546157
C41   C     C_R   0.674376 0.083939 0.723880 -0.106073
C42   C     C_R   0.679695 0.073745 0.763479 -0.107596
C43   C     C_R   0.710511 0.130978 0.786151 0.022454
C44   C     C_R   0.590496 0.184132 0.648269 -0.111517
C45   C     C_R   0.564661 0.218638 0.610864 -0.112542
C46   C     C_R   0.721241 0.225978 0.605291 -0.114933
C47   C     C_R   0.747203 0.191161 0.642696 -0.108812
C48   C     C_R   0.680383 0.173222 0.664942 0.029153
C49   C     C_R   0.627941 0.243478 0.589513 0.020206
C50   C     C_R   0.095269 0.693808 0.912008 0.027637
C51   C     C_R   0.299949 0.610464 0.445952 0.559709
C52   C     C_R   0.150169 0.736491 0.894670 0.088089
C53   C     C_R   0.176242 0.717210 0.855921 -0.096926
C54   C     C_R   0.150690 0.654269 0.834305 0.004815
C55   C     C_R   0.106519 0.603350 0.852448 -0.124603
C56   C     C_R   0.079047 0.622913 0.890909 -0.146850
C57   C     C_R   0.206977 0.554967 0.772750 -0.099842
C58   C     C_R   0.215673 0.551938 0.732924 -0.078212
C59   C     C_R   0.176614 0.643314 0.712287 0.049778
C60   C     C_R   0.129480 0.737572 0.731900 -0.100082
C61   C     C_R   0.122028 0.740581 0.771637 -0.105785
C62   C     C_R   0.607810 0.589765 0.445262 0.543433
C63   C     C_R   0.161339 0.649349 0.792367 0.029892
C64   C     C_R   0.255189 0.683336 0.658873 -0.153080
C65   C     C_R   0.283659 0.676618 0.620926 -0.147097
C66   C     C_R   0.191678 0.586379 0.605126 0.094154
C67   C     C_R   0.161786 0.594242 0.643981 0.115936
C68   C     C_R   0.196591 0.640527 0.670957 0.004708
C69   C     C_R   0.255136 0.626039 0.593890 0.010085
C70   C     C_R   0.692029 0.718656 0.090606 0.020484
C71   C     C_R   0.606139 0.800670 0.108363 -0.117603
C72   C     C_R   0.579534 0.791620 0.145782 -0.113289
C73   C     C_R   0.588305 0.302046 0.443990 0.560754
C74   C     C_R   0.638142 0.700382 0.166005 0.027439
C75   C     C_R   0.719408 0.616173 0.147225 -0.113667
C76   C     C_R   0.745990 0.625170 0.109898 -0.118570
C77   C     C_R   0.634144 0.605142 0.223622 -0.112846
C78   C     C_R   0.633708 0.595430 0.263218 -0.114591
C79   C     C_R   0.620590 0.676117 0.287434 0.022315
C80   C     C_R   0.603565 0.768309 0.271461 -0.102335
C81   C     C_R   0.604818 0.777808 0.231799 -0.104304
C82   C     C_R   0.622173 0.695511 0.207517 0.026040
C83   C     C_R   0.549620 0.736173 0.353204 -0.098612
C84   C     C_R   0.628677 0.615666 0.594199 0.000816
C85   C     C_R   0.548014 0.716233 0.392055 -0.099639
C86   C     C_R   0.704646 0.553246 0.383999 -0.126071
C87   C     C_R   0.705556 0.572747 0.345172 -0.119886
C88   C     C_R   0.626194 0.662636 0.329250 0.024490
C89   C     C_R   0.623481 0.622779 0.407503 0.019167
C90   C     C_R   0.700314 0.099058 0.088524 -0.004675
C91   C     C_R   0.777296 0.111109 0.106469 -0.095641
C92   C     C_R   0.765375 0.145789 0.144283 0.094543
C93   C     C_R   0.675241 0.169233 0.164377 0.028188
C94   C     C_R   0.594449 0.167086 0.145285 -0.142134
C95   C     C_R   0.717208 0.546351 0.614097 -0.090694
C96   C     C_R   0.606800 0.132216 0.107579 -0.132732
C97   C     C_R   0.592321 0.271949 0.223141 -0.107747
C98   C     C_R   0.584065 0.280177 0.262887 -0.102301
C99   C     C_R   0.651607 0.197573 0.285645 0.049014
C100  C     C_R   0.728076 0.107157 0.268612 -0.078313
C101  C     C_R   0.736451 0.098999 0.228924 -0.079156
C102  C     C_R   0.669290 0.181672 0.206062 0.046635
C103  C     C_R   0.680686 0.271450 0.343438 -0.152019
C104  C     C_R   0.668194 0.293979 0.382151 -0.152468
C105  C     C_R   0.590840 0.186576 0.390147 0.109641
C106  C     C_R   0.725043 0.555831 0.653480 0.102140
C107  C     C_R   0.603727 0.163691 0.350510 0.120072
C108  C     C_R   0.646228 0.209200 0.327282 0.007485
C109  C     C_R   0.619857 0.255574 0.405626 0.008328
C110  C     C_R   0.087843 0.705507 0.093526 0.023877
C111  C     C_R   0.098779 0.614431 0.108878 -0.146708
C112  C     C_R   0.137585 0.583409 0.145470 -0.131308
C113  C     C_R   0.166631 0.642541 0.167581 0.004111
C114  C     C_R   0.164166 0.728534 0.151396 -0.089222
C115  C     C_R   0.125947 0.760337 0.114632 0.095382
C116  C     C_R   0.263388 0.637323 0.226372 -0.113924
Cr1   Cr    Cr6+3 0.421670 0.426920 0.499620 1.081429
Cr2   Cr    Cr6+3 0.427030 0.651190 0.500980 1.061493
Cr3   Cr    Cr6+3 0.651280 0.421870 0.499380 1.039157
Cr4   Cr    Cr6+3 0.910810 0.908010 0.001130 1.078720
Cr5   Cr    Cr6+3 0.682800 0.909890 0.998370 1.027164
Cr6   Cr    Cr6+3 0.908370 0.682300 0.002180 1.021222
H1    H     H_    0.778531 0.480639 0.599462 0.164399
H2    H     H_    0.875073 0.054184 0.903109 0.147431
H3    H     H_    0.817845 0.181583 0.654651 0.126458
H4    H     H_    0.751341 0.261268 0.716168 0.137546
H5    H     H_    0.763632 0.240517 0.785681 0.125351
H6    H     H_    0.556864 0.146995 0.830931 0.112992
H7    H     H_    0.649499 0.039555 0.707074 0.122523
H8    H     H_    0.659156 0.021461 0.776499 0.123646
H9    H     H_    0.536953 0.171860 0.664831 0.116003
H10   H     H_    0.492233 0.231460 0.599529 0.151072
H11   H     H_    0.864980 0.096553 0.835273 0.116691
H12   H     H_    0.482082 0.755546 0.599226 0.137436
H13   H     H_    0.771928 0.243907 0.589444 0.141015
H14   H     H_    0.038164 0.587899 0.903257 0.140784
H15   H     H_    0.254840 0.478451 0.718255 0.132648
H16   H     H_    0.237818 0.483829 0.788307 0.112771
H17   H     H_    0.100064 0.808698 0.716408 0.119681
H18   H     H_    0.085010 0.814250 0.786231 0.115207
H19   H     H_    0.282148 0.719263 0.679262 0.127154
H20   H     H_    0.829481 0.541633 0.905151 0.133147
H21   H     H_    0.332822 0.707015 0.613106 0.139733
H22   H     H_    0.562776 0.873623 0.094170 0.135736
H23   H     H_    0.812339 0.560480 0.096958 0.138707
H24   H     H_    0.766466 0.515913 0.327257 0.116570
H25   H     H_    0.644529 0.524431 0.274997 0.108475
H26   H     H_    0.645871 0.541209 0.205600 0.117278
H27   H     H_    0.515456 0.857146 0.159390 0.118069
H28   H     H_    0.593254 0.831417 0.289674 0.149022
H29   H     H_    0.596843 0.847859 0.220243 0.119638
H30   H     H_    0.487893 0.806240 0.341479 0.138717
H31   H     H_    0.484521 0.771348 0.409459 0.162274
H32   H     H_    0.766616 0.545114 0.162140 0.121663
H33   H     H_    0.764032 0.480675 0.394982 0.136430
H34   H     H_    0.849219 0.088037 0.091992 0.172933
H35   H     H_    0.525287 0.350741 0.275969 0.117286
H36   H     H_    0.539199 0.335637 0.205731 0.113924
H37   H     H_    0.496316 0.776366 0.667832 0.135625
H38   H     H_    0.781108 0.043476 0.286045 0.136019
H39   H     H_    0.714081 0.305854 0.325664 0.126776
H40   H     H_    0.690870 0.347154 0.393232 0.143575
H41   H     H_    0.189429 0.777986 0.329660 0.141213
H42   H     H_    0.786678 0.516162 0.840121 0.139232
H43   H     H_    0.327737 0.650764 0.279279 0.115716
H44   H     H_    0.314450 0.652683 0.209545 0.112149
H45   H     H_    0.140949 0.515390 0.157082 0.118315
H46   H     H_    0.080751 0.584847 0.288137 0.117659
H47   H     H_    0.064607 0.590019 0.218466 0.112096
H48   H     H_    0.221307 0.479296 0.340469 0.131663
H49   H     H_    0.256674 0.479185 0.408311 0.155823
H50   H     H_    0.186679 0.774900 0.168159 0.139918
H51   H     H_    0.578889 0.854532 0.903744 0.137704
H52   H     H_    0.537228 0.829309 0.838837 0.135195
H53   H     H_    0.565892 0.105370 0.898469 0.134139
N1    N     N_R   0.688780 0.569281 0.775577 -0.223670
N2    N     N_R   0.686370 0.561618 0.737699 -0.188239
N3    N     N_R   0.598497 0.739948 0.733096 -0.231839
N4    N     N_R   0.600307 0.747740 0.771014 -0.234273
O1    O     O_R   0.502070 0.323090 0.541280 -0.499107
O2    O     O_R   0.520720 0.641670 0.461580 -0.493275
O3    O     O_R   0.674120 0.502090 0.457500 -0.515655
O4    O     O_R   0.640110 0.338380 0.459630 -0.505632
O5    O     O_3   0.499990 0.499990 0.499990 -0.263423
O6    O     O_R   0.017640 0.822070 0.960410 -0.470711
O7    O     O_R   0.822000 0.989470 0.960340 -0.498508
O8    O     O_R   0.666920 0.007430 0.955290 -0.519804
O9    O     O_R   0.694410 0.812480 0.959650 -0.500634
O10   O     O_R   0.831550 0.656950 0.958960 -0.519029
O11   O     O_R   0.998590 0.685540 0.963930 -0.511776
O12   O     O_R   0.338340 0.520690 0.539540 -0.472334
O13   O     O_R   0.008220 0.831200 0.045060 -0.466171
O14   O     O_R   0.813270 0.997930 0.038810 -0.495678
O15   O     O_R   0.657500 0.016560 0.039940 -0.517731
O16   O     O_R   0.685680 0.820940 0.038120 -0.499118
O17   O     O_R   0.822130 0.666070 0.043610 -0.517127
O18   O     O_R   0.989860 0.694000 0.042400 -0.511883
O19   O     O_3   0.833990 0.833400 0.000560 -0.250348
O20   O     O_R   0.324760 0.674070 0.543580 -0.513339
O21   O     O_R   0.522400 0.640310 0.540110 -0.501370
O22   O     O_R   0.675940 0.500630 0.542210 -0.512092
O23   O     O_R   0.641790 0.337020 0.538150 -0.503807
O24   O     O_R   0.500260 0.324550 0.456580 -0.479402
O25   O     O_R   0.336660 0.522040 0.461020 -0.503827
O26   O     O_R   0.322940 0.675540 0.458880 -0.471724
I1    I     I_    0.196823 0.831043 0.923823 -0.349685
I2    I     I_    0.060516 0.541972 0.662007 -0.273556
H54   H     H_    0.213994 0.753831 0.842298 0.135241
H55   H     H_    0.086760 0.553936 0.836264 0.127221
I3    I     I_    0.137578 0.519925 0.563356 -0.261425
I4    I     I_    0.862313 0.440282 0.679011 -0.306018
H56   H     H_    0.545719 0.124768 0.094325 0.140681
I5    I     I_    0.554046 0.066464 0.324798 -0.376829
I6    I     I_    0.887579 0.157021 0.169770 -0.382039
H57   H     H_    0.794789 0.028028 0.215945 0.135518
H58   H     H_    0.524526 0.185419 0.160431 0.123660
I7    I     I_    0.531373 0.115044 0.426517 -0.260385
H59   H     H_    0.072684 0.569121 0.093362 0.139433
I8    I     I_    0.127001 0.894060 0.095928 -0.307085
I9    I     I_    0.213477 0.853627 0.406506 -0.336182

loop_
_geom_bond_atom_site_label_1
_geom_bond_atom_site_label_2
_ccdc_geom_bond_type
C41   H7    S    
C55   C56   A    
C19   O16   A    
C101  C102  A    
C96   H56   S    
C87   H24   S    
C18   O15   A    
C41   C42   A    
C21   H12   S    
C25   H20   S    
Cr3   O22   S    
C9    C14   A    
Cr2   O21   S    
Cr4   O6    S    
C35   H11   S    
C97   C98   A    
C90   C91   A    
Cr1   O5    S    
C10   I9    S    
C39   C41   A    
C24   H42   S    
C77   C78   A    
C52   C53   A    
C44   H9    S    
C80   H28   S    
C99   C108  S    
C105  C107  A    
C46   C49   A    
C26   C27   A    
C93   C94   A    
C52   I1    S    
C64   C68   A    
C27   C28   A    
C36   H2    S    
C83   H30   S    
C3    C116  A    
Cr4   O13   S    
C104  H40   S    
C5    C6    A    
C73   O4    A    
C66   C69   A    
C55   H55   S    
C64   H19   S    
C16   C30   S    
C40   C49   S    
C98   C99   A    
C62   C89   S    
C53   H54   S    
C34   C35   A    
C5    H46   S    
C61   C63   A    
C2    C13   A    
C110  C111  A    
C79   C88   S    
C23   N3    A    
Cr1   O12   S    
C38   H4    S    
C46   H13   S    
C40   O1    A    
C35   C36   A    
C17   O6    A    
C8    C9    A    
C50   C52   A    
C107  C108  A    
C21   C84   A    
C92   I6    S    
C103  C108  A    
C111  H59   S    
C66   I3    S    
Cr1   O25   S    
C31   C36   A    
C97   C102  A    
Cr1   O1    S    
C94   C96   A    
C1    C69   S    
C66   C67   A    
C59   C60   A    
C22   C28   S    
C18   O14   A    
C116  H44   S    
C1    O20   A    
Cr3   O23   S    
C74   C82   S    
Cr2   O20   S    
C27   H52   S    
C112  C113  A    
C56   H14   S    
C8    H48   S    
Cr6   O11   S    
C47   H3    S    
C20   O18   A    
C32   H53   S    
C103  H39   S    
C29   O22   A    
C74   C75   A    
C67   C68   A    
C18   C90   S    
C47   C48   A    
N3    N4    A    
Cr2   O26   S    
C24   C25   A    
C29   C84   S    
C72   C74   A    
C16   O9    A    
C114  C115  A    
C91   C92   A    
C85   C89   A    
C78   C79   A    
C22   N4    A    
Cr3   O4    S    
C26   H51   S    
C58   C59   A    
C53   C54   A    
C112  H45   S    
C15   O8    A    
C15   C31   S    
C2    C106  A    
C33   H6    S    
C81   C82   A    
C32   C33   A    
C60   C61   A    
Cr3   O3    S    
C7    C116  A    
C37   C43   A    
C17   C50   S    
C114  H50   S    
C75   C76   A    
C37   C38   A    
C95   C106  A    
C59   C68   S    
C62   O3    A    
C73   O24   A    
C100  H38   S    
Cr4   O19   S    
C14   C51   S    
C107  I5    S    
C98   H35   S    
C45   C49   A    
C8    C12   A    
C29   O21   A    
C11   H41   S    
C33   C34   A    
C13   C21   A    
C42   H8    S    
C86   H33   S    
C85   H31   S    
Cr5   O8    S    
C90   C96   A    
C4    C5    A    
C77   H26   S    
C70   C71   A    
C78   H25   S    
C45   H10   S    
C20   C110  S    
C1    O12   A    
C58   H15   S    
N1    N2    A    
C83   C85   A    
C40   O23   A    
C76   H23   S    
C26   C30   A    
C105  I7    S    
C10   C11   A    
C84   C95   A    
C10   C14   A    
C9    H49   S    
C4    C12   S    
C42   C43   A    
C3    C4    A    
Cr5   O15   S    
C103  C104  A    
C67   I2    S    
C44   C45   A    
C3    H43   S    
Cr6   O10   S    
C113  C114  A    
Cr2   O2    S    
C95   H1    S    
C25   C30   A    
C105  C109  A    
C46   C47   A    
C111  C112  A    
C86   C87   A    
C31   C32   A    
C34   C43   S    
C24   C28   A    
C57   C63   A    
Cr6   O17   S    
C80   C81   A    
C86   C89   A    
Cr4   O7    S    
C93   C102  S    
C20   O13   A    
C54   C55   A    
C22   N1    A    
C11   C12   A    
C51   O26   A    
C61   H18   S    
C73   C109  S    
C6    C7    A    
Cr2   O5    S    
C17   O11   A    
C94   H58   S    
Cr4   O14   S    
C99   C100  A    
C15   O7    A    
C97   H36   S    
C7    C113  S    
C91   H34   S    
C81   H29   S    
C64   C65   A    
Cr5   O9    S    
C70   C76   A    
C51   O25   A    
Cr6   O19   S    
C75   H32   S    
C57   C58   A    
C38   C39   A    
C77   C82   A    
C101  H57   S    
C65   C69   A    
C106  I4    S    
C92   C93   A    
Cr5   O16   S    
C57   H16   S    
C83   C88   A    
Cr3   O5    S    
Cr6   O18   S    
C50   C56   A    
Cr5   O19   S    
C23   N2    A    
C16   O10   A    
C60   H17   S    
C79   C80   A    
C19   O17   A    
C71   C72   A    
C87   C88   A    
C72   H27   S    
C54   C63   S    
C2    C23   S    
C104  C109  A    
C71   H22   S    
C19   C70   S    
C100  C101  A    
C37   H5    S    
Cr1   O24   S    
C110  C115  A    
C13   H37   S    
C65   H21   S    
C44   C48   A    
C39   C48   S    
C115  I8    S    
C6    H47   S    
C62   O2    A    
