data_mof_unit_42435.cif
_audit_creation_date              2013-03-05T15:53:29-0500
_audit_creation_method            fapswitch 2.2
_symmetry_space_group_name_H-M    P1
_symmetry_Int_Tables_number       1
_space_group_crystal_system       triclinic
_cell_length_a                    24.677148
_cell_length_b                    17.322432
_cell_length_c                    15.533512
_cell_angle_alpha                 89.987121
_cell_angle_beta                  129.549066
_cell_angle_gamma                 89.867894
_cell_volume                      5120.00627088

loop_
_atom_site_label
_atom_site_type_symbol
_atom_site_description
_atom_site_fract_x
_atom_site_fract_y
_atom_site_fract_z
_atom_type_partial_charge
C1    C     C_R   0.844468 0.866165 0.225851 -0.080640
C2    C     C_R   0.167384 0.891629 0.801752 -0.065419
C3    C     C_R   0.334075 0.388267 0.200661 -0.074102
C4    C     C_R   0.666188 0.388606 0.799920 -0.079871
H1    H     H_    0.792646 0.856434 0.198978 0.152624
H2    H     H_    0.219957 0.891854 0.828763 0.156315
H3    H     H_    0.281146 0.388277 0.172255 0.155077
H4    H     H_    0.719164 0.388748 0.828502 0.151706
N1    N     N_R   0.888400 0.921830 0.294620 -0.040563
N2    N     N_R   0.111600 0.921830 0.705380 -0.052646
N3    N     N_R   0.388400 0.421830 0.294620 -0.050053
N4    N     N_R   0.611600 0.421830 0.705380 -0.050000
C5    C     C_R   0.102845 0.874320 0.406531 0.041732
C6    C     C_R   0.905569 0.863264 0.592962 0.065597
C7    C     C_R   0.602029 0.374316 0.405603 0.101720
C8    C     C_R   0.398648 0.373580 0.594637 0.096843
N5    N     N_R   0.079940 0.922160 0.443410 -0.072023
N6    N     N_R   0.920060 0.922160 0.556590 -0.060302
N7    N     N_R   0.579940 0.422160 0.443410 -0.068491
N8    N     N_R   0.420060 0.422160 0.556590 -0.073362
C9    C     C_R   0.172363 0.866143 0.592482 -0.021263
C10   C     C_R   0.828770 0.864780 0.407387 -0.067172
C11   C     C_R   0.673110 0.367018 0.591835 -0.063297
C12   C     C_R   0.328200 0.365761 0.408583 -0.010948
H5    H     H_    0.213082 0.851470 0.679093 0.130269
H6    H     H_    0.780878 0.856152 0.323271 0.163041
H7    H     H_    0.714575 0.352814 0.678398 0.135540
H8    H     H_    0.287063 0.351231 0.322177 0.130884
N9    N     N_R   0.125650 0.922400 0.556620 -0.050941
N10   N     N_R   0.874350 0.922400 0.443380 -0.043932
N11   N     N_R   0.625650 0.422400 0.556620 -0.049888
N12   N     N_R   0.374350 0.422400 0.443380 -0.051352
C13   C     C_R   0.078839 0.895662 0.805799 -0.103687
C14   C     C_R   0.936353 0.865186 0.228224 -0.052262
C15   C     C_R   0.575544 0.388495 0.800105 -0.057415
C16   C     C_R   0.424709 0.388049 0.200379 -0.045472
H9    H     H_    0.053839 0.904241 0.842127 0.121263
H10   H     H_    0.970120 0.851386 0.208927 0.150596
H11   H     H_    0.547112 0.388965 0.831416 0.120697
H12   H     H_    0.453221 0.388132 0.169194 0.121670
N13   N     N_R   0.054230 0.922730 0.705400 -0.058141
N14   N     N_R   0.945770 0.922730 0.294600 -0.068197
N15   N     N_R   0.554230 0.422730 0.705400 -0.062919
N16   N     N_R   0.445770 0.422730 0.294600 -0.063447
C17   C     C_R   0.875228 0.826974 0.188890 0.076964
C18   C     C_R   0.148377 0.874833 0.866350 0.111366
C19   C     C_R   0.355172 0.366767 0.139950 0.119698
C20   C     C_R   0.645226 0.367462 0.860910 0.123424
C21   C     C_R   0.157367 0.831944 0.498466 0.037447
C22   C     C_R   0.849667 0.825286 0.500572 -0.007203
C23   C     C_R   0.657559 0.332693 0.497178 0.006340
C24   C     C_R   0.343924 0.331278 0.503371 0.012347
C25   C     C_R   0.808581 0.086365 0.407146 0.218931
C26   C     C_R   0.191390 0.086543 0.592976 0.232642
C27   C     C_R   0.308937 0.587206 0.408185 0.233480
C28   C     C_R   0.689149 0.598041 0.592869 0.389317
N17   N     N_R   0.873790 0.077030 0.443380 -0.086320
N18   N     N_R   0.126210 0.077030 0.556620 -0.082790
N19   N     N_R   0.373790 0.577030 0.443380 -0.079664
N20   N     N_R   0.626210 0.577030 0.556620 -0.089680
C29   C     C_R   0.936653 0.136630 0.232079 0.075268
C30   C     C_R   0.063349 0.136310 0.768261 0.065250
C31   C     C_R   0.436217 0.635894 0.230824 0.064504
C32   C     C_R   0.574218 0.614452 0.796315 0.083791
N21   N     N_R   0.945200 0.076700 0.294600 -0.056737
N22   N     N_R   0.054800 0.076700 0.705400 -0.057270
N23   N     N_R   0.445200 0.576700 0.294600 -0.057076
N24   N     N_R   0.554800 0.576700 0.705400 -0.059333
C33   C     C_R   0.151752 0.138396 0.763720 -0.077467
C34   C     C_R   0.848261 0.138841 0.236664 -0.062231
C35   C     C_R   0.663276 0.618140 0.793603 -0.052575
C36   C     C_R   0.348125 0.638771 0.236086 -0.081388
H13   H     H_    0.198876 0.152719 0.776802 0.119194
H14   H     H_    0.801151 0.153396 0.223752 0.115382
H15   H     H_    0.715243 0.623471 0.819289 0.182407
H16   H     H_    0.301045 0.653662 0.223174 0.117242
N25   N     N_R   0.111030 0.077600 0.705380 -0.038332
N26   N     N_R   0.888970 0.077600 0.294620 -0.036170
N27   N     N_R   0.611030 0.577600 0.705380 -0.054927
N28   N     N_R   0.388970 0.577600 0.294620 -0.037992
C37   C     C_R   0.883024 0.096501 0.590132 -0.162383
C38   C     C_R   0.117001 0.096784 0.409963 -0.177732
C39   C     C_R   0.384553 0.599778 0.591401 -0.150758
C40   C     C_R   0.615590 0.599017 0.408623 -0.259199
H17   H     H_    0.902777 0.090268 0.674772 0.144981
H18   H     H_    0.097446 0.090788 0.325423 0.128181
H19   H     H_    0.406320 0.598576 0.677439 0.121845
H20   H     H_    0.596940 0.595656 0.324284 0.156617
N29   N     N_R   0.919490 0.077280 0.556590 -0.067313
N30   N     N_R   0.080510 0.077280 0.443410 -0.063875
N31   N     N_R   0.419490 0.577280 0.556590 -0.061220
N32   N     N_R   0.580510 0.577280 0.443410 -0.061504
Ni1   Ni    Ni4+2 0.882160 0.999430 0.370180 0.317977
Ni2   Ni    Ni4+2 0.117840 0.999430 0.629820 0.298416
Ni3   Ni    Ni4+2 0.382160 0.499430 0.370180 0.308153
Ni4   Ni    Ni4+2 0.617840 0.499430 0.629820 0.293037
Ni5   Ni    Ni4+2 0.012460 0.999430 0.370180 0.212004
Ni6   Ni    Ni4+2 0.987540 0.999430 0.629820 0.218886
Ni7   Ni    Ni4+2 0.512460 0.499430 0.370180 0.210306
Ni8   Ni    Ni4+2 0.487540 0.499430 0.629820 0.211212
C41   C     C_R   0.813128 0.104785 0.497153 -0.032314
C42   C     C_R   0.186853 0.105192 0.503044 -0.044666
C43   C     C_R   0.314317 0.607187 0.498779 -0.050864
C44   C     C_R   0.683277 0.612540 0.501057 -0.097958
C45   C     C_R   0.877244 0.178258 0.196599 -0.088391
C46   C     C_R   0.122787 0.177650 0.804008 -0.083778
C47   C     C_R   0.376928 0.677644 0.195265 -0.074665
C48   C     C_R   0.642147 0.641630 0.853687 -0.058486
C49   C     C_R   0.784868 0.784751 0.558186 -0.049462
C50   C     C_R   0.154855 0.715766 0.399473 0.027375
C51   C     C_R   0.344839 0.217008 0.603971 0.023873
C52   C     C_R   0.655370 0.217487 0.396923 0.028978
C53   C     C_R   0.809972 0.768286 0.501907 0.021080
C54   C     C_R   0.183945 0.756977 0.497547 0.035327
C55   C     C_R   0.316810 0.257034 0.505257 0.044069
C56   C     C_R   0.684180 0.257985 0.495474 0.042125
C57   C     C_R   0.799460 0.696141 0.452895 -0.127994
C58   C     C_R   0.239498 0.721174 0.598699 -0.128008
C59   C     C_R   0.262161 0.220474 0.404479 -0.120703
C60   C     C_R   0.738989 0.221397 0.596338 -0.159954
H21   H     H_    0.821412 0.682850 0.412447 0.138023
H22   H     H_    0.260288 0.744568 0.678867 0.159630
H23   H     H_    0.242121 0.243074 0.324221 0.157591
H24   H     H_    0.759544 0.244377 0.676595 0.161818
C61   C     C_R   0.226838 0.158021 0.405102 -0.146503
C62   C     C_R   0.773908 0.158419 0.595668 -0.059389
C63   C     C_R   0.758187 0.642182 0.453541 -0.116095
C64   C     C_R   0.274950 0.658695 0.598156 -0.144723
H25   H     H_    0.180838 0.136950 0.325340 0.137582
H26   H     H_    0.820128 0.137394 0.675472 0.153806
H27   H     H_    0.747666 0.586679 0.413557 0.131653
H28   H     H_    0.321514 0.638008 0.677857 0.136948
C65   C     C_R   0.243638 0.133617 0.506096 0.095023
C66   C     C_R   0.756545 0.133531 0.494491 0.120027
C67   C     C_R   0.728614 0.662349 0.502828 0.065680
C68   C     C_R   0.257653 0.634320 0.496891 0.091326
C69   C     C_R   0.308949 0.157375 0.605586 0.026582
C70   C     C_R   0.691007 0.157384 0.395183 0.014995
C71   C     C_R   0.743538 0.732474 0.557435 0.093019
C72   C     C_R   0.191410 0.656761 0.397804 0.031801
C73   C     C_3   0.695104 0.794889 0.542688 0.116917
C74   C     C_3   0.152124 0.669097 0.273637 0.143776
C75   C     C_3   0.347488 0.169651 0.729512 0.137638
C76   C     C_3   0.652029 0.169520 0.271028 0.139970
C77   C     C_3   0.743005 0.853017 0.546004 0.085389
C78   C     C_3   0.110684 0.732587 0.277202 0.056912
C79   C     C_3   0.387296 0.234810 0.725590 0.062580
C80   C     C_3   0.612432 0.235137 0.275075 0.063766
H29   H     H_    0.717667 0.885576 0.466858 0.144887
H30   H     H_    0.119433 0.788302 0.253627 0.082558
H31   H     H_    0.375619 0.289933 0.746428 0.075713
H32   H     H_    0.623836 0.290079 0.253579 0.073046
H33   H     H_    0.796506 0.283581 0.189889 0.123133
H34   H     H_    0.204327 0.282090 0.812178 0.127717
H35   H     H_    0.298934 0.785719 0.190927 0.130500
H36   H     H_    0.778931 0.619992 0.008193 0.165588
H37   H     H_    0.287211 0.887368 0.016000 0.188412
H38   H     H_    0.801006 0.719427 0.190068 0.159617
H39   H     H_    0.782574 0.388121 0.016584 0.182935
H40   H     H_    0.217510 0.386271 0.984916 0.186008
C81   C     C_2   0.194899 0.847795 0.982250 -0.222652
C82   C     C_2   0.846842 0.757463 0.120508 -0.051495
C83   C     C_2   0.690983 0.338222 0.975532 -0.195730
C84   C     C_2   0.309480 0.336991 0.025773 -0.192519
C85   C     C_2   0.264518 0.853433 0.044614 -0.008335
C86   C     C_2   0.806743 0.710410 0.127070 -0.059756
C87   C     C_2   0.760273 0.349855 0.041994 -0.061929
C88   C     C_2   0.240058 0.348149 0.959668 -0.045769
C89   C     C_2   0.849184 0.249335 0.129098 0.359958
C90   C     C_2   0.150982 0.248315 0.871939 0.354254
C91   C     C_2   0.349453 0.748696 0.127695 0.344636
C92   C     C_2   0.687943 0.674815 0.966375 0.324566
C93   C     C_2   0.806785 0.295552 0.132819 -0.265435
C94   C     C_2   0.193805 0.294051 0.868950 -0.273501
C95   C     C_2   0.308949 0.796882 0.133334 -0.265698
C96   C     C_2   0.757420 0.659798 0.033638 -0.284364
H41   H     H_    0.172123 0.814015 0.011150 0.161300
H42   H     H_    0.853525 0.748491 0.058489 0.198787
H43   H     H_    0.668582 0.300145 0.001231 0.186760
H44   H     H_    0.332114 0.299110 0.000152 0.185187
N33   N     N_3   0.623952 0.793747 0.434244 -0.185433
H45   H     H_    0.594989 0.750977 0.436262 0.132158
H46   H     H_    0.625913 0.779320 0.370839 0.114960
N34   N     N_3   0.193275 0.702857 0.244449 -0.230930
H47   H     H_    0.202159 0.662646 0.204868 0.170277
H48   H     H_    0.241469 0.723838 0.315327 0.064806
N35   N     N_3   0.305380 0.201545 0.758085 -0.223052
H49   H     H_    0.298048 0.160852 0.799058 0.178642
H50   H     H_    0.256576 0.221379 0.686915 0.055012
N36   N     N_3   0.693690 0.200857 0.241440 -0.222698
H51   H     H_    0.701041 0.159865 0.200753 0.181375
H52   H     H_    0.742452 0.220873 0.312099 0.044589
N37   N     N_R   0.693820 0.801565 0.635587 0.285651
O1    O     O_R   0.726093 0.751579 0.716833 -0.364902
O2    O     O_R   0.659537 0.858153 0.636750 -0.289990
N38   N     N_R   0.108122 0.603604 0.202352 0.312912
O3    O     O_R   0.084640 0.554876 0.235534 -0.260546
O4    O     O_R   0.082378 0.601506 0.098726 -0.284399
N39   N     N_R   0.393087 0.104841 0.801470 0.313723
O5    O     O_R   0.418477 0.057914 0.769423 -0.245778
O6    O     O_R   0.417296 0.101046 0.904209 -0.226797
N40   N     N_R   0.606350 0.104865 0.199770 0.314364
O7    O     O_R   0.581506 0.058185 0.232823 -0.250827
O8    O     O_R   0.581699 0.100856 0.096819 -0.223484
N41   N     N_R   0.783357 0.902556 0.645038 0.273021
O9    O     O_R   0.824065 0.873368 0.745352 -0.331111
O10   O     O_R   0.780412 0.977044 0.632714 -0.376836
N42   N     N_R   0.036079 0.715070 0.214638 0.271576
O11   O     O_R   0.012138 0.695079 0.265701 -0.375445
O12   O     O_R   0.992244 0.724379 0.106862 -0.332039
N43   N     N_R   0.462776 0.220706 0.790722 0.283145
O13   O     O_R   0.489513 0.209394 0.741638 -0.338468
O14   O     O_R   0.504731 0.228738 0.898633 -0.311244
N44   N     N_R   0.537041 0.221488 0.210809 0.282723
O15   O     O_R   0.510810 0.210397 0.260682 -0.342495
O16   O     O_R   0.494664 0.229487 0.102826 -0.314308
N45   N     N_R   0.859603 0.262932 0.049269 0.226287
O17   O     O_R   0.889718 0.326005 0.053451 -0.368726
O18   O     O_R   0.836884 0.213207 0.970144 -0.390589
N46   N     N_R   0.140227 0.261924 0.951365 0.226859
O19   O     O_R   0.109920 0.325137 0.946833 -0.371408
O20   O     O_R   0.162831 0.212057 0.030486 -0.407374
N47   N     N_R   0.359436 0.761047 0.047134 0.223789
O21   O     O_R   0.392793 0.821735 0.053515 -0.353112
O22   O     O_R   0.334530 0.711778 0.966705 -0.417766
N48   N     N_R   0.658802 0.729055 0.997525 0.241948
O23   O     O_R   0.611796 0.778893 0.924842 -0.327664
O24   O     O_R   0.673509 0.723611 0.093988 -0.420403
N49   N     N_3   0.099563 0.895926 0.314594 -0.224696
H53   H     H_    0.058701 0.935689 0.264787 0.106423
H54   H     H_    0.145782 0.925825 0.347087 0.125313
N50   N     N_3   0.938313 0.848898 0.707327 -0.213471
H55   H     H_    0.923711 0.893582 0.734015 0.162066
H56   H     H_    0.921148 0.796764 0.716125 0.170435
N51   N     N_3   0.594132 0.393367 0.308721 -0.216773
H57   H     H_    0.562132 0.442289 0.270968 0.098235
H58   H     H_    0.643375 0.411139 0.336239 0.092788
N52   N     N_3   0.406160 0.392138 0.691258 -0.215619
H59   H     H_    0.437743 0.441123 0.729017 0.095917
H60   H     H_    0.356719 0.409849 0.663278 0.108512
N53   N     N_R   0.752843 0.039130 0.317796 0.221353
O25   O     O_R   0.749826 0.023902 0.232852 -0.403421
O26   O     O_R   0.716862 0.996234 0.334083 -0.363264
N54   N     N_R   0.247444 0.039336 0.682557 0.219704
O27   O     O_R   0.251204 0.024947 0.768385 -0.425522
O28   O     O_R   0.283136 0.995821 0.666060 -0.352193
N55   N     N_R   0.252818 0.539817 0.319961 0.220219
O29   O     O_R   0.247857 0.525671 0.232960 -0.427792
O30   O     O_R   0.219207 0.495317 0.339350 -0.358906
N56   N     N_R   0.753490 0.576113 0.699689 0.235521
O31   O     O_R   0.753548 0.520989 0.756593 -0.439078
O32   O     O_R   0.813332 0.603133 0.733418 -0.321346
N57   N     N_3   0.981282 0.152640 0.205728 -0.220318
H61   H     H_    0.952379 0.145349 0.120015 0.179917
H62   H     H_    0.997084 0.210256 0.225755 0.148962
N58   N     N_3   0.018705 0.152254 0.794680 -0.221665
H63   H     H_    0.047629 0.144532 0.880365 0.175897
H64   H     H_    0.002859 0.209982 0.774910 0.143664
N59   N     N_3   0.479523 0.650242 0.201521 -0.223953
H65   H     H_    0.449595 0.641676 0.115800 0.172930
H66   H     H_    0.495438 0.707900 0.219591 0.146660
N60   N     N_3   0.538791 0.606296 0.841023 -0.229540
H67   H     H_    0.573523 0.580776 0.919942 0.109439
H68   H     H_    0.526324 0.661419 0.850990 0.180665

loop_
_geom_bond_atom_site_label_1
_geom_bond_atom_site_label_2
_geom_bond_distance
_ccdc_geom_bond_type
N17   N29   1.356020 A    
C12   C24   1.395091 A    
C74   N34   1.472330 S    
C65   C69   1.409496 A    
N36   H51   1.040286 S    
C30   C46   1.392978 A    
C44   C67   1.400749 S    
C27   N19   1.332531 A    
C6    N50   1.428853 S    
C34   N26   1.337158 A    
N5    N9    1.356023 A    
C6    N6    1.321603 A    
C33   N25   1.336322 A    
N47   O21   1.301021 A    
C14   N14   1.344273 A    
N5    Ni5   1.853450 S    
C76   C80   1.524428 S    
N7    N11   1.356023 A    
C59   H23   1.079720 S    
C9    C21   1.390621 A    
C88   C94   1.457377 S    
C20   C83   1.462318 S    
C37   C41   1.381280 A    
N41   O9    1.302591 A    
C2    C18   1.382524 A    
C7    N7    1.317072 A    
N37   O1    1.301191 A    
C92   C96   1.347349 D    
H38   C86   1.085553 S    
N1    N14   1.416050 A    
N40   O8    1.301408 A    
C1    H1    1.076691 S    
C32   N24   1.338557 A    
C52   C70   1.372637 A    
C25   N53   1.436072 S    
C89   N45   1.437149 S    
N10   Ni1   1.841220 S    
C3    H3    1.080165 S    
C64   C68   1.407450 A    
C26   N18   1.333318 A    
N9    Ni2   1.840944 S    
N34   H48   1.045635 S    
N16   Ni7   1.844521 S    
C60   C62   1.392792 A    
N2    Ni2   1.854359 S    
N26   Ni1   1.868403 S    
N56   O32   1.300881 A    
N11   Ni4   1.840946 S    
H33   C93   1.086147 S    
N25   Ni2   1.868227 S    
N34   H47   1.040389 S    
C16   C19   1.383255 A    
N53   O25   1.300512 A    
C58   H22   1.079712 S    
C3    C19   1.386933 A    
C12   N12   1.331623 A    
C74   C78   1.524905 S    
C57   H21   1.083572 S    
C91   N47   1.437073 S    
C82   C86   1.336429 D    
C92   N48   1.440228 S    
C68   C72   1.408909 A    
C89   C93   1.346181 D    
N54   O28   1.301564 A    
N42   O11   1.302175 A    
N37   O2    1.301002 A    
C18   C81   1.464112 S    
N58   H64   1.045150 S    
C34   H14   1.075633 S    
C29   N57   1.425762 S    
N51   H57   1.045285 S    
C33   H13   1.074986 S    
N57   H61   1.043324 S    
N6    N10   1.356002 A    
C7    C23   1.390591 A    
N31   Ni8   1.867825 S    
C4    N4    1.333887 A    
C15   N15   1.343605 A    
N54   O27   1.300153 A    
C50   C54   1.398564 A    
N30   Ni5   1.873778 S    
C90   N46   1.437032 S    
C84   H44   1.087428 S    
C4    H4    1.080289 S    
C10   C22   1.369867 A    
C37   N29   1.337112 A    
N24   N27   1.387915 A    
N41   O10   1.299454 A    
C21   C54   1.457655 S    
C69   C75   1.524810 S    
C8    N52   1.427072 S    
N39   O5    1.302373 A    
N17   Ni1   1.854989 S    
C35   C48   1.388318 A    
N58   H63   1.043337 S    
N2    N13   1.415976 A    
C13   C18   1.378786 A    
N51   H58   1.046157 S    
C2    H2    1.079806 S    
C58   C64   1.393495 A    
C79   N43   1.466495 S    
C15   C20   1.382161 A    
C64   H28   1.080634 S    
N46   O20   1.300797 A    
N46   O19   1.300958 A    
N8    N12   1.356002 A    
C37   H17   1.077695 S    
C32   C48   1.388255 A    
C31   N23   1.341941 A    
C11   H7    1.078016 S    
N55   O30   1.301466 A    
C7    N51   1.427478 S    
C35   N27   1.337162 A    
N52   H60   1.046182 S    
C35   H15   1.077609 S    
N35   H50   1.045478 S    
N40   O7    1.302417 A    
H34   C94   1.086044 S    
C80   N44   1.466516 S    
C8    C24   1.391903 A    
C84   C88   1.335956 D    
C1    N1    1.332920 A    
N15   Ni8   1.838668 S    
C28   C44   1.361811 A    
N38   O4    1.301473 A    
N44   O16   1.300673 A    
N14   Ni5   1.844520 S    
H37   C85   1.084017 S    
N57   H62   1.045171 S    
C17   C82   1.457998 S    
C30   N22   1.342890 A    
N44   O15   1.301999 A    
C47   C91   1.471575 S    
N56   O31   1.300435 A    
C38   H18   1.077696 S    
N1    Ni1   1.854225 S    
C91   C95   1.345781 D    
C13   H9    1.078930 S    
C77   N41   1.465688 S    
C56   C60   1.408118 A    
C55   C59   1.409345 A    
C28   N56   1.435399 S    
N53   O26   1.301363 A    
C26   N54   1.435773 S    
N33   H45   1.044837 S    
C30   N58   1.425764 S    
C43   C68   1.456630 S    
N24   Ni8   1.858557 S    
C66   C70   1.409063 A    
N49   H53   1.045402 S    
C51   C79   1.497631 S    
C73   C77   1.530296 S    
N18   N30   1.356003 A    
C11   C23   1.394861 A    
N43   O13   1.301991 A    
N8    Ni8   1.859356 S    
C36   C47   1.391673 A    
C16   H12   1.078783 S    
C83   C87   1.335581 D    
C8    N8    1.317620 A    
C61   C65   1.407947 A    
N23   Ni7   1.852654 S    
N50   H56   1.043596 S    
C38   C42   1.382169 A    
N3    N16   1.416050 A    
C14   C17   1.384859 A    
C73   N37   1.468007 S    
N28   Ni3   1.868403 S    
C5    C21   1.391614 A    
N7    Ni7   1.853450 S    
C57   C63   1.388713 A    
C83   H43   1.087462 S    
C62   C66   1.408220 A    
C54   C58   1.409016 A    
C32   N60   1.428364 S    
C45   C89   1.471633 S    
N19   Ni3   1.854989 S    
C76   N40   1.472287 S    
C19   C84   1.462650 S    
N20   Ni4   1.855305 S    
C51   C55   1.398955 A    
C78   N42   1.466348 S    
N43   O14   1.300667 A    
C75   C79   1.524469 S    
N48   O24   1.301200 A    
C48   C92   1.468298 S    
C61   H25   1.080701 S    
C10   H6    1.077367 S    
C40   C44   1.361712 A    
C53   C57   1.399700 A    
N19   N31   1.356020 A    
C16   N16   1.343970 A    
H35   C95   1.086510 S    
N45   O18   1.300807 A    
C31   C47   1.390874 A    
N59   H65   1.043418 S    
C2    N2    1.334808 A    
C59   C61   1.394790 A    
C52   C56   1.399228 A    
C29   C45   1.392485 A    
C51   C69   1.372804 A    
C12   H8    1.077742 S    
C4    C20   1.387097 A    
C90   C94   1.346425 D    
C24   C55   1.459961 S    
N3    Ni3   1.854225 S    
C27   C43   1.371227 A    
N22   N25   1.387915 A    
C9    H5    1.077690 S    
N52   H59   1.045279 S    
H36   C96   1.085874 S    
C33   C46   1.390150 A    
N36   H52   1.045484 S    
N21   N26   1.387848 A    
C10   N10   1.333631 A    
C14   H10   1.076355 S    
C75   N35   1.471993 S    
C26   C42   1.367045 A    
C49   C77   1.498909 S    
N23   N28   1.387848 A    
C80   H32   1.103297 S    
C63   C67   1.396877 A    
N38   O3    1.302433 A    
N59   H66   1.045052 S    
C34   C45   1.390674 A    
C25   N17   1.333310 A    
C39   H19   1.077419 S    
C31   N59   1.425357 S    
N60   H68   1.043908 S    
N55   O29   1.300387 A    
N47   O22   1.300789 A    
N32   Ni7   1.873778 S    
C78   H30   1.101678 S    
N60   H67   1.045371 S    
C72   C74   1.524212 S    
C49   C53   1.385038 A    
N4    N15   1.415976 A    
C75   N39   1.472355 S    
C67   C71   1.391203 A    
C25   C41   1.367388 A    
C23   C56   1.457819 S    
C38   N30   1.338692 A    
C86   C96   1.453395 S    
C87   C93   1.457713 S    
N29   Ni6   1.867826 S    
C49   C71   1.359951 A    
C22   C53   1.401853 S    
C13   N13   1.346507 A    
C39   C43   1.383393 A    
N22   Ni6   1.858558 S    
C85   C95   1.459869 S    
N45   O17   1.300975 A    
C42   C65   1.458395 S    
N21   Ni5   1.852654 S    
N27   Ni4   1.868226 S    
N49   H54   1.045747 S    
N42   O12   1.300664 A    
C41   C66   1.456927 S    
C52   C80   1.497623 S    
C71   C73   1.514997 S    
C1    C17   1.385446 A    
C6    C22   1.370710 A    
C40   H20   1.078812 S    
C9    N9    1.328759 A    
C70   C76   1.524899 S    
C36   H16   1.076284 S    
C15   H11   1.078628 S    
C39   N31   1.334104 A    
C50   C72   1.372826 A    
N50   H55   1.043993 S    
H39   C87   1.084553 S    
C73   N33   1.467823 S    
H40   C88   1.084360 S    
C29   N21   1.342785 A    
N18   Ni2   1.855307 S    
N6    Ni6   1.859355 S    
C63   H27   1.083342 S    
C82   H42   1.087066 S    
C3    N3    1.333279 A    
C5    N49   1.427743 S    
C5    N5    1.320907 A    
C28   N20   1.323178 A    
N35   H49   1.040080 S    
N12   Ni3   1.841220 S    
C77   H29   1.113384 S    
C76   N36   1.472081 S    
C36   N28   1.339037 A    
N48   O23   1.301037 A    
C46   C90   1.471557 S    
C79   H31   1.103282 S    
N39   O6    1.301440 A    
C62   H26   1.080527 S    
N13   Ni6   1.838667 S    
N4    Ni4   1.854359 S    
C27   N55   1.434795 S    
C40   N32   1.334269 A    
C50   C78   1.497397 S    
N20   N32   1.356003 A    
C81   H41   1.087454 S    
C81   C85   1.334491 D    
C60   H24   1.079719 S    
N33   H46   1.046704 S    
C11   N11   1.330406 A    
C74   N38   1.472195 S    
