data_mof_unit_20088.cif
_audit_creation_date              2013-03-05T16:41:04-0500
_audit_creation_method            fapswitch 2.2
_symmetry_space_group_name_H-M    P1
_symmetry_Int_Tables_number       1
_space_group_crystal_system       triclinic
_cell_length_a                    18.663491
_cell_length_b                    18.840256
_cell_length_c                    18.720447
_cell_angle_alpha                 109.743184
_cell_angle_beta                  109.095583
_cell_angle_gamma                 109.502808
_cell_volume                      5071.64848114

loop_
_atom_site_label
_atom_site_type_symbol
_atom_site_description
_atom_site_fract_x
_atom_site_fract_y
_atom_site_fract_z
_atom_type_partial_charge
O1    O     O_R   0.408360 0.551710 0.460090 -0.614080
O2    O     O_R   0.408400 0.448280 0.356670 -0.613980
C1    C     C_R   0.379637 0.500057 0.379767 0.868257
O3    O     O_R   0.591600 0.643340 0.551710 -0.589908
O4    O     O_R   0.591630 0.539900 0.448290 -0.615460
C2    C     C_R   0.620814 0.620465 0.500761 0.870550
Zn1   Zn    Zn3+2 0.499980 0.569060 0.569060 1.027991
Zn2   Zn    Zn3+2 0.500020 0.430940 0.430940 1.011201
O5    O     O_R   0.591600 0.551720 0.643330 -0.621494
O6    O     O_R   0.591640 0.448290 0.539910 -0.610540
O7    O     O_R   0.408370 0.460100 0.551710 -0.633951
O8    O     O_R   0.408400 0.356660 0.448290 -0.621667
C3    C     C_R   0.618716 0.498732 0.620658 0.873133
C4    C     C_R   0.376273 0.380544 0.497136 0.867498
C5    C     C_R   0.710143 0.862608 0.762417 -0.203159
C6    C     C_R   0.702798 0.828460 0.678381 0.445002
C7    C     C_R   0.756662 0.794673 0.663427 0.060295
C8    C     C_R   0.823305 0.803268 0.733660 -0.384445
H1    H     H_    0.868534 0.782411 0.723997 0.212790
C9    C     C_R   0.833913 0.841417 0.817185 -0.063406
H2    H     H_    0.886564 0.849661 0.871446 0.207953
C10   C     C_R   0.776583 0.868243 0.832179 0.462506
C11   C     C_R   0.818820 0.822896 0.573088 -0.262688
H3    H     H_    0.872324 0.882688 0.632492 0.169187
C12   C     C_R   0.812590 0.807536 0.492522 -0.125379
C13   C     C_R   0.741443 0.731541 0.413638 0.063764
C14   C     C_R   0.678630 0.672061 0.419085 -0.137903
H4    H     H_    0.623696 0.613327 0.359652 0.157746
C15   C     C_R   0.685554 0.687456 0.500038 -0.063165
C16   C     C_R   0.753825 0.765645 0.577753 0.087921
C17   C     C_R   0.712669 0.763195 0.292109 -0.165511
H5    H     H_    0.699840 0.811481 0.327953 0.189975
C18   C     C_R   0.708244 0.752680 0.212825 -0.137317
C19   C     C_R   0.726691 0.690749 0.166908 -0.084123
C20   C     C_R   0.738790 0.633391 0.196124 0.393694
C21   C     C_R   0.734673 0.639455 0.272335 -0.160896
C22   C     C_R   0.731507 0.711634 0.325589 -0.067831
C23   C     C_R   0.401294 0.774031 0.536847 -0.156547
H6    H     H_    0.384263 0.791534 0.587732 0.176741
C24   C     C_R   0.354306 0.687586 0.469248 0.502669
C25   C     C_R   0.376293 0.663668 0.402074 -0.149053
C26   C     C_R   0.446837 0.727938 0.406165 0.368881
C27   C     C_R   0.489742 0.814416 0.472832 -0.071894
H7    H     H_    0.541959 0.863980 0.475112 0.204867
C28   C     C_R   0.467104 0.838352 0.537528 0.337949
C29   C     C_R   0.255269 0.574272 0.251871 -0.143667
H8    H     H_    0.258831 0.634436 0.256210 0.187704
C30   C     C_R   0.184956 0.494428 0.181512 -0.074644
C31   C     C_R   0.174341 0.415423 0.178609 0.107262
C32   C     C_R   0.241691 0.418775 0.242706 -0.162572
H9    H     H_    0.235937 0.358899 0.240940 0.150277
C33   C     C_R   0.312556 0.499432 0.313477 -0.114645
C34   C     C_R   0.316071 0.577660 0.321070 -0.018362
C35   C     C_R   0.024663 0.317161 0.145173 0.383661
C36   C     C_R   0.942183 0.239304 0.088967 0.358020
C37   C     C_R   0.923632 0.181568 0.006580 -0.170198
H10   H     H_    0.859868 0.123206 0.963914 0.242960
C38   C     C_R   0.986206 0.197432 0.979518 -0.065386
C39   C     C_R   0.069273 0.272620 0.037176 -0.311710
H11   H     H_    0.117862 0.285770 0.017310 0.212866
C40   C     C_R   0.088998 0.332394 0.119802 0.004330
H12   H     H_    0.161421 0.580130 0.546863 0.186523
C41   C     C_R   0.255115 0.546260 0.605683 0.423219
C42   C     C_R   0.276411 0.479685 0.596129 -0.087751
C43   C     C_R   0.225597 0.399460 0.515939 -0.046774
C44   C     C_R   0.150232 0.385311 0.449535 -0.224770
H13   H     H_    0.108489 0.322473 0.389991 0.190244
C45   C     C_R   0.125748 0.449413 0.461116 -0.006961
C46   C     C_R   0.179890 0.530405 0.537838 -0.200678
C47   C     C_R   0.176586 0.255198 0.502139 -0.143839
H14   H     H_    0.120507 0.258469 0.505018 0.180793
C48   C     C_R   0.187273 0.184808 0.499633 -0.100076
C49   C     C_R   0.262209 0.181300 0.501543 0.047527
C50   C     C_R   0.320775 0.245638 0.497013 -0.129937
H15   H     H_    0.376841 0.242139 0.494453 0.177361
C51   C     C_R   0.310217 0.316114 0.499207 -0.104152
C52   C     C_R   0.239174 0.323592 0.505634 0.050484
C53   C     C_R   0.365080 0.137815 0.575770 0.500410
C54   C     C_R   0.383578 0.072756 0.581691 -0.229508
H16   H     H_    0.446416 0.089905 0.631223 0.157530
C55   C     C_R   0.320901 0.985129 0.524148 -0.147869
H17   H     H_    0.336273 0.936027 0.529239 0.196685
C56   C     C_R   0.239209 0.961198 0.460185 -0.070079
H18   H     H_    0.190173 0.893193 0.416756 0.166318
C57   C     C_R   0.221012 0.024798 0.451282 -0.167505
H19   H     H_    0.158529 0.004954 0.399151 0.110450
C58   C     C_R   0.282723 0.113532 0.509764 0.070613
H20   H     H_    0.497616 0.581323 0.913197 0.198852
C59   C     C_R   0.593154 0.631593 0.878084 -0.053077
H21   H     H_    0.605540 0.697386 0.911723 0.188879
C60   C     C_R   0.639543 0.614444 0.835499 0.536643
C61   C     C_R   0.623679 0.528013 0.792394 -0.022392
C62   C     C_R   0.560584 0.461501 0.792646 -0.227487
H22   H     H_    0.550678 0.396357 0.762353 0.207434
C63   C     C_R   0.514386 0.479455 0.835834 0.044790
C64   C     C_R   0.531711 0.565277 0.878903 -0.127516
C65   C     C_R   0.748516 0.504177 0.824584 -0.114460
H23   H     H_    0.748513 0.510139 0.884360 0.183244
C66   C     C_R   0.814806 0.496601 0.810055 -0.057746
C67   C     C_R   0.819830 0.494389 0.735830 0.017896
C68   C     C_R   0.752598 0.492726 0.673566 -0.225650
H24   H     H_    0.754551 0.489537 0.615307 0.170199
C69   C     C_R   0.685482 0.499763 0.687742 -0.112757
C70   C     C_R   0.685427 0.509763 0.766084 0.010510
C71   C     C_R   0.955450 0.580139 0.739120 -0.234273
H25   H     H_    0.945321 0.634790 0.761250 0.204714
C72   C     C_R   0.025766 0.590032 0.723719 0.017470
C73   C     C_R   0.035639 0.517711 0.690094 -0.269604
H26   H     H_    0.088598 0.524357 0.675893 0.241470
C74   C     C_R   0.976427 0.435986 0.671668 -0.048709
C75   C     C_R   0.906722 0.426539 0.689643 0.429896
C76   C     C_R   0.896152 0.499890 0.723542 -0.029162
O9    O     O_R   0.051730 0.908360 0.460060 -0.630959
O10   O     O_R   0.948280 0.908380 0.356650 -0.599522
C77   C     C_R   0.998924 0.878508 0.380232 0.830972
O11   O     O_R   0.960110 0.908350 0.551690 -0.627690
O12   O     O_R   0.856660 0.908370 0.448270 -0.614937
C78   C     C_R   0.879720 0.875256 0.494748 0.841851
Zn3   Zn    Zn3+2 0.069070 0.999960 0.569030 1.025399
Zn4   Zn    Zn3+2 0.930930 0.999990 0.430930 1.050501
O13   O     O_R   0.051720 0.091580 0.643310 -0.564878
O14   O     O_R   0.948270 0.091600 0.539890 -0.626274
O15   O     O_R   0.143340 0.091590 0.551680 -0.590736
O16   O     O_R   0.039890 0.091610 0.448270 -0.620110
C79   C     C_R   0.999279 0.119330 0.619926 0.933757
C80   C     C_R   0.120443 0.118784 0.499047 0.880328
O17   O     O_R   0.051730 0.460050 0.908360 -0.632010
O18   O     O_R   0.948290 0.356630 0.908390 -0.627287
C81   C     C_R   0.004219 0.380407 0.883444 0.889783
O19   O     O_R   0.143340 0.551690 0.091580 -0.618881
O20   O     O_R   0.039900 0.448270 0.091610 -0.609101
C82   C     C_R   0.119814 0.496883 0.117056 0.887181
Zn5   Zn    Zn3+2 0.069070 0.569030 0.999960 1.010818
Zn6   Zn    Zn3+2 0.930930 0.430930 0.000000 1.021109
O21   O     O_R   0.051710 0.643320 0.091560 -0.601091
O22   O     O_R   0.948270 0.539900 0.091590 -0.616175
O23   O     O_R   0.960100 0.551680 0.908340 -0.606725
O24   O     O_R   0.856660 0.448270 0.908370 -0.624676
C83   C     C_R   0.998630 0.620180 0.118830 0.924344
C84   C     C_R   0.880240 0.496907 0.876794 0.881645
H27   H     H_    0.027371 0.705168 0.602190 0.167750
C85   C     C_R   0.083725 0.710489 0.519378 -0.168477
H28   H     H_    0.136641 0.703625 0.556573 0.159417
C86   C     C_R   0.077670 0.718769 0.446070 -0.070608
C87   C     C_R   0.007846 0.728371 0.398537 0.016992
C88   C     C_R   0.948261 0.731160 0.427851 -0.072828
H29   H     H_    0.897268 0.741698 0.394788 0.104112
C89   C     C_R   0.955270 0.722738 0.500739 -0.035426
H30   H     H_    0.908646 0.724796 0.522500 0.166444
C90   C     C_R   0.022397 0.711683 0.545903 -0.110352
C91   C     C_R   0.986003 0.671677 0.248775 -0.135015
H31   H     H_    0.974741 0.610521 0.246780 0.180403
C92   C     C_R   0.998453 0.686794 0.184687 -0.026684
C93   C     C_R   0.018100 0.767848 0.189340 0.016554
C94   C     C_R   0.011328 0.827105 0.250855 -0.215625
H32   H     H_    0.020960 0.887690 0.252118 0.159620
C95   C     C_R   0.000018 0.812137 0.315452 -0.089108
C96   C     C_R   0.997531 0.738152 0.320480 -0.031221
C97   C     C_R   0.142900 0.846612 0.171134 -0.006529
C98   C     C_R   0.174213 0.877161 0.123038 -0.209749
H33   H     H_    0.243810 0.917420 0.149639 0.199611
C99   C     C_R   0.117441 0.852509 0.038484 -0.262569
H34   H     H_    0.144971 0.875369 0.002626 0.223002
C100  C     C_R   0.027296 0.796416 0.999120 0.009965
C101  C     C_R   0.992981 0.768391 0.047883 0.432748
C102  C     C_R   0.051275 0.794749 0.135231 -0.092010
H35   H     H_    0.389711 0.628483 0.061156 0.192439
C103  C     C_R   0.269681 0.562677 0.938451 -0.000879
C104  C     C_R   0.191664 0.483313 0.876133 -0.104914
H36   H     H_    0.144477 0.478904 0.820074 0.194116
C105  C     C_R   0.172567 0.409468 0.886085 -0.025656
C106  C     C_R   0.237003 0.414284 0.957380 -0.019734
C107  C     C_R   0.313265 0.494873 0.020755 -0.144756
H37   H     H_    0.362782 0.500978 0.076506 0.192372
C108  C     C_R   0.329243 0.568056 0.011701 -0.158434
C109  C     C_R   0.081977 0.262356 0.749233 0.529601
C110  C     C_R   0.000626 0.186562 0.686277 -0.160487
C111  C     C_R   0.922147 0.176705 0.685564 -0.053330
C112  C     C_R   0.927029 0.241262 0.752995 -0.142331
H38   H     H_    0.866941 0.234613 0.752914 0.182404
C113  C     C_R   0.007356 0.315491 0.818571 -0.135873
C114  C     C_R   0.086610 0.327987 0.818105 -0.075156
C115  C     C_R   0.775115 0.121565 0.562456 -0.211982
H39   H     H_    0.790135 0.187576 0.580999 0.252804
C116  C     C_R   0.697461 0.054246 0.486103 -0.093966
H40   H     H_    0.654696 0.069477 0.446784 0.180148
C117  C     C_R   0.675926 0.967794 0.459213 0.496164
C118  C     C_R   0.730552 0.949229 0.513041 -0.230052
H41   H     H_    0.712241 0.882495 0.495322 0.169856
C119  C     C_R   0.809651 0.016885 0.588607 -0.130823
H42   H     H_    0.852643 0.001879 0.627839 0.129946
C120  C     C_R   0.834103 0.103791 0.612038 0.125491
O25   O     O_3   0.788065 0.898820 0.915627 -0.706875
H43   H     H_    0.733660 0.895867 0.914082 0.362223
C121  C     C_2   0.739669 0.689245 0.092144 0.973423
O26   O     O_2   0.717791 0.620420 0.031031 -0.594888
O27   O     O_R   0.779269 0.767130 0.092815 -0.786058
H44   H     H_    0.783364 0.757752 0.038022 0.383926
O28   O     O_3   0.758418 0.574675 0.150971 -0.698708
H45   H     H_    0.793164 0.561030 0.191379 0.341472
C122  C     C_2   0.730619 0.568567 0.292582 0.890453
O29   O     O_2   0.768585 0.584768 0.367839 -0.645268
O30   O     O_R   0.681856 0.482123 0.224297 -0.753834
H46   H     H_    0.683631 0.439590 0.245632 0.354526
O31   O     O_3   0.510990 0.924942 0.600824 -0.752080
H47   H     H_    0.486373 0.931438 0.640698 0.337705
O32   O     O_3   0.285846 0.630266 0.470370 -0.732542
H48   H     H_    0.257313 0.571000 0.420532 0.358450
O33   O     O_3   0.474103 0.709843 0.345260 -0.767247
H49   H     H_    0.447747 0.646123 0.309364 0.342310
C123  C     C_2   0.649158 0.892094 0.776444 0.899448
O34   O     O_2   0.677590 0.964852 0.835854 -0.586535
O35   O     O_R   0.559000 0.836383 0.721238 -0.794204
H50   H     H_    0.523960 0.863063 0.738113 0.340531
O36   O     O_3   0.042678 0.381538 0.222414 -0.758077
H51   H     H_    0.987705 0.382067 0.214236 0.354104
O37   O     O_3   0.878338 0.216966 0.111889 -0.724127
H52   H     H_    0.906083 0.248468 0.176315 0.379435
C124  C     C_2   0.964204 0.135196 0.891057 0.945841
O38   O     O_2   0.890263 0.072601 0.839978 -0.641669
O39   O     O_R   0.027708 0.147677 0.865554 -0.764679
H53   H     H_    0.004473 0.101177 0.803712 0.345723
O40   O     O_3   0.305257 0.624133 0.684043 -0.746840
H54   H     H_    0.282243 0.663815 0.679626 0.358951
C125  C     C_2   0.348293 0.493316 0.672962 1.036322
O41   O     O_2   0.335811 0.438666 0.695458 -0.586867
O42   O     O_R   0.430484 0.568305 0.720556 -0.765909
H55   H     H_    0.436809 0.605919 0.692557 0.337682
C126  C     C_2   0.040881 0.430512 0.396073 0.981650
O43   O     O_2   0.982017 0.355148 0.344237 -0.637746
O44   O     O_R   0.027086 0.498859 0.395204 -0.795017
H56   H     H_    0.966358 0.477694 0.348103 0.348205
O45   O     O_3   0.646825 0.830655 0.610562 -0.762208
H57   H     H_    0.637926 0.880214 0.635549 0.362862
O46   O     O_3   0.425857 0.224910 0.633813 -0.758354
H58   H     H_    0.479693 0.230333 0.674853 0.339731
O47   O     O_3   0.701567 0.684480 0.840967 -0.741084
H59   H     H_    0.722739 0.663347 0.800976 0.359670
C127  C     C_2   0.449636 0.409139 0.837634 1.018498
O48   O     O_2   0.408918 0.425037 0.874450 -0.622121
O49   O     O_R   0.434742 0.324300 0.797096 -0.771157
H60   H     H_    0.388587 0.282160 0.802122 0.363660
C128  C     C_2   0.087516 0.675113 0.739865 0.909486
O50   O     O_2   0.085667 0.740754 0.778552 -0.598373
O51   O     O_R   0.147815 0.680442 0.710181 -0.842318
H61   H     H_    0.186328 0.741851 0.725128 0.334995
C129  C     C_2   0.986766 0.360621 0.629486 0.940862
O52   O     O_2   0.059418 0.371361 0.643408 -0.651961
O53   O     O_R   0.913329 0.278038 0.570240 -0.763526
H62   H     H_    0.928791 0.232811 0.543769 0.350913
O54   O     O_3   0.851013 0.345788 0.673084 -0.790689
H63   H     H_    0.806926 0.348569 0.690406 0.326049
C130  C     C_2   0.149624 0.723970 0.426705 0.971272
O55   O     O_2   0.134161 0.673905 0.354901 -0.565326
O56   O     O_R   0.236618 0.783241 0.491976 -0.821559
H64   H     H_    0.243035 0.822570 0.549044 0.284743
C131  C     C_2   0.208375 0.864903 0.255707 0.908451
O57   O     O_2   0.276722 0.934786 0.302824 -0.619948
O58   O     O_R   0.194795 0.800417 0.278981 -0.787315
H65   H     H_    0.246633 0.818585 0.335105 0.356127
C132  C     C_2   0.970622 0.766542 0.906091 0.909831
O59   O     O_2   0.000125 0.800519 0.869323 -0.634120
O60   O     O_R   0.883902 0.699083 0.859442 -0.751148
H66   H     H_    0.853029 0.684452 0.796500 0.312614
O61   O     O_3   0.903362 0.715698 0.008349 -0.721848
H67   H     H_    0.887995 0.696645 0.046929 0.340140
C133  C     C_2   0.289363 0.639688 0.926825 0.917718
O62   O     O_2   0.354783 0.709955 0.983990 -0.601677
O63   O     O_R   0.233762 0.632184 0.850090 -0.797173
H68   H     H_    0.255372 0.689078 0.849884 0.376331
C134  C     C_2   0.230953 0.337628 0.966700 0.897451
O64   O     O_2   0.187152 0.264568 0.902891 -0.555971
O65   O     O_R   0.279301 0.349596 0.049021 -0.821202
H69   H     H_    0.270783 0.292857 0.047239 0.358391
O66   O     O_3   0.154222 0.269840 0.739284 -0.716649
H70   H     H_    0.205356 0.328835 0.781491 0.373564
O67   O     O_3   0.601728 0.903370 0.380354 -0.732879
H71   H     H_    0.598596 0.846723 0.368527 0.358297
C135  C     C_2   0.681246 0.805444 0.178567 1.005279
O68   O     O_2   0.700819 0.878903 0.229197 -0.596699
O69   O     O_R   0.630577 0.770093 0.088549 -0.803946
H72   H     H_    0.615673 0.812041 0.073469 0.365595

loop_
_geom_bond_atom_site_label_1
_geom_bond_atom_site_label_2
_geom_bond_distance
_ccdc_geom_bond_type
C74   C129  1.483929 S    
C19   C121  1.489299 S    
C103  C108  1.399978 A    
C44   C45   1.403838 A    
C105  C106  1.425114 A    
H20   C64   1.083092 S    
C25   C26   1.418589 A    
Zn5   O23   2.019861 S    
C119  H42   1.081338 S    
C121  O27   1.398894 S    
C94   C95   1.394330 A    
C63   C64   1.403062 A    
C104  C105  1.408823 A    
C49   C50   1.384433 A    
C35   C36   1.420640 A    
C105  C114  1.499911 S    
O19   C82   1.285866 A    
C127  O48   1.223707 D    
O36   H51   0.990595 S    
O20   Zn6   2.019862 S    
C115  C120  1.404726 A    
O17   C81   1.274149 A    
C65   H23   1.086283 S    
C20   O28   1.383424 S    
O60   H66   1.013255 S    
C36   O37   1.379430 S    
O31   H47   0.991710 S    
C73   H26   1.083991 S    
Zn1   O7    2.021274 S    
C71   C72   1.400225 A    
O53   H62   1.013593 S    
C101  C102  1.425052 A    
C50   C51   1.395230 A    
C77   C95   1.429498 S    
C56   H18   1.080085 S    
C6    O45   1.378919 S    
C61   C62   1.406889 A    
C100  C101  1.415852 A    
C106  C107  1.404951 A    
C89   C90   1.388512 A    
C19   C20   1.413976 A    
O1    C1    1.277140 A    
C106  C134  1.484337 S    
C41   C46   1.403709 A    
C130  O55   1.219708 D    
Zn2   O6    2.021436 S    
O7    C4    1.270701 A    
C116  C117  1.394425 A    
C14   C15   1.395478 A    
C83   C92   1.433578 S    
C75   O54   1.380583 S    
C5    C6    1.422632 A    
O56   H64   1.013377 S    
O63   H68   1.013317 S    
C37   H10   1.083629 S    
O69   H72   1.013814 S    
C118  C119  1.401500 A    
O49   H60   1.013934 S    
C104  H36   1.082310 S    
Zn5   O21   2.012281 S    
C31   C32   1.390239 A    
O42   H55   1.013145 S    
O5    C3    1.274555 A    
C74   C75   1.417613 A    
C49   C58   1.490304 S    
C23   C28   1.400990 A    
C5    C123  1.480609 S    
C65   C66   1.391702 A    
O9    Zn3   2.015219 S    
C103  C104  1.404717 A    
Zn4   O16   2.016455 S    
C5    C10   1.418905 A    
C97   C98   1.397605 A    
O11   C78   1.286879 A    
C45   C46   1.397328 A    
C128  O51   1.398868 S    
C7    C8    1.397716 A    
C21   C22   1.422294 A    
C32   C33   1.401800 A    
O46   H58   0.991760 S    
C17   C18   1.399726 A    
C10   O25   1.381573 S    
C47   H14   1.086229 S    
C3    C69   1.440050 S    
O61   H67   0.987256 S    
C88   C89   1.395525 A    
C60   C61   1.422833 A    
C54   H16   1.082900 S    
Zn2   O8    2.015083 S    
C134  O64   1.220143 D    
C57   C58   1.404541 A    
C44   H13   1.084179 S    
C24   O32   1.382307 S    
O28   H45   0.990248 S    
C68   C69   1.400601 A    
C101  O61   1.384147 S    
O47   H59   0.986080 S    
O18   C81   1.287009 A    
C47   C52   1.384614 A    
C95   C96   1.414997 A    
C7    C16   1.485511 S    
C122  O30   1.399062 S    
C72   C128  1.483317 S    
O27   H44   1.013453 S    
O3    Zn1   2.015080 S    
C4    C51   1.434825 S    
C42   C125  1.480689 S    
C55   C56   1.394061 A    
C97   C131  1.484273 S    
Zn4   O14   2.015185 S    
H27   C90   1.079347 S    
C18   C19   1.415296 A    
C99   C100  1.402102 A    
Zn3   O13   2.015996 S    
C30   C82   1.432354 S    
C35   O36   1.378319 S    
O23   C84   1.272992 A    
C29   C30   1.390036 A    
C94   H32   1.085233 S    
C39   C40   1.403590 A    
C50   H15   1.085495 S    
O32   H48   0.987367 S    
C68   H24   1.085173 S    
C41   O40   1.382453 S    
C125  O41   1.220138 D    
O54   H63   0.988346 S    
C31   C40   1.490486 S    
C51   C52   1.417756 A    
O40   H54   0.991565 S    
C18   C135  1.485654 S    
O12   Zn4   2.020319 S    
C124  O38   1.223767 D    
C132  O60   1.396184 S    
O51   H61   1.013859 S    
C53   C54   1.408264 A    
C8    H1    1.083066 S    
O15   C80   1.275819 A    
Zn6   O22   2.018560 S    
C32   H9    1.084793 S    
C12   C13   1.418809 A    
C113  C114  1.421511 A    
C117  O67   1.378332 S    
C9    H2    1.077031 S    
C55   H17   1.079863 S    
C41   C42   1.411043 A    
H12   C46   1.082511 S    
C48   C80   1.431436 S    
C118  H41   1.079248 S    
C131  O58   1.398003 S    
C20   C21   1.421935 A    
O22   C83   1.283429 A    
O21   C83   1.274742 A    
C115  H39   1.075958 S    
C91   C96   1.382773 A    
C123  O34   1.223008 D    
O13   C79   1.280185 A    
C15   C16   1.412815 A    
C11   C16   1.379080 A    
O18   Zn6   2.012493 S    
C124  O39   1.395696 S    
C43   C52   1.493999 S    
C111  C120  1.489043 S    
C38   C124  1.485796 S    
C130  O56   1.394866 S    
C66   C67   1.410689 A    
O44   H56   1.013848 S    
O35   H50   1.013664 S    
C72   C73   1.396704 A    
C100  C132  1.484445 S    
C60   O47   1.379445 S    
C36   C37   1.395546 A    
O33   H49   0.989520 S    
C13   C14   1.385179 A    
C129  O53   1.394656 S    
C127  O49   1.397788 S    
C62   H22   1.082493 S    
C63   C127  1.484705 S    
C33   C34   1.408720 A    
C89   H30   1.080954 S    
C27   C28   1.393474 A    
C25   C34   1.482290 S    
C57   H19   1.081607 S    
C107  C108  1.391074 A    
O24   C84   1.284398 A    
C110  C111  1.408522 A    
O3    C2    1.269719 A    
C24   C25   1.425168 A    
C56   C57   1.395897 A    
O66   H70   0.987679 S    
O8    C4    1.288047 A    
C67   C76   1.491510 S    
C27   H7    1.077854 S    
C79   C110  1.429413 S    
C126  O44   1.399065 S    
C85   C86   1.405499 A    
C66   C84   1.429869 S    
C38   C39   1.407456 A    
O19   Zn5   2.023681 S    
C59   C60   1.397814 A    
C21   C122  1.492112 S    
O58   H65   1.013845 S    
C59   H21   1.082845 S    
C53   C58   1.415826 A    
C87   C88   1.399794 A    
C131  O57   1.223305 D    
C45   C126  1.478784 S    
O16   C80   1.283804 A    
C88   H29   1.073324 S    
O45   H57   0.988694 S    
C134  O65   1.399841 S    
Zn1   O5    2.021907 S    
C29   H8    1.086185 S    
C109  C110  1.406375 A    
C119  C120  1.402304 A    
C109  C114  1.406177 A    
C75   C76   1.422279 A    
C123  O35   1.396842 S    
C11   C12   1.392816 A    
O1    Zn1   2.021432 S    
C71   C76   1.403371 A    
C17   H5    1.083208 S    
O2    Zn2   2.021905 S    
O17   Zn5   2.018774 S    
C9    C10   1.393134 A    
C48   C49   1.411472 A    
C12   C78   1.435912 S    
O6    C3    1.285505 A    
C103  C133  1.482293 S    
O39   H53   1.014138 S    
O4    Zn2   2.021271 S    
C47   C48   1.393335 A    
C129  O52   1.223679 D    
O11   Zn3   2.016365 S    
C13   C22   1.492605 S    
O10   C77   1.286479 A    
C35   C40   1.408825 A    
Zn3   O15   2.020573 S    
Zn6   O24   2.023807 S    
C99   H34   1.083219 S    
C71   H25   1.077295 S    
C54   C55   1.392424 A    
C126  O43   1.222577 D    
C97   C102  1.421045 A    
C86   C87   1.424858 A    
C133  O62   1.223619 D    
C42   C43   1.419831 A    
C86   C130  1.482941 S    
C59   C64   1.394295 A    
C115  C116  1.394480 A    
O2    C1    1.281907 A    
O37   H52   0.988717 S    
C135  O68   1.223464 D    
C117  C118  1.407551 A    
C43   C44   1.405905 A    
C28   O31   1.379532 S    
O12   C78   1.277694 A    
C1    C33   1.439212 S    
C135  O69   1.398627 S    
C23   C24   1.396701 A    
C87   C96   1.492597 S    
C133  O63   1.396376 S    
C85   C90   1.392366 A    
C116  H40   1.082784 S    
O4    C2    1.286877 A    
C73   C74   1.402355 A    
C109  O66   1.388426 S    
O14   C79   1.276701 A    
C30   C31   1.413923 A    
C23   H6    1.083076 S    
C29   C34   1.379817 A    
C67   C68   1.387895 A    
C125  O42   1.396855 S    
C37   C38   1.402212 A    
C53   O46   1.380606 S    
H35   C108  1.083172 S    
C8    C9    1.394222 A    
C91   C92   1.394117 A    
O20   C82   1.272215 A    
C98   H33   1.083628 S    
C65   C70   1.383388 A    
C61   C70   1.486749 S    
C11   H3    1.085727 S    
C107  H37   1.083244 S    
C121  O26   1.222936 D    
C17   C22   1.398313 A    
C93   C94   1.381795 A    
C39   H11   1.074682 S    
C2    C15   1.434256 S    
C122  O29   1.221464 D    
C26   O33   1.381311 S    
C62   C63   1.406259 A    
O25   H43   0.988407 S    
C26   C27   1.398042 A    
C69   C70   1.414506 A    
C132  O59   1.223547 D    
C112  H38   1.085486 S    
C85   H28   1.083088 S    
C93   C102  1.487935 S    
C112  C113  1.395137 A    
O30   H46   1.013935 S    
O9    C77   1.272517 A    
C92   C93   1.410454 A    
O67   H71   0.990804 S    
C81   C113  1.437010 S    
C91   H31   1.085000 S    
O10   Zn4   2.015866 S    
C128  O50   1.222649 D    
C6    C7    1.408978 A    
C98   C99   1.386099 A    
C111  C112  1.376441 A    
C14   H4    1.085304 S    
O65   H69   1.013927 S    
