data_mof_unit_23977.cif
_audit_creation_date              2012-12-11T14:45:54-0500
_audit_creation_method            fapswitch 2.2
_symmetry_space_group_name_H-M    P1
_symmetry_Int_Tables_number       1
_space_group_crystal_system       triclinic
_cell_length_a                    10.964596
_cell_length_b                    11.000692
_cell_length_c                    18.800443
_cell_angle_alpha                 89.674771
_cell_angle_beta                  89.870354
_cell_angle_gamma                 119.802434
_cell_volume                      1967.69626692

loop_
_atom_site_label
_atom_site_type_symbol
_atom_type_description
_atom_site_fract_x
_atom_site_fract_y
_atom_site_fract_z
_atom_type_partial_charge
C1    C     C_R   0.866315 0.634043 0.605008 0.553980
C2    C     C_R   0.419011 0.651505 0.771105 0.076752
C3    C     C_R   0.377121 0.632207 0.701984 -0.083205
C4    C     C_R   0.256151 0.632838 0.682951 -0.027919
C5    C     C_R   0.818634 0.123822 0.812478 -0.033589
C6    C     C_R   0.066557 0.174918 0.815180 -0.120533
C7    C     C_R   0.175427 0.165850 0.782295 -0.195185
C8    C     C_R   0.173651 0.145238 0.709623 -0.089966
C9    C     C_R   0.062252 0.132479 0.668616 0.235858
C10   C     C_R   0.947057 0.136581 0.701800 0.005642
C11   C     C_R   0.944145 0.146545 0.777230 -0.039569
C12   C     C_R   0.208883 0.595597 0.610777 0.543699
C13   C     C_R   0.702161 0.072557 0.695641 0.029825
C14   C     C_R   0.696422 0.091020 0.769537 0.031773
C15   C     C_R   0.578489 0.012862 0.654432 -0.041633
C16   C     C_R   0.451491 0.986740 0.683837 -0.073991
C17   C     C_R   0.447070 0.022897 0.753828 -0.095736
C18   C     C_R   0.567484 0.077058 0.795715 -0.038226
C19   C     C_R   0.832634 0.125778 0.662374 -0.005759
C20   C     C_R   0.755008 0.520841 0.721927 0.228240
C21   C     C_R   0.759846 0.535271 0.795441 -0.115110
C22   C     C_R   0.817676 0.668271 0.824206 -0.016706
C23   C     C_R   0.859070 0.217591 0.599301 0.573959
C24   C     C_R   0.877482 0.786782 0.779635 -0.161289
C25   C     C_R   0.882516 0.773150 0.707519 -0.180084
C26   C     C_R   0.824896 0.641613 0.677640 0.038154
C27   C     C_R   0.239504 0.537467 0.275266 -0.133899
C28   C     C_R   0.257539 0.554398 0.202648 -0.144648
C29   C     C_R   0.334858 0.688963 0.173705 0.022664
C30   C     C_R   0.382597 0.807190 0.217511 -0.141100
C31   C     C_R   0.362635 0.790007 0.290686 -0.156793
C32   C     C_R   0.296340 0.654942 0.319738 0.022536
C33   C     C_R   0.820684 0.277988 0.273972 -0.153552
C34   C     C_R   0.870069 0.637053 0.396025 0.523197
C35   C     C_R   0.810790 0.252772 0.201557 0.103541
C36   C     C_R   0.844218 0.154240 0.175064 0.021871
C37   C     C_R   0.886126 0.080885 0.221506 -0.163564
C38   C     C_R   0.887687 0.100226 0.294887 0.102047
C39   C     C_R   0.854617 0.199551 0.320552 0.028272
C40   C     C_R   0.962926 0.705762 0.276347 -0.140057
C41   C     C_R   0.945494 0.709991 0.204175 -0.157711
C42   C     C_R   0.810569 0.658260 0.176803 0.015059
C43   C     C_R   0.692264 0.595854 0.221924 -0.143968
C44   C     C_R   0.709796 0.588251 0.294565 -0.160636
C45   C     C_R   0.265601 0.630698 0.394868 0.534031
C46   C     C_R   0.845606 0.647984 0.321809 0.020546
C47   C     C_R   0.799320 0.092073 0.890933 0.528348
C48   C     C_R   0.396160 0.701478 0.896366 0.559725
C49   C     C_R   0.799147 0.691463 0.898070 0.517690
C50   C     C_R   0.806868 0.104300 0.102876 0.577266
C51   C     C_R   0.394299 0.704558 0.103154 0.544057
C52   C     C_R   0.796334 0.695005 0.104844 0.541891
C53   C     C_R   0.864224 0.234464 0.394806 0.555080
C54   C     C_R   0.182403 0.666984 0.732864 -0.148563
C55   C     C_R   0.228314 0.693633 0.803809 0.093549
C56   C     C_R   0.347506 0.685246 0.823024 0.069429
Cr1   Cr    Cr6+3 0.791660 0.390250 0.499930 1.066948
Cr2   Cr    Cr6+3 0.098520 0.708290 0.500540 1.047926
Cr3   Cr    Cr6+3 0.109770 0.401430 0.499480 1.095787
Cr4   Cr    Cr6+3 0.874790 0.925890 0.000070 1.002889
Cr5   Cr    Cr6+3 0.574120 0.948670 0.999300 1.010654
Cr6   Cr    Cr6+3 0.551420 0.625320 0.000920 0.986044
H1    H     H_    0.088340 0.668582 0.717323 0.124683
H2    H     H_    0.358051 0.944994 0.651416 0.145376
H3    H     H_    0.581446 0.990285 0.598616 0.121083
H4    H     H_    0.350312 0.011160 0.775597 0.107828
H5    H     H_    0.711689 0.443427 0.829637 0.120523
H6    H     H_    0.919566 0.890822 0.800702 0.170313
H7    H     H_    0.933907 0.865115 0.674801 0.187571
H8    H     H_    0.180778 0.431903 0.296637 0.146212
H9    H     H_    0.218484 0.462231 0.169568 0.130842
H10   H     H_    0.443403 0.912310 0.195973 0.132865
H11   H     H_    0.401998 0.881105 0.324520 0.125413
H12   H     H_    0.799150 0.357592 0.294144 0.146277
H13   H     H_    0.906219 0.000302 0.201370 0.144245
H14   H     H_    0.068524 0.746941 0.296627 0.148702
H15   H     H_    0.037628 0.758286 0.170011 0.134118
H16   H     H_    0.587211 0.557675 0.201484 0.142722
H17   H     H_    0.618813 0.540125 0.329443 0.126445
H18   H     H_    0.435850 0.607181 0.663954 0.177495
H19   H     H_    0.262337 0.175289 0.813627 0.106130
H20   H     H_    0.258428 0.136422 0.685194 0.167163
H21   H     H_    0.079921 0.202601 0.870687 0.145309
H22   H     H_    0.556197 0.116581 0.845901 0.150526
O1    O     O_R   0.766500 0.250040 0.579790 -0.464515
O2    O     O_R   0.218690 0.701900 0.425960 -0.503822
O3    O     O_R   0.249490 0.516440 0.419420 -0.512144
O4    O     O_R   0.982880 0.281910 0.424890 -0.464473
O5    O     O_3   0.999980 0.499990 0.499980 -0.298936
O6    O     O_R   0.895110 0.806860 0.920430 -0.522537
O7    O     O_R   0.872260 0.046970 0.925000 -0.507179
O8    O     O_R   0.691430 0.085060 0.918550 -0.538286
O9    O     O_R   0.451490 0.822460 0.925250 -0.491498
O10   O     O_R   0.413330 0.603360 0.920440 -0.538119
O11   O     O_R   0.676110 0.626250 0.926750 -0.519875
O12   O     O_R   0.798570 0.516780 0.574780 -0.442187
O13   O     O_R   0.895350 0.809870 0.080950 -0.523626
O14   O     O_R   0.872490 0.049760 0.073800 -0.515549
O15   O     O_R   0.691680 0.088070 0.079070 -0.493795
O16   O     O_R   0.451720 0.825250 0.074050 -0.510166
O17   O     O_R   0.413580 0.606370 0.080960 -0.525069
O18   O     O_R   0.676340 0.629040 0.075550 -0.507769
O19   O     O_3   0.666780 0.833290 0.000090 -0.250411
O20   O     O_R   0.984000 0.732950 0.581090 -0.500963
O21   O     O_R   0.218600 0.700890 0.574760 -0.509833
O22   O     O_R   0.249390 0.515350 0.579940 -0.498871
O23   O     O_R   0.982790 0.280900 0.573700 -0.461584
O24   O     O_R   0.766600 0.251130 0.419260 -0.539709
O25   O     O_R   0.798660 0.517790 0.425980 -0.507181
O26   O     O_R   0.984100 0.734040 0.420570 -0.508152
Cl1   Cl    Cl    0.650061 0.351118 0.689472 -0.641490
N1    N     N_2   0.151395 0.721007 0.856009 -0.517499
H23   H     H_    0.101661 0.772340 0.836269 0.264958
C57   C     C_3   0.060820 0.601170 0.900270 -0.286372
H24   H     H_    0.977699 0.517204 0.867587 0.139011
H25   H     H_    0.011044 0.633150 0.942024 0.159389
H26   H     H_    0.121514 0.558632 0.927404 0.153181
N2    N     N_2   0.766078 0.325364 0.155323 -0.497519
H27   H     H_    0.831631 0.432033 0.156671 0.251541
C58   C     C_3   0.618922 0.284365 0.162221 -0.274993
H28   H     H_    0.591889 0.340984 0.121808 0.148588
H29   H     H_    0.596269 0.309671 0.216007 0.133276
H30   H     H_    0.551320 0.170175 0.153484 0.168624
N3    N     N_2   0.915345 0.015677 0.342446 -0.485559
H31   H     H_    0.971701 0.973302 0.320037 0.260426
C59   C     C_3   0.793300 0.912556 0.381745 -0.263296
H32   H     H_    0.715836 0.833563 0.344854 0.132877
H33   H     H_    0.741659 0.961774 0.411280 0.151488
H34   H     H_    0.825970 0.859795 0.421506 0.181696
N4    N     N_2   0.517664 0.610808 0.789241 -0.506547
H35   H     H_    0.588707 0.677361 0.825221 0.286075
C60   C     C_3   0.451157 0.461866 0.804881 -0.243718
H36   H     H_    0.505983 0.439617 0.847753 0.155022
H37   H     H_    0.449191 0.405065 0.756061 0.195687
H38   H     H_    0.341867 0.420354 0.824441 0.155686
Cl2   Cl    Cl    0.058928 0.078110 0.579740 -0.612064

loop_
_geom_bond_atom_site_label_1
_geom_bond_atom_site_label_2
_ccdc_geom_bond_type
C8    C9    A    
C55   C56   A    
C59   H32   S    
C55   N1    S    
C41   C42   A    
C14   C18   A    
N4    C60   S    
C35   C36   A    
C49   O6    A    
N1    C57   S    
C57   H24   S    
C7    C8    A    
C39   C53   S    
C43   H16   S    
C40   C46   A    
C5    C47   S    
C52   O18   A    
C17   H4    S    
C33   C39   A    
Cr1   O5    S    
C8    H20   S    
C21   C22   A    
C36   C37   A    
Cr5   O19   S    
C5    C11   A    
Cr4   O14   S    
C60   H38   S    
C41   H15   S    
C30   C31   A    
Cr5   O9    S    
C31   H11   S    
C54   H1    S    
C15   C16   A    
C15   H3    S    
C52   O13   A    
C47   O8    A    
Cr3   O4    S    
C33   C35   A    
N2    H27   S    
Cr1   O25   S    
C58   H29   S    
C60   H36   S    
Cr1   O12   S    
C18   H22   S    
C34   C46   S    
C4    C12   S    
Cr4   O19   S    
C9    C10   A    
Cr5   O8    S    
Cr6   O17   S    
C4    C54   A    
C37   H13   S    
C13   C14   A    
C21   H5    S    
Cr5   O15   S    
C3    H18   S    
Cr2   O2    S    
N1    H23   S    
C44   C46   A    
Cr3   O3    S    
C38   C39   A    
C50   O14   A    
Cr3   O22   S    
C48   O9    A    
C13   C19   A    
C24   C25   A    
Cr4   O13   S    
C6    C11   A    
C16   C17   A    
C59   H34   S    
C25   C26   A    
Cr3   O23   S    
C40   H14   S    
Cr3   O5    S    
C19   C23   S    
C43   C44   A    
C37   C38   A    
C20   Cl1   S    
C57   H25   S    
C31   C32   A    
C10   C19   A    
C23   O23   A    
C17   C18   A    
C50   O15   A    
C32   C45   S    
C49   O11   A    
C1    O20   A    
C5    C14   A    
C27   H8    S    
C48   O10   A    
C22   C49   S    
C40   C41   A    
C7    H19   S    
C13   C15   A    
C1    C26   S    
C34   O26   A    
C22   C24   A    
Cr5   O16   S    
C25   H7    S    
C42   C43   A    
C3    C4    A    
C36   C50   S    
C58   H28   S    
N3    C59   S    
Cr6   O19   S    
C29   C51   S    
Cr4   O7    S    
C51   O16   A    
C48   C56   S    
C54   C55   A    
C28   C29   A    
C59   H33   S    
C6    H21   S    
C45   O3    A    
C27   C32   A    
Cr2   O26   S    
C47   O7    A    
C44   H17   S    
C30   H10   S    
C58   H30   S    
C6    C7    A    
Cr4   O6    S    
C51   O17   A    
Cr2   O21   S    
Cr6   O10   S    
C45   O2    A    
C2    C56   A    
C12   O22   A    
C53   O24   A    
C12   O21   A    
C20   C26   A    
C1    O12   A    
C2    N4    S    
Cr1   O1    S    
N4    H35   S    
C53   O4    A    
Cr2   O5    S    
N2    C58   S    
C57   H26   S    
C10   C11   A    
C24   H6    S    
C29   C30   A    
C28   H9    S    
C9    Cl2   S    
C33   H12   S    
Cr1   O24   S    
Cr2   O20   S    
C20   C21   A    
C60   H37   S    
C23   O1    A    
C27   C28   A    
C34   O25   A    
C35   N2    S    
C2    C3    A    
C16   H2    S    
Cr6   O11   S    
C38   N3    S    
C42   C52   S    
N3    H31   S    
Cr6   O18   S    
