data_mof_unit_14867.cif
_audit_creation_date              2013-03-05T16:06:20-0500
_audit_creation_method            fapswitch 2.2
_symmetry_space_group_name_H-M    P1
_symmetry_Int_Tables_number       1
_space_group_crystal_system       triclinic
_cell_length_a                    10.834917
_cell_length_b                    9.497739
_cell_length_c                    27.793998
_cell_angle_alpha                 89.944991
_cell_angle_beta                  90.306429
_cell_angle_gamma                 89.958316
_cell_volume                      2860.15990199

loop_
_atom_site_label
_atom_site_type_symbol
_atom_site_description
_atom_site_fract_x
_atom_site_fract_y
_atom_site_fract_z
_atom_type_partial_charge
O1    O     O_R   0.319640 0.618740 0.500000 -0.589433
O2    O     O_R   0.680360 0.381260 0.500000 -0.588749
O3    O     O_R   0.680360 0.618740 0.500000 -0.591943
O4    O     O_R   0.319640 0.381260 0.500000 -0.590239
C1    C     C_R   0.261992 0.500033 0.499989 0.794977
C2    C     C_R   0.738005 0.499975 0.500096 0.792636
O5    O     O_R   0.500020 0.618770 0.430260 -0.578338
O6    O     O_R   0.499980 0.381230 0.569740 -0.581338
O7    O     O_R   0.499980 0.618770 0.569740 -0.572156
O8    O     O_R   0.500020 0.381230 0.430260 -0.583290
C3    C     C_R   0.498842 0.500109 0.407146 0.835406
C4    C     C_R   0.501332 0.499910 0.592597 0.835135
Cu1   Cu    Cu3+1 0.500000 0.640660 0.500000 0.949320
Cu2   Cu    Cu3+1 0.500000 0.359340 0.500000 0.955920
C5    C     C_R   0.374536 0.480629 0.177048 0.611304
C6    C     C_R   0.592699 0.405360 0.821654 0.615964
O9    O     O_2   0.271441 0.496998 0.203368 -0.533365
O10   O     O_2   0.684978 0.351397 0.795094 -0.536431
N1    N     N_R   0.484132 0.465845 0.200852 -0.441888
N2    N     N_R   0.497593 0.470093 0.798124 -0.442378
C7    C     C_R   0.592468 0.444084 0.177341 0.608678
C8    C     C_R   0.400756 0.528951 0.821793 0.600054
C9    C     C_R   0.502634 0.351596 0.280809 0.391070
C10   C     C_R   0.434212 0.375198 0.718604 0.380555
C11   C     C_R   0.508909 0.365530 0.330877 -0.318480
C12   C     C_R   0.436295 0.387831 0.668402 -0.317022
C13   C     C_R   0.477333 0.619105 0.324698 0.127154
C14   C     C_R   0.564553 0.597868 0.673868 0.145348
C15   C     C_R   0.473250 0.604872 0.274516 -0.140437
C16   C     C_R   0.562900 0.585105 0.724074 -0.140131
C17   C     C_R   0.485477 0.473311 0.252514 0.210852
C18   C     C_R   0.498901 0.475450 0.746497 0.215515
C19   C     C_R   0.480822 0.446320 0.101083 -0.119921
C20   C     C_R   0.489955 0.449945 0.897743 -0.116807
C21   C     C_R   0.369394 0.474949 0.126065 -0.071516
C22   C     C_R   0.592115 0.392244 0.872536 -0.069475
C23   C     C_R   0.256967 0.490939 0.099421 0.164323
C24   C     C_R   0.686128 0.318579 0.898784 0.150396
C25   C     C_R   0.594242 0.430738 0.126696 -0.012823
C26   C     C_R   0.394096 0.522107 0.872484 -0.015957
C27   C     C_R   0.495806 0.497226 0.353633 -0.115835
C28   C     C_R   0.500434 0.497489 0.645646 -0.105700
H1    H     H_    0.460454 0.696797 0.251887 0.172667
H2    H     H_    0.611344 0.660989 0.746298 0.157612
C29   C     C_R   0.380260 0.487584 0.973671 0.031663
C30   C     C_R   0.587746 0.398553 0.025144 0.031341
C31   C     C_R   0.582999 0.377162 0.974479 0.004532
C32   C     C_R   0.370566 0.463932 0.024043 0.004508
C33   C     C_R   0.484531 0.438139 0.948529 0.036184
C34   C     C_R   0.479573 0.436125 0.050194 0.035893
C35   C     C_R   0.292922 0.568955 0.948820 -0.198705
C36   C     C_R   0.699565 0.392950 0.050570 -0.203836
C37   C     C_R   0.296766 0.586001 0.898995 0.156238
C38   C     C_R   0.704787 0.405122 0.100569 0.169087
O11   O     O_2   0.311381 0.592179 0.795668 -0.526788
O12   O     O_2   0.697213 0.435527 0.203553 -0.529531
C39   C     C_R   0.256997 0.470257 0.049018 0.165431
C40   C     C_R   0.673502 0.299574 0.949060 0.154454
H3    H     H_    0.387447 0.311027 0.646700 0.203575
H4    H     H_    0.522093 0.271329 0.352281 0.206608
H5    H     H_    0.222464 0.624265 0.968674 0.163713
H6    H     H_    0.785251 0.383356 0.031130 0.162266
C41   C     C_R   0.063923 0.372078 0.499844 -0.168545
C42   C     C_R   0.936066 0.627953 0.500458 -0.174811
C43   C     C_R   0.936239 0.372045 0.499919 -0.168143
C44   C     C_R   0.063754 0.627986 0.500367 -0.170473
H7    H     H_    0.112025 0.272053 0.499599 0.150884
H8    H     H_    0.887956 0.727974 0.500720 0.150487
H9    H     H_    0.888267 0.272013 0.499734 0.150671
H10   H     H_    0.111730 0.728016 0.500544 0.151131
C45   C     C_R   0.871810 0.499979 0.500180 -0.021074
C46   C     C_R   0.128183 0.500048 0.500052 -0.020084
C47   C     C_R   0.417249 0.074638 0.472504 -0.012275
C48   C     C_R   0.582969 0.925376 0.527393 -0.021177
C49   C     C_R   0.582789 0.074341 0.527481 -0.010259
C50   C     C_R   0.417041 0.925685 0.472610 -0.017202
H11   H     H_    0.351094 0.131014 0.450456 0.123109
H12   H     H_    0.649532 0.869026 0.549242 0.119705
H13   H     H_    0.648965 0.130489 0.549516 0.124922
H14   H     H_    0.350379 0.869597 0.450820 0.116397
N3    N     N_R   0.500000 0.852070 0.500000 -0.158230
N4    N     N_R   0.500000 0.147930 0.500000 -0.161030
C51   C     C_3   0.459852 0.764260 0.345561 -0.742823
H15   H     H_    0.443887 0.844709 0.317151 0.250655
H16   H     H_    0.377922 0.765123 0.369343 0.217878
H17   H     H_    0.543613 0.796367 0.365928 0.249445
C52   C     C_3   0.637581 0.715990 0.651619 -0.794760
H18   H     H_    0.690772 0.775761 0.679089 0.231527
H19   H     H_    0.704336 0.673038 0.625224 0.220179
H20   H     H_    0.574086 0.791061 0.633467 0.246198
C53   C     C_3   0.137228 0.533722 0.123528 -0.744763
H21   H     H_    0.063120 0.562353 0.097779 0.209581
H22   H     H_    0.102582 0.446323 0.146282 0.267689
H23   H     H_    0.151917 0.630374 0.145233 0.257836
C54   C     C_3   0.800448 0.260537 0.874238 -0.716063
H24   H     H_    0.871066 0.219298 0.899473 0.210833
H25   H     H_    0.774665 0.173197 0.849653 0.264385
H26   H     H_    0.848077 0.346094 0.854441 0.253787
N5    N     N_R   0.365918 0.261432 0.740301 0.140241
O13   O     O_R   0.280455 0.196406 0.715881 -0.340023
O14   O     O_R   0.392710 0.216032 0.783278 -0.346378
N6    N     N_R   0.512911 0.213845 0.259458 0.136774
O15   O     O_R   0.569100 0.112746 0.282448 -0.366194
O16   O     O_R   0.457793 0.184884 0.218958 -0.351269
C55   C     C_3   0.195814 0.674467 0.876329 -0.722427
H27   H     H_    0.138478 0.608782 0.851923 0.264207
H28   H     H_    0.132297 0.719697 0.903501 0.194605
H29   H     H_    0.236778 0.764510 0.856555 0.264883
C56   C     C_3   0.830232 0.388576 0.123945 -0.752111
H30   H     H_    0.829547 0.298382 0.149369 0.274870
H31   H     H_    0.903434 0.365816 0.097297 0.192038
H32   H     H_    0.856540 0.487322 0.142691 0.259188
C57   C     C_3   0.137584 0.427744 0.023982 -0.887537
H33   H     H_    0.077440 0.520590 0.017573 0.224452
H34   H     H_    0.154585 0.373719 0.989256 0.247530
H35   H     H_    0.087247 0.350221 0.046435 0.239537
C58   C     C_3   0.739781 0.177198 0.973296 -0.863407
H36   H     H_    0.838056 0.203396 0.980330 0.223708
H37   H     H_    0.695220 0.146017 0.007544 0.247892
H38   H     H_    0.735110 0.082403 0.949975 0.245967

loop_
_geom_bond_atom_site_label_1
_geom_bond_atom_site_label_2
_geom_bond_distance
_ccdc_geom_bond_type
C52   H18   1.110837 S    
C41   C43   1.383453 A    
C30   C36   1.400268 A    
C13   C15   1.401869 A    
C10   N5    1.443396 S    
C54   H24   1.106382 S    
C35   H5    1.080620 S    
O3    C2    1.288966 A    
N1    C17   1.437713 S    
C54   H26   1.110040 S    
C32   C39   1.417306 A    
C31   C33   1.408532 A    
O5    C3    1.297820 A    
C55   H28   1.110972 S    
C19   C25   1.424453 A    
O1    C1    1.289305 A    
C42   H8    1.083307 S    
C21   C23   1.430109 A    
C10   C12   1.400658 A    
C1    C46   1.449822 S    
C58   H37   1.109721 S    
C25   C38   1.424904 A    
C29   C35   1.400265 A    
Cu1   N3    2.007917 S    
C42   C45   1.401176 A    
C14   C28   1.415425 A    
O7    Cu1   1.949274 S    
C4    C28   1.474683 S    
C56   H31   1.109373 S    
C31   C40   1.418144 A    
C24   C40   1.416149 A    
C44   C46   1.400987 A    
C51   H15   1.111053 S    
C24   C54   1.520646 S    
C11   H4    1.082902 S    
C12   H3    1.083551 S    
O3    Cu1   1.965094 S    
C6    N2    1.363326 A    
C57   H35   1.110121 S    
C32   C34   1.408194 A    
Cu1   Cu2   2.671904 S    
C15   H1    1.083932 S    
C16   H2    1.083723 S    
O2    C2    1.289357 A    
C5    C21   1.418900 A    
C36   C38   1.395427 A    
C2    C45   1.449754 S    
C55   H29   1.110263 S    
C41   H7    1.083298 S    
C48   C49   1.414833 A    
C23   C53   1.518646 S    
O8    Cu2   1.949274 S    
C56   H32   1.109975 S    
C11   C27   1.409595 A    
C53   H21   1.106368 S    
C39   C57   1.520820 S    
C19   C34   1.417816 A    
C43   C45   1.400944 A    
C40   C58   1.520694 S    
C38   C56   1.511389 S    
C35   C37   1.394971 A    
C9    C17   1.409185 A    
C5    N1    1.363327 A    
C10   C18   1.412608 A    
C53   H22   1.109909 S    
C13   C27   1.422322 A    
N5    O13   1.301723 A    
C7    C25   1.413676 A    
C29   C33   1.411926 A    
O6    C4    1.294482 A    
C8    C26   1.412588 A    
C14   C52   1.507431 S    
N6    O16   1.301179 A    
C51   H16   1.109631 S    
N2    C8    1.361384 A    
C52   H19   1.110668 S    
C47   C50   1.414723 A    
C20   C26   1.425343 A    
C58   H38   1.110921 S    
O1    Cu1   1.965395 S    
Cu2   N4    2.007918 S    
C48   N3    1.366448 A    
C47   N4    1.366413 A    
C12   C28   1.404347 A    
C57   H33   1.109792 S    
N2    C18   1.435937 S    
C29   C32   1.422177 A    
C5    O9    1.347496 S    
C30   C31   1.423617 A    
C20   C33   1.417409 A    
O6    Cu2   1.949671 S    
N5    O14   1.300834 A    
C50   H14   1.081093 S    
O4    C1    1.289053 A    
C50   N3    1.366404 A    
C7    O12   1.347681 S    
C54   H25   1.110168 S    
C49   N4    1.366476 A    
C8    O11   1.347735 S    
C55   H27   1.110018 S    
C30   C34   1.412214 A    
C22   C24   1.431574 A    
C15   C17   1.398197 A    
C36   H6    1.080513 S    
C58   H36   1.110048 S    
C6    C22   1.419600 A    
C53   H23   1.110030 S    
C16   C18   1.399403 A    
C44   H10   1.083303 S    
C43   H9    1.083302 S    
C14   C16   1.400751 A    
C19   C21   1.422148 A    
C3    C27   1.487809 S    
C20   C22   1.422880 A    
C9    C11   1.399274 A    
O4    Cu2   1.965094 S    
N6    O15   1.301828 A    
O2    Cu2   1.965395 S    
O7    C4    1.294881 A    
O8    C3    1.298533 A    
C13   C51   1.508354 S    
C9    N6    1.441621 S    
C37   C55   1.513124 S    
O5    Cu1   1.949671 S    
C51   H17   1.110101 S    
C41   C46   1.401164 A    
C6    O10   1.347297 S    
C26   C37   1.425323 A    
C48   H12   1.081414 S    
C52   H20   1.109542 S    
C47   H11   1.081719 S    
C57   H34   1.109732 S    
C56   H30   1.110020 S    
C49   H13   1.081707 S    
C23   C39   1.414777 A    
C42   C44   1.383505 A    
N1    C7    1.362231 A    
