data_mof_unit_52214.cif
_audit_creation_date              2012-12-11T16:22:26-0500
_audit_creation_method            fapswitch 2.2
_symmetry_space_group_name_H-M    P1
_symmetry_Int_Tables_number       1
_space_group_crystal_system       triclinic
_cell_length_a                    19.647398
_cell_length_b                    6.923688
_cell_length_c                    17.852862
_cell_angle_alpha                 89.617289
_cell_angle_beta                  108.062493
_cell_angle_gamma                 90.334892
_cell_volume                      2308.81640046

loop_
_atom_site_label
_atom_site_type_symbol
_atom_type_description
_atom_site_fract_x
_atom_site_fract_y
_atom_site_fract_z
_atom_type_partial_charge
O1    O     O_R   0.561700 0.369960 0.440190 -0.530803
O2    O     O_R   0.061700 0.630040 0.940190 -0.537149
O3    O     O_R   0.413790 0.033680 0.407460 -0.550108
O4    O     O_R   0.913790 0.966320 0.907460 -0.538515
O5    O     O_R   0.438300 0.869760 0.559810 -0.553489
O6    O     O_R   0.938300 0.130240 0.059810 -0.514453
C1    C     C_R   0.388498 0.203682 0.382334 0.739912
C2    C     C_R   0.887872 0.796793 0.883309 0.792862
O7    O     O_R   0.559630 0.039830 0.430710 -0.549020
O8    O     O_R   0.059630 0.960170 0.930710 -0.568673
O9    O     O_R   0.585190 0.875950 0.583220 -0.540329
O10   O     O_R   0.085190 0.124050 0.083220 -0.545377
C3    C     C_R   0.579877 0.209940 0.414666 0.662337
C4    C     C_R   0.080808 0.792617 0.914855 0.668801
O11   O     O_R   0.414810 0.363770 0.416780 -0.501094
O12   O     O_R   0.914810 0.636230 0.916780 -0.507251
O13   O     O_3   0.508210 0.205480 0.550010 -0.381848
O14   O     O_3   0.008210 0.794520 0.050010 -0.355977
V1    V     V_3+5 0.498480 0.928140 0.490720 1.470363
V2    V     V_3+5 0.998480 0.071860 0.990720 1.510626
O15   O     O_R   0.586210 0.546600 0.592540 -0.551315
O16   O     O_R   0.086210 0.453400 0.092540 -0.554340
C5    C     C_R   0.612398 0.715619 0.616403 0.748555
C6    C     C_R   0.112828 0.284156 0.115793 0.723767
O17   O     O_R   0.440370 0.540460 0.569290 -0.536274
O18   O     O_R   0.940370 0.459540 0.069290 -0.526112
C7    C     C_R   0.417189 0.708359 0.582157 0.680087
C8    C     C_R   0.917538 0.289488 0.083134 0.725925
V3    V     V_3+5 0.501520 0.428910 0.509280 1.493853
V4    V     V_3+5 0.001520 0.571090 0.009280 1.537443
O19   O     O_3   0.491790 0.701440 0.449990 -0.346764
O20   O     O_3   0.991790 0.298560 0.949990 -0.366014
C9    C     C_R   0.258040 0.840564 0.651384 -0.096080
C10   C     C_R   0.772312 0.112106 0.170748 -0.198708
H1    H     H_    0.209870 0.926473 0.631746 0.164952
H2    H     H_    0.738166 0.986766 0.167107 0.110425
C11   C     C_R   0.304422 0.838158 0.605125 -0.022503
C12   C     C_R   0.819524 0.115048 0.125657 0.014358
C13   C     C_R   0.365672 0.717160 0.627911 -0.120679
C14   C     C_R   0.866861 0.274992 0.130855 -0.089617
C15   C     C_R   0.378008 0.602639 0.696104 -0.139905
C16   C     C_R   0.863975 0.427123 0.181766 -0.143355
H3    H     H_    0.424410 0.509460 0.714642 0.120361
H4    H     H_    0.899170 0.550837 0.187782 0.168652
C17   C     C_R   0.332534 0.611899 0.742828 -0.122076
C18   C     C_R   0.816293 0.422206 0.226165 -0.131402
H5    H     H_    0.345858 0.527402 0.796585 0.110824
H6    H     H_    0.815381 0.543962 0.263545 0.118250
C19   C     C_R   0.272080 0.732288 0.721467 0.049517
C20   C     C_R   0.769910 0.264104 0.221561 0.086371
C21   C     C_R   0.212955 0.594410 0.817995 -0.086870
C22   C     C_R   0.738615 0.333406 0.345937 -0.123565
H7    H     H_    0.238622 0.456690 0.817680 0.106727
H8    H     H_    0.790114 0.402614 0.371210 0.120646
C23   C     C_R   0.167705 0.613495 0.864536 -0.112707
C24   C     C_R   0.692325 0.319306 0.391582 -0.144015
H9    H     H_    0.162148 0.491249 0.900266 0.103521
H10   H     H_    0.708906 0.380282 0.450253 0.114973
C25   C     C_R   0.130168 0.786007 0.865428 -0.119518
C26   C     C_R   0.626175 0.223559 0.363189 -0.112321
C27   C     C_R   0.140733 0.944018 0.818278 -0.023429
C28   C     C_R   0.605350 0.146071 0.286128 -0.026139
C29   C     C_R   0.188285 0.923667 0.774012 -0.123389
C30   C     C_R   0.652181 0.163658 0.240368 -0.106958
H11   H     H_    0.198364 0.048042 0.741840 0.139659
H12   H     H_    0.635337 0.108879 0.180754 0.151107
C31   C     C_R   0.223973 0.749416 0.771961 0.056505
C32   C     C_R   0.719510 0.254896 0.269780 0.050048
C33   C     C_2   0.708775 0.890638 0.716511 -0.184012
C34   C     C_2   0.214195 0.108266 0.207582 -0.187312
C35   C     C_2   0.675805 0.723558 0.687523 -0.345269
C36   C     C_2   0.176985 0.273457 0.185939 -0.322016
H13   H     H_    0.686599 0.026478 0.689032 0.156999
H14   H     H_    0.195177 0.977465 0.174098 0.153292
H15   H     H_    0.694961 0.588515 0.717893 0.145975
H16   H     H_    0.193194 0.402972 0.221101 0.152994
C37   C     C_2   0.770223 0.901504 0.790622 -0.089716
C38   C     C_2   0.276119 0.087624 0.280809 -0.091123
C39   C     C_2   0.828441 0.782885 0.807507 -0.202867
C40   C     C_2   0.329968 0.221082 0.305368 -0.187708
C41   C     C_1   0.765234 0.051296 0.844921 0.336850
N1    N     N_1   0.761208 0.171429 0.888108 -0.382720
C42   C     C_1   0.276828 0.908554 0.323360 0.374354
N2    N     N_1   0.276988 0.763979 0.356350 -0.347924
C43   C     C_2   0.838663 0.645991 0.747569 0.379528
H17   H     H_    0.806240 0.656174 0.686328 0.073428
O21   O     O_2   0.885245 0.522797 0.765531 -0.509808
C44   C     C_2   0.336509 0.381931 0.251482 0.383012
H18   H     H_    0.305947 0.379772 0.189475 0.066857
O22   O     O_2   0.378070 0.516212 0.274935 -0.509979
C45   C     C_2   0.286292 0.959121 0.532445 0.386766
H19   H     H_    0.316571 0.949054 0.491529 0.068719
O23   O     O_2   0.236544 0.073001 0.517048 -0.521200
C46   C     C_2   0.813972 0.950506 0.071800 0.358425
H20   H     H_    0.763429 0.921045 0.026861 0.053800
O24   O     O_2   0.863525 0.838263 0.080991 -0.522370
C47   C     C_2   0.103412 0.132441 0.811558 0.372105
H21   H     H_    0.093455 0.199563 0.861503 0.073397
O25   O     O_2   0.085086 0.219977 0.748897 -0.504822
C48   C     C_2   0.534047 0.053715 0.251488 0.403755
H22   H     H_    0.494316 0.056403 0.282158 0.047160
O26   O     O_2   0.518429 0.973911 0.187558 -0.521853

loop_
_geom_bond_atom_site_label_1
_geom_bond_atom_site_label_2
_ccdc_geom_bond_type
C12   C14   A    
C29   H11   S    
O11   V3    S    
C23   C25   A    
C34   C38   S    
O13   V3    S    
C33   C37   S    
O4    C2    A    
V1    O19   S    
C41   N1    T    
C13   C15   A    
C3    C26   S    
C43   H17   S    
C4    C25   S    
O9    V1    S    
C30   C32   A    
O3    C1    A    
C38   C40   D    
C8    C14   S    
O12   V4    S    
C26   C28   A    
C16   C18   A    
C17   H5    S    
C33   C35   D    
O7    C3    A    
C28   C30   A    
O13   V1    S    
O5    C7    A    
C38   C42   S    
O7    V1    S    
O6    C8    A    
O8    V2    S    
C34   H14   S    
C2    C39   S    
C33   H13   S    
O14   V4    S    
C17   C19   A    
V4    O20   S    
O16   V4    S    
C21   C23   A    
C22   C32   A    
C36   H16   S    
C43   O21   D    
C2    O12   A    
C15   H3    S    
O10   V2    S    
C16   H4    S    
O1    V3    S    
C47   O25   D    
C22   H8    S    
C47   H21   S    
C18   H6    S    
C37   C39   D    
O17   V3    S    
C29   C31   A    
C10   C20   A    
C25   C27   A    
C11   C45   S    
C5    C35   S    
O8    C4    A    
C7    C13   S    
C45   H19   S    
C1    O11   A    
O15   V3    S    
C9    C11   A    
C24   C26   A    
C21   H7    S    
C30   H12   S    
C46   O24   D    
C45   O23   D    
C42   N2    T    
C37   C41   S    
V3    O19   S    
C12   C46   S    
C48   O26   D    
C21   C31   A    
O3    V1    S    
C28   C48   S    
C44   O22   D    
O18   V4    S    
O15   C5    A    
O16   C6    A    
O1    C3    A    
C39   C43   S    
C6    C36   S    
V2    O20   S    
C18   C20   A    
C19   C31   S    
C10   C12   A    
C27   C29   A    
C27   C47   S    
C14   C16   A    
O5    V1    S    
O17   C7    A    
O6    V2    S    
O10   C6    A    
O18   C8    A    
O2    V4    S    
C23   H9    S    
C40   C44   S    
C35   H15   S    
C20   C32   S    
O9    C5    A    
C48   H22   S    
C9    H1    S    
C10   H2    S    
C24   H10   S    
O14   V2    S    
C46   H20   S    
O2    C4    A    
O4    V2    S    
C44   H18   S    
C11   C13   A    
C15   C17   A    
C34   C36   D    
C9    C19   A    
C22   C24   A    
C1    C40   S    
