data_mof_unit_28834.cif
_audit_creation_date              2012-12-11T17:43:38-0500
_audit_creation_method            fapswitch 2.2
_symmetry_space_group_name_H-M    P1
_symmetry_Int_Tables_number       1
_space_group_crystal_system       triclinic
_cell_length_a                    15.057407
_cell_length_b                    15.24877
_cell_length_c                    17.092938
_cell_angle_alpha                 108.372633
_cell_angle_beta                  106.313679
_cell_angle_gamma                 109.077658
_cell_volume                      3181.25348035

loop_
_atom_site_label
_atom_site_type_symbol
_atom_type_description
_atom_site_fract_x
_atom_site_fract_y
_atom_site_fract_z
_atom_type_partial_charge
C1    C     C_R   0.089157 0.276815 0.038294 0.504922
C2    C     C_R   0.083115 0.066496 0.958342 -0.145936
C3    C     C_R   0.003870 0.900669 0.956562 0.098605
C4    C     C_R   0.996564 0.080303 0.959675 0.094504
C5    C     C_R   0.090647 0.980001 0.962061 0.114052
C6    C     C_R   0.910335 0.001804 0.955569 0.080834
C7    C     C_R   0.723968 0.953323 0.874804 -0.174770
C8    C     C_R   0.272308 0.050495 0.073395 -0.148285
C9    C     C_R   0.634907 0.033001 0.948296 0.222687
C10   C     C_R   0.386886 0.979894 0.038440 0.230556
C11   C     C_R   0.526587 0.568200 0.357174 0.399816
C12   C     C_R   0.915883 0.713395 0.925056 0.419818
C13   C     C_R   0.483348 0.486153 0.737077 0.386293
C14   C     C_R   0.537302 0.599969 0.289722 -0.023107
C15   C     C_R   0.503561 0.491354 0.824667 -0.047610
C16   C     C_R   0.936480 0.508282 0.742728 -0.052195
C17   C     C_R   0.063207 0.547236 0.263759 -0.039131
C18   C     C_R   0.506346 0.524631 0.201049 -0.195201
C19   C     C_R   0.557132 0.589450 0.902286 -0.166765
C20   C     C_R   0.466958 0.418594 0.181226 0.450317
C21   C     C_R   0.590789 0.680604 0.891269 0.415612
C22   C     C_R   0.455763 0.388377 0.248211 -0.329256
C23   C     C_R   0.028027 0.561698 0.738409 0.050242
C24   C     C_R   0.568648 0.674161 0.804248 -0.350171
C25   C     C_R   0.484271 0.462151 0.335438 0.407062
C26   C     C_R   0.514620 0.578072 0.727478 0.460151
C27   C     C_R   0.606377 0.542019 0.112763 -0.215421
C28   C     C_R   0.507835 0.632336 0.027379 -0.204623
C29   C     C_R   0.619655 0.551453 0.037923 0.076514
C30   C     C_R   0.471733 0.595769 0.083375 0.042916
C31   C     C_R   0.568824 0.596761 0.993751 0.187352
C32   C     C_R   0.527716 0.556802 0.132533 0.207330
C33   C     C_R   0.634455 0.963829 0.871088 -0.219319
C34   C     C_R   0.971234 0.529431 0.273155 0.034530
C35   C     C_R   0.367799 0.048699 0.100165 -0.210227
C36   C     C_R   0.962381 0.571197 0.358875 0.111144
C37   C     C_R   0.035631 0.594481 0.667710 0.143890
C38   C     C_R   0.139768 0.672598 0.600108 0.179454
C39   C     C_R   0.857510 0.546280 0.441845 0.163987
C40   C     C_R   0.720485 0.219299 0.828170 -0.220192
C41   C     C_R   0.271258 0.788986 0.179608 -0.196714
C42   C     C_R   0.132902 0.647170 0.670305 -0.164116
C43   C     C_R   0.864931 0.538963 0.360781 -0.251367
C44   C     C_R   0.945065 0.572329 0.596572 -0.179264
C45   C     C_R   0.662560 0.220089 0.750887 -0.010386
C46   C     C_R   0.052601 0.630485 0.440846 -0.232096
C47   C     C_R   0.949410 0.586416 0.521021 0.083619
C48   C     C_R   0.047809 0.634081 0.521713 0.091260
C49   C     C_R   0.568162 0.129395 0.677594 0.055204
C50   C     C_R   0.389747 0.887216 0.346011 0.042851
C51   C     C_R   0.424579 0.063211 0.436716 0.499244
C52   C     C_R   0.506662 0.946594 0.587869 0.467330
C53   C     C_R   0.385504 0.979789 0.352192 -0.270807
C54   C     C_R   0.555291 0.031883 0.671704 -0.299845
C55   C     C_R   0.438914 0.881236 0.424557 -0.158011
C56   C     C_R   0.322845 0.791525 0.261594 -0.001697
C57   C     C_R   0.510390 0.135947 0.602185 -0.117684
C58   C     C_R   0.470158 0.959394 0.509290 -0.029771
C59   C     C_R   0.466084 0.053013 0.516156 -0.056928
C60   C     C_R   0.724376 0.085178 0.031604 -0.211290
C61   C     C_R   0.311058 0.917518 0.947509 -0.287875
C62   C     C_R   0.813881 0.073278 0.036179 0.510179
C63   C     C_R   0.215296 0.919916 0.920286 0.471109
C64   C     C_R   0.301543 0.596963 0.006855 -0.148745
C65   C     C_R   0.719715 0.446175 0.029508 -0.153698
C66   C     C_R   0.814885 0.009327 0.956583 -0.016766
C67   C     C_R   0.362296 0.569215 0.062214 0.030695
C68   C     C_R   0.194253 0.983650 0.984330 -0.045866
C69   C     C_R   0.723368 0.310966 0.749868 0.435637
C70   C     C_R   0.269924 0.693216 0.255103 0.384862
C71   C     C_R   0.296676 0.504005 0.083815 -0.009799
C72   C     C_R   0.739218 0.551660 0.962652 -0.073761
C73   C     C_R   0.109376 0.592995 0.820294 -0.088362
C74   C     C_R   0.890481 0.457552 0.188098 -0.091879
C75   C     C_R   0.918481 0.197501 0.946916 -0.197537
C76   C     C_R   0.087031 0.800454 0.012986 -0.174761
C77   C     C_R   0.003463 0.181071 0.975060 -0.055433
C78   C     C_R   0.688187 0.515869 0.009438 0.063756
C79   C     C_R   0.003367 0.808729 0.963973 -0.011113
C80   C     C_3   0.692149 0.757208 0.341280 -0.790378
C81   C     C_3   0.368344 0.362076 0.834540 -0.741499
C82   C     C_3   0.263746 0.840016 0.631310 -0.799893
C83   C     C_3   0.712197 0.392308 0.411184 -0.791392
C84   C     C_3   0.558538 0.152124 0.978893 -0.861889
C85   C     C_3   0.476203 0.875990 0.056867 -0.855314
C86   C     C_R   0.914836 0.912400 0.952190 -0.129180
Cl1   Cl    Cl    0.202980 0.296237 0.121134 -0.625158
Cl2   Cl    Cl    0.498899 0.827737 0.585435 -0.556875
Cl3   Cl    Cl    0.924104 0.141128 0.141691 -0.572702
Cl4   Cl    Cl    0.123062 0.844303 0.806119 -0.676283
Cl5   Cl    Cl    0.679058 0.372877 0.688444 -0.609295
Cl6   Cl    Cl    0.321103 0.630664 0.312233 -0.653727
Cl7   Cl    Cl    0.804756 0.665406 0.823918 -0.617081
Cl8   Cl    Cl    0.467212 0.418833 0.416458 -0.350336
Cl9   Cl    Cl    0.485424 0.575930 0.619795 -0.336688
Cl10  Cl    Cl    0.572396 0.661128 0.470137 -0.432676
Cl11  Cl    Cl    0.414707 0.365015 0.639141 -0.471354
Cl12  Cl    Cl    0.428000 0.320945 0.071947 -0.685370
Cl13  Cl    Cl    0.662464 0.804037 0.985897 -0.700950
Cl14  Cl    Cl    0.417914 0.177287 0.439063 -0.493729
H1    H     H_    0.723301 0.903187 0.813247 0.195617
H2    H     H_    0.204081 0.669689 0.726820 0.109142
H3    H     H_    0.858804 0.484841 0.696507 0.187236
H4    H     H_    0.140716 0.597863 0.316032 0.156417
H5    H     H_    0.565136 0.919428 0.807216 0.158363
H6    H     H_    0.425914 0.099055 0.169856 0.146522
H7    H     H_    0.508014 0.207620 0.609397 0.252907
H8    H     H_    0.451580 0.815071 0.420241 0.236480
H9    H     H_    0.593511 0.023034 0.730148 0.159496
H10   H     H_    0.347663 0.986526 0.291968 0.163481
H11   H     H_    0.724962 0.134882 0.093176 0.153017
H12   H     H_    0.257706 0.101446 0.123088 0.204177
H13   H     H_    0.326345 0.867491 0.897848 0.150092
H14   H     H_    0.693647 0.168307 0.857228 0.130399
H15   H     H_    0.295200 0.848045 0.157324 0.123584
H16   H     H_    0.326657 0.656453 0.985530 0.102039
H17   H     H_    0.686567 0.396519 0.057340 0.127191
H18   H     H_    0.318591 0.480147 0.135676 0.185919
H19   H     H_    0.737177 0.608834 0.939327 0.160223
H20   H     H_    0.189905 0.647759 0.846112 0.097477
H21   H     H_    0.809466 0.420215 0.172537 0.089356
H22   H     H_    0.840586 0.142007 0.896976 0.143033
H23   H     H_    0.424437 0.306835 0.232251 0.225238
H24   H     H_    0.167918 0.855470 0.048132 0.130218
H25   H     H_    0.850421 0.854581 0.952948 0.196970
H26   H     H_    0.148414 0.126798 0.960678 0.185292
H27   H     H_    0.556573 0.749633 0.352248 0.234914
H28   H     H_    0.718334 0.838584 0.351324 0.251865
H29   H     H_    0.714469 0.716526 0.289743 0.241912
H30   H     H_    0.732125 0.757792 0.407010 0.264978
H31   H     H_    0.480395 0.340475 0.794113 0.223633
H32   H     H_    0.352250 0.294274 0.849591 0.262960
H33   H     H_    0.307878 0.338021 0.766484 0.255629
H34   H     H_    0.592799 0.744137 0.795839 0.218556
H35   H     H_    0.364282 0.423507 0.887338 0.242898
H36   H     H_    0.299004 0.724586 0.646859 0.207380
H37   H     H_    0.340284 0.881169 0.632688 0.253730
H38   H     H_    0.267581 0.878399 0.700157 0.261415
H39   H     H_    0.204415 0.846341 0.580526 0.254926
H40   H     H_    0.706767 0.523779 0.405461 0.177112
H41   H     H_    0.639051 0.366313 0.419579 0.303164
H42   H     H_    0.766010 0.372172 0.452858 0.247850
H43   H     H_    0.694167 0.350376 0.338088 0.222871
H44   H     H_    0.480698 0.998698 0.879254 0.171777
H45   H     H_    0.651002 0.514333 0.151334 0.128288
H46   H     H_    0.481849 0.151308 0.967260 0.293695
H47   H     H_    0.594336 0.194198 0.944662 0.236696
H48   H     H_    0.607519 0.193860 0.053544 0.244442
H49   H     H_    0.539336 0.035779 0.130571 0.178404
H50   H     H_    0.555491 0.883059 0.085484 0.299877
H51   H     H_    0.436583 0.819413 0.983595 0.242681
H52   H     H_    0.433568 0.847253 0.094222 0.228131
H53   H     H_    0.471735 0.668279 0.992968 0.148073
H54   H     H_    0.127865 0.662587 0.440708 0.163212
H55   H     H_    0.870155 0.537284 0.596358 0.171064
H56   H     H_    0.794008 0.499949 0.298718 0.119347
N1    N     N_R   0.055660 0.348550 0.045620 -0.078077
N2    N     N_R   0.185200 0.638170 0.176300 -0.085659
N3    N     N_R   0.201680 0.494570 0.045620 -0.062946
N4    N     N_R   0.798320 0.505430 0.954380 -0.044568
N5    N     N_R   0.068420 0.560530 0.871650 -0.053754
N6    N     N_R   0.931580 0.439470 0.128350 -0.045421
N7    N     N_R   0.948070 0.295860 0.997670 -0.058562
N8    N     N_R   0.051930 0.704140 0.002330 -0.065093
N9    N     N_2   0.580647 0.707191 0.310748 -0.087693
N10   N     N_2   0.470315 0.398754 0.835374 -0.091901
N11   N     N_2   0.239212 0.732315 0.606930 -0.099697
N12   N     N_R   0.944340 0.651450 0.954380 -0.085059
N13   N     N_2   0.757581 0.503247 0.440715 -0.096305
N14   N     N_2   0.544074 0.046387 0.941772 -0.105027
N15   N     N_2   0.483489 0.976338 0.067633 -0.094655
N16   N     N_R   0.960830 0.507850 0.823700 -0.046569
N17   N     N_R   0.039170 0.492150 0.176300 -0.032538
N18   N     N_R   0.811290 0.303410 0.871650 -0.065715
N19   N     N_R   0.188710 0.696590 0.128350 -0.062393
N20   N     N_R   0.205200 0.552990 0.997670 -0.050698
N21   N     N_R   0.794800 0.447010 0.002330 -0.052623
N22   N     N_R   0.814800 0.361830 0.823700 -0.082774
Ni1   Ni    Ni4+2 0.119340 0.493420 0.109960 0.314524
Ni2   Ni    Ni4+2 0.880660 0.506580 0.890040 0.306271
Ni3   Ni    Ni4+2 0.872590 0.372590 0.000000 0.213948
Ni4   Ni    Ni4+2 0.127410 0.627410 0.000000 0.202833

loop_
_geom_bond_atom_site_label_1
_geom_bond_atom_site_label_2
_ccdc_geom_bond_type
C11   Cl10  S    
C1    Cl1   S    
C30   C32   A    
C12   C79   A    
H40   N13   S    
C64   H16   S    
C27   C29   A    
C75   H22   S    
C1    C77   A    
C14   C18   A    
C2    C4    A    
C76   C79   A    
C19   C31   S    
C22   H23   S    
N6    N17   A    
N20   Ni4   S    
C85   N15   S    
C83   H41   S    
C75   N7    A    
C19   C21   A    
C17   H4    S    
C23   C73   A    
C38   C42   A    
C82   H37   S    
C84   N14   S    
C8    H12   S    
C21   Cl13  S    
C11   C14   A    
C57   C59   A    
N7    Ni3   S    
N17   Ni1   S    
C49   C54   A    
C62   Cl3   S    
H44   N14   S    
C37   C42   A    
C49   C57   A    
C72   H19   S    
C60   C62   A    
N1    Ni1   S    
N5    Ni4   S    
C61   C63   A    
C85   H50   S    
N4    Ni2   S    
C72   C78   A    
N5    N16   A    
C53   H10   S    
C40   H14   S    
C29   C78   S    
H31   N10   S    
C17   N17   A    
C22   C25   A    
C73   N5    A    
C81   N10   S    
C15   N10   S    
C36   C46   A    
C10   C35   A    
C65   C78   A    
C64   N20   A    
N1    N7    A    
C67   C71   A    
C30   C67   S    
C44   C47   A    
C27   H45   S    
N16   Ni2   S    
C41   N19   A    
C3    C79   S    
C25   Cl8   S    
C73   H20   S    
C86   H25   S    
C9    C33   A    
C7    C33   A    
C9    N14   S    
C40   C45   A    
C41   H15   S    
C5    C68   S    
C42   H2    S    
N18   Ni3   S    
C52   C54   A    
C81   H35   S    
C82   N11   S    
C84   H48   S    
C38   N11   S    
C46   H54   S    
C46   C48   A    
C50   C53   A    
C80   H30   S    
C62   C66   A    
C45   C69   A    
C76   H24   S    
C64   C67   A    
C52   Cl2   S    
C33   H5    S    
N6    Ni3   S    
C4    C6    A    
N3    Ni1   S    
C74   N6    A    
C81   H32   S    
C39   C43   A    
C80   H28   S    
C58   C59   A    
N12   Ni2   S    
C50   C56   S    
C54   H9    S    
C51   C53   A    
C8    C35   A    
C15   C19   A    
N2    Ni1   S    
C85   H51   S    
C41   C56   A    
C82   H39   S    
C69   N22   A    
C16   N16   A    
C16   H3    S    
C47   C48   A    
C45   C49   S    
H27   N9    S    
C83   H43   S    
C20   Cl12  S    
C14   N9    S    
C75   C77   A    
C52   C58   A    
C34   C74   A    
N19   Ni4   S    
C2    H26   S    
N8    N12   A    
C57   H7    S    
C20   C22   A    
C8    C68   A    
C16   C23   A    
C56   C70   A    
N3    N20   A    
C13   C15   A    
C61   H13   S    
C28   H53   S    
C13   C26   A    
C76   N8    A    
C10   C61   A    
C51   C59   A    
C17   C34   A    
C21   C24   A    
C43   H56   S    
C80   N9    S    
C39   C47   A    
C84   H47   S    
C24   H34   S    
C26   Cl9   S    
N18   N22   A    
C63   C68   A    
C65   H17   S    
C80   H29   S    
C71   H18   S    
C27   C32   A    
H49   N15   S    
C44   H55   S    
C38   C48   A    
C28   C31   A    
C70   Cl6   S    
C24   C26   A    
C3    C5    A    
C6    C86   A    
C12   N12   A    
C83   H42   S    
N22   Ni2   S    
C81   H33   S    
H36   N11   S    
C84   H46   S    
C71   N3    A    
C50   C55   A    
C72   N4    A    
C55   H8    S    
C51   Cl14  S    
C9    C60   A    
C37   C44   A    
C1    N1    A    
C10   N15   S    
C85   H52   S    
C4    C77   S    
C29   C31   A    
C35   H6    S    
C23   C37   S    
C82   H38   S    
C7    C66   A    
C40   N18   A    
C65   N21   A    
N21   Ni3   S    
C83   N13   S    
C63   Cl4   S    
C28   C30   A    
C34   C36   S    
C18   C20   A    
C13   Cl11  S    
C12   Cl7   S    
N4    N21   A    
N8    Ni4   S    
C2    C5    A    
N2    N19   A    
C6    C66   S    
C74   H21   S    
C18   C32   S    
C39   N13   S    
C7    H1    S    
C55   C58   A    
C60   H11   S    
C11   C25   A    
C36   C43   A    
C70   N2    A    
C69   Cl5   S    
C3    C86   A    
