data_mof_unit_60642.cif
_audit_creation_date              2012-10-26T17:14:05-0400
_audit_creation_method            fapswitch 2.2
_symmetry_space_group_name_H-M    P1
_symmetry_Int_Tables_number       1
_space_group_crystal_system       triclinic
_cell_length_a                    19.011022
_cell_length_b                    19.069296
_cell_length_c                    18.77153
_cell_angle_alpha                 109.175933
_cell_angle_beta                  109.202343
_cell_angle_gamma                 109.684154
_cell_volume                      5261.11874214

loop_
_atom_site_label
_atom_site_type_symbol
_atom_type_description
_atom_site_fract_x
_atom_site_fract_y
_atom_site_fract_z
_atom_type_partial_charge
C1    C     C_R   0.384498 0.383076 0.502616 0.553374
C2    C     C_R   0.598547 0.342563 0.616114 -0.088929
C3    C     C_2   0.257074 0.183635 0.507277 -0.157355
C4    C     C_R   0.617956 0.500409 0.618372 0.529361
C5    C     C_2   0.180470 0.177630 0.490615 -0.110995
C6    C     C_2   0.318132 0.244520 0.495490 -0.159885
C7    C     C_2   0.322565 0.319939 0.509994 -0.108998
C8    C     C_2   0.179058 0.502599 0.255846 0.210649
C9    C     C_2   0.183229 0.506896 0.187024 -0.079582
C10   C     C_2   0.253527 0.514052 0.326733 -0.121989
C11   C     C_2   0.308021 0.489386 0.312110 -0.151297
C12   C     C_R   0.757572 0.579730 0.754806 0.008596
C13   C     C_2   0.743469 0.816708 0.493627 -0.158367
C14   C     C_2   0.819685 0.822175 0.509270 -0.111491
C15   C     C_2   0.682676 0.755853 0.505643 -0.159230
C16   C     C_R   0.615708 0.616940 0.497592 0.551794
C17   C     C_2   0.677742 0.680114 0.490342 -0.116211
C18   C     C_R   0.996203 0.383065 0.878074 0.546066
C19   C     C_R   0.879093 0.500290 0.878905 0.524673
C20   C     C_R   0.997692 0.616970 0.115750 0.559516
C21   C     C_R   0.114994 0.502140 0.117220 0.589945
C22   C     C_R   0.997981 0.115544 0.617378 0.556000
C23   C     C_R   0.812932 0.500698 0.812483 -0.017209
C24   C     C_R   0.116991 0.115583 0.497634 0.556012
C25   C     C_R   0.001784 0.884296 0.382575 0.557587
C26   C     C_R   0.883038 0.884358 0.502312 0.557033
C27   C     C_2   0.925432 0.182960 0.675370 -0.155362
C28   C     C_R   0.379820 0.497483 0.381224 0.563689
C29   C     C_2   0.996329 0.177472 0.686345 -0.111015
C30   C     C_2   0.924887 0.243925 0.747634 -0.158486
C31   C     C_2   0.995512 0.319825 0.808107 -0.110479
C32   C     C_2   0.072342 0.815177 0.322541 -0.150961
C33   C     C_2   0.002310 0.821853 0.313073 -0.111071
C34   C     C_R   0.743164 0.421854 0.739321 0.010990
C35   C     C_2   0.071352 0.754525 0.248670 -0.146174
C36   C     C_2   0.999513 0.680066 0.186800 -0.099674
C37   C     C_R   0.772069 0.659222 0.758573 -0.090968
C38   C     C_R   0.839379 0.736431 0.831815 -0.117462
C39   C     C_R   0.893523 0.736350 0.902532 -0.117792
C40   C     C_R   0.883495 0.659062 0.898323 -0.091398
C41   C     C_R   0.818445 0.579653 0.822441 0.008957
C42   C     C_R   0.674714 0.421944 0.679985 0.010887
C43   C     C_R   0.684122 0.500831 0.685622 -0.017808
C44   C     C_R   0.739592 0.342350 0.723733 -0.088860
C45   C     C_R   0.665941 0.265134 0.657348 -0.118371
C46   C     C_R   0.594617 0.265245 0.605247 -0.118497
Cl1   Cl    Cl    0.090110 0.493993 0.270612 -0.566898
Cu1   Cu    Cu3+1 0.500390 0.438990 0.439360 0.948333
Cu2   Cu    Cu3+1 0.499610 0.561010 0.560640 0.944028
Cu3   Cu    Cu3+1 0.935830 0.439030 0.996840 1.005340
Cu4   Cu    Cu3+1 0.057850 0.561040 0.996790 0.941742
Cu5   Cu    Cu3+1 0.061410 0.000010 0.561410 0.952768
Cu6   Cu    Cu3+1 0.938590 0.999990 0.438590 0.953046
H1    H     H_    0.536432 0.205234 0.555342 0.109157
H2    H     H_    0.638501 0.771627 0.522594 0.148232
H3    H     H_    0.732536 0.663166 0.705217 0.142572
H4    H     H_    0.715258 0.660350 0.464261 0.113594
H5    H     H_    0.865731 0.139187 0.614101 0.144725
H6    H     H_    0.053283 0.214654 0.750089 0.110062
H7    H     H_    0.864664 0.228138 0.748253 0.136396
H8    H     H_    0.053030 0.339577 0.802178 0.111889
H9    H     H_    0.132454 0.857995 0.383528 0.147913
H10   H     H_    0.945075 0.785733 0.249655 0.107112
H11   H     H_    0.131357 0.769303 0.247776 0.148300
H12   H     H_    0.160303 0.214383 0.463681 0.115813
H13   H     H_    0.941943 0.660772 0.192651 0.114187
H14   H     H_    0.848751 0.796536 0.834126 0.117836
H15   H     H_    0.944293 0.796390 0.960450 0.117346
H16   H     H_    0.926900 0.662855 0.955563 0.141246
H17   H     H_    0.793456 0.338520 0.761751 0.132812
H18   H     H_    0.663834 0.205031 0.647194 0.109386
H19   H     H_    0.540958 0.338945 0.574337 0.133117
H20   H     H_    0.273441 0.140272 0.525148 0.144729
H21   H     H_    0.362817 0.229048 0.479326 0.135938
H22   H     H_    0.284593 0.339497 0.535462 0.114241
H23   H     H_    0.243161 0.523442 0.185739 0.059569
H24   H     H_    0.261127 0.539514 0.391405 0.178535
H25   H     H_    0.296214 0.456289 0.246455 0.103937
H26   H     H_    0.727315 0.860537 0.476532 0.145326
H27   H     H_    0.839781 0.785008 0.535566 0.111114
O1    O     O_R   0.411310 0.359450 0.448800 -0.509766
O2    O     O_R   0.947570 0.089010 0.536620 -0.504197
O3    O     O_R   0.140880 0.089030 0.551840 -0.505787
O4    O     O_R   0.410660 0.462490 0.551220 -0.502809
O5    O     O_R   0.037150 0.089020 0.448130 -0.503166
O6    O     O_R   0.052430 0.910990 0.463380 -0.502178
O7    O     O_R   0.948700 0.910980 0.359670 -0.506637
O8    O     O_R   0.962850 0.910980 0.551870 -0.504620
O9    O     O_R   0.859120 0.910970 0.448160 -0.505466
O10   O     O_R   0.589930 0.448490 0.538390 -0.514376
O11   O     O_R   0.589280 0.551530 0.640800 -0.515166
O12   O     O_R   0.048900 0.462510 0.908320 -0.506396
O13   O     O_R   0.589340 0.537510 0.448780 -0.501661
O14   O     O_R   0.588690 0.640550 0.551200 -0.512168
O15   O     O_R   0.410720 0.448470 0.359200 -0.499814
O16   O     O_R   0.410070 0.551510 0.461610 -0.504250
O17   O     O_R   0.945860 0.359480 0.908360 -0.513922
O18   O     O_R   0.855710 0.448510 0.907250 -0.520540
O19   O     O_R   0.958760 0.551540 0.907200 -0.516077
O20   O     O_R   0.944780 0.537560 0.085320 -0.483822
O21   O     O_R   0.047820 0.640590 0.085270 -0.519910
O22   O     O_R   0.034920 0.448530 0.086440 -0.443577
O23   O     O_R   0.137970 0.551560 0.086390 -0.520181
O24   O     O_R   0.051300 0.089020 0.640330 -0.506170

loop_
_geom_bond_atom_site_label_1
_geom_bond_atom_site_label_2
_ccdc_geom_bond_type
C13   H26   S    
Cu1   O15   S    
C27   C29   D    
C39   H15   S    
C31   H8    S    
C35   C36   D    
C34   C42   A    
C3    C6    S    
C45   C46   A    
C2    C46   A    
C26   O9    A    
C16   O13   A    
C12   C41   A    
C28   O15   A    
C22   O2    A    
Cu2   O4    S    
C22   C29   S    
C24   O3    A    
C12   C43   A    
C38   C39   A    
C36   H13   S    
C45   H18   S    
C1    O1    A    
C25   O7    A    
C22   O24   A    
Cu1   O1    S    
C12   C37   A    
C37   H3    S    
C10   H24   S    
Cu5   O24   S    
C29   H6    S    
C8    C9    D    
C30   H7    S    
C44   H17   S    
C35   H11   S    
C9    H23   S    
C14   H27   S    
Cu2   O14   S    
C24   O5    A    
C4    O11   A    
Cu1   O10   S    
C13   C14   D    
C27   C30   S    
Cu2   O11   S    
C2    H19   S    
C21   O23   A    
C19   O18   A    
C6    H21   S    
C4    O10   A    
Cu4   O19   S    
Cu3   O18   S    
C40   H16   S    
C32   C35   S    
Cu5   O8    S    
C34   C44   A    
C5    H12   S    
Cu1   O13   S    
C39   C40   A    
C19   O19   A    
C16   C17   S    
C7    H22   S    
C20   O21   A    
Cu6   O2    S    
C1    O4    A    
C15   H2    S    
Cu5   O3    S    
C19   C23   S    
C37   C38   A    
C11   H25   S    
Cu4   O12   S    
C20   O20   A    
C33   H10   S    
C23   C34   A    
C46   H1    S    
Cu3   Cu4   S    
Cu6   O7    S    
Cu5   Cu6   S    
C14   C26   S    
C21   O22   A    
C26   O8    A    
Cu1   Cu2   S    
C18   O17   A    
Cu3   O22   S    
C13   C15   S    
Cu6   O9    S    
C42   C43   A    
C44   C45   A    
C15   C17   D    
C40   C41   A    
Cu3   O17   S    
C1    C7    S    
C16   O14   A    
C3    C5    D    
C27   H5    S    
C6    C7    D    
C4    C43   S    
Cu4   O21   S    
Cu3   O20   S    
C23   C41   A    
C28   O16   A    
C18   O12   A    
C32   C33   D    
Cu5   O6    S    
C8    Cl1   S    
C32   H9    S    
C9    C21   S    
C30   C31   D    
C5    C24   S    
C11   C28   S    
C2    C42   A    
C25   O6    A    
Cu2   O16   S    
C3    H20   S    
C10   C11   D    
C20   C36   S    
C38   H14   S    
C8    C10   S    
C17   H4    S    
Cu6   O5    S    
C18   C31   S    
Cu4   O23   S    
C25   C33   S    
