data_mof_unit_43476.cif
_audit_creation_date              2012-10-26T19:41:53-0400
_audit_creation_method            fapswitch 2.2
_symmetry_space_group_name_H-M    P1
_symmetry_Int_Tables_number       1
_space_group_crystal_system       triclinic
_cell_length_a                    10.643005
_cell_length_b                    10.811565
_cell_length_c                    9.68215
_cell_angle_alpha                 88.851868
_cell_angle_beta                  89.153498
_cell_angle_gamma                 94.375893
_cell_volume                      1110.48197248

loop_
_atom_site_label
_atom_site_type_symbol
_atom_type_description
_atom_site_fract_x
_atom_site_fract_y
_atom_site_fract_z
_atom_type_partial_charge
Br1   Br    Br    0.748105 0.724021 0.230538 -0.444475
Br2   Br    Br    0.740550 0.732994 0.750947 -0.494223
Br3   Br    Br    0.910757 0.447812 0.179160 -0.368810
Br4   Br    Br    0.081381 0.230005 0.384709 -0.431472
Br5   Br    Br    0.240451 0.249023 0.705114 -0.515631
C1    C     C_R   0.483746 0.262464 0.502441 0.575394
C2    C     C_R   0.374038 0.047650 0.570607 0.037276
C3    C     C_R   0.475457 0.126779 0.507935 0.016213
C4    C     C_R   0.259773 0.498493 0.500375 0.576815
C5    C     C_R   0.577205 0.075033 0.443813 -0.150250
C6    C     C_R   0.583968 0.948415 0.441157 -0.136302
C7    C     C_R   0.486555 0.869538 0.497106 0.015050
C8    C     C_R   0.591720 0.716300 0.134721 0.209353
C9    C     C_R   0.575992 0.828929 0.067419 -0.145190
C10   C     C_R   0.572692 0.830588 0.924590 -0.139664
C11   C     C_R   0.587386 0.719774 0.857340 0.214265
C12   C     C_3   0.961171 0.478138 0.368194 0.211939
C13   C     C_R   0.544343 0.605982 0.923667 0.150709
C14   C     C_R   0.545829 0.605066 0.071744 0.155576
C15   C     C_R   0.460633 0.398095 0.076555 0.024594
C16   C     C_R   0.500632 0.737161 0.498662 0.557597
C17   C     C_R   0.463052 0.397527 0.929656 0.025922
C18   C     C_R   0.740212 0.498506 0.498742 0.599719
C19   C     C_3   0.039397 0.515140 0.627055 -0.127294
C20   C     C_3   0.948697 0.404929 0.581232 -0.108601
C21   C     C_3   0.877263 0.496775 0.495069 0.020853
C22   C     C_3   0.966384 0.606541 0.540050 -0.149040
C23   C     C_3   0.034110 0.387419 0.453854 0.193084
C24   C     C_3   0.051809 0.587631 0.412815 -0.136840
C25   C     C_3   0.122881 0.496411 0.499794 0.009173
C26   C     C_R   0.266649 0.087799 0.643989 0.181136
C27   C     C_R   0.168398 0.002813 0.689615 -0.038030
C28   C     C_R   0.172923 0.877620 0.668555 -0.138945
C29   C     C_R   0.276923 0.834788 0.603717 -0.115649
C30   C     C_R   0.379267 0.916959 0.557238 -0.000537
Cu1   Cu    Cu3+1 0.499990 0.499990 0.640660 1.037025
Cu2   Cu    Cu3+1 0.500010 0.500010 0.359340 1.050186
H1    H     H_    0.904665 0.329592 0.649628 0.164917
H2    H     H_    0.654760 0.133840 0.398294 0.155320
H3    H     H_    0.087380 0.033809 0.744355 0.176667
H4    H     H_    0.426918 0.314308 0.132525 0.146961
H5    H     H_    0.096138 0.662588 0.344097 0.163391
H6    H     H_    0.096507 0.813127 0.705457 0.143420
H7    H     H_    0.275507 0.736182 0.589776 0.131228
H8    H     H_    0.667198 0.912264 0.397406 0.180116
H9    H     H_    0.599416 0.915502 0.118898 0.154014
H10   H     H_    0.593334 0.918543 0.870244 0.160757
H11   H     H_    0.435323 0.312164 0.879318 0.165707
H12   H     H_    0.073553 0.530908 0.733521 0.184272
H13   H     H_    0.939519 0.699174 0.570040 0.187443
N1    N     N_R   0.501210 0.501210 0.147910 -0.241188
N2    N     N_R   0.501250 0.501290 0.852040 -0.238058
O1    O     O_R   0.499990 0.319640 0.618810 -0.488533
O2    O     O_R   0.500000 0.319660 0.381240 -0.508485
O3    O     O_R   0.316850 0.499960 0.618770 -0.479561
O4    O     O_R   0.316860 0.499980 0.381190 -0.488086
O5    O     O_R   0.500000 0.680340 0.618760 -0.494802
O6    O     O_R   0.500010 0.680360 0.381190 -0.500975
O7    O     O_R   0.683140 0.500020 0.618810 -0.461881
O8    O     O_R   0.683150 0.500040 0.381230 -0.433570

loop_
_geom_bond_atom_site_label_1
_geom_bond_atom_site_label_2
_ccdc_geom_bond_type
C17   H11   S    
C6    C7    A    
C19   C22   S    
C16   O5    A    
C24   C25   S    
C4    O3    A    
C20   H1    S    
C22   C24   S    
Br2   C11   S    
C26   C27   A    
Cu1   N2    S    
C22   H13   S    
C10   H10   S    
Cu1   O7    S    
C27   C28   A    
C23   C25   S    
C15   H4    S    
C13   N2    A    
C2    C3    A    
C9    H9    S    
C4    O4    A    
C8    C9    A    
C7    C30   A    
C18   O7    A    
C12   C23   S    
C21   C22   S    
C4    C25   S    
C1    O2    A    
Cu2   N1    S    
C12   C21   S    
C17   N2    A    
Cu1   Cu2   S    
Br4   C23   S    
C2    C26   A    
C28   C29   A    
Br3   C12   S    
C15   N1    A    
C27   H3    S    
C18   O8    A    
C24   H5    S    
C19   C25   S    
C6    H8    S    
Cu2   O8    S    
Br1   C8    S    
C5    C6    A    
Cu2   O2    S    
C1    O1    A    
C10   C11   A    
C28   H6    S    
C14   N1    A    
C16   O6    A    
C12   C24   S    
C19   C20   S    
Cu1   O5    S    
C3    C5    A    
C29   C30   A    
C18   C21   S    
C19   H12   S    
Cu1   O3    S    
C29   H7    S    
C8    C14   A    
C9    C10   A    
C13   C14   A    
C1    C3    S    
Cu1   O1    S    
Br5   C26   S    
C20   C21   S    
Cu2   O4    S    
C2    C30   A    
C7    C16   S    
C11   C13   A    
Cu2   O6    S    
C15   C17   A    
C5    H2    S    
C20   C23   S    
