data_mof_unit_10151.cif
_audit_creation_date              2012-12-11T15:26:07-0500
_audit_creation_method            fapswitch 2.2
_symmetry_space_group_name_H-M    P1
_symmetry_Int_Tables_number       1
_space_group_crystal_system       triclinic
_cell_length_a                    24.923068
_cell_length_b                    17.221326
_cell_length_c                    15.68051
_cell_angle_alpha                 89.962666
_cell_angle_beta                  50.102325
_cell_angle_gamma                 89.97746
_cell_volume                      5163.35259784

loop_
_atom_site_label
_atom_site_type_symbol
_atom_type_description
_atom_site_fract_x
_atom_site_fract_y
_atom_site_fract_z
_atom_type_partial_charge
C1    C     C_R   0.333667 0.107924 0.801456 -0.120984
C2    C     C_2   0.306050 0.847053 0.980517 -0.209586
C3    C     C_3   0.612714 0.361485 0.596732 -0.220098
C4    C     C_3   0.088648 0.130169 0.627309 -0.237164
C5    C     C_3   0.885007 0.829535 0.395426 -0.221803
C6    C     C_3   0.904515 0.128860 0.408504 -0.246611
C7    C     C_3   0.113092 0.830579 0.608942 -0.218331
C8    C     C_2   0.306473 0.154443 0.978589 -0.202174
C9    C     C_2   0.693543 0.846245 0.020117 -0.209676
C10   C     C_2   0.142696 0.756387 0.147219 -0.211709
C11   C     C_2   0.807232 0.344599 0.978610 -0.208432
C12   C     C_2   0.857076 0.756200 0.852761 -0.211629
C13   C     C_2   0.151368 0.254420 0.125508 -0.230600
C14   C     C_2   0.694490 0.293962 0.131330 -0.101446
C15   C     C_2   0.236548 0.848886 0.040957 -0.097434
C16   C     C_2   0.237206 0.153137 0.037736 -0.117515
C17   C     C_R   0.666233 0.891723 0.198095 -0.074157
C18   C     C_2   0.763057 0.848341 0.959369 -0.095888
C19   C     C_2   0.193211 0.796516 0.135135 -0.099362
C20   C     C_2   0.737786 0.347753 0.039491 -0.096907
C21   C     C_2   0.806402 0.796162 0.865093 -0.099199
C22   C     C_2   0.194906 0.209366 0.125999 -0.090441
C23   C     C_R   0.600399 0.127805 0.595225 -0.220894
C24   C     C_R   0.411803 0.856847 0.407023 -0.260727
C25   C     C_R   0.397710 0.128099 0.407372 -0.236616
C26   C     C_R   0.587740 0.856610 0.593245 -0.263966
C27   C     C_R   0.108761 0.614354 0.593722 -0.233561
C28   C     C_R   0.651845 0.138526 0.234854 -0.146130
C29   C     C_R   0.905237 0.362504 0.407314 -0.277115
C30   C     C_R   0.890747 0.613332 0.406321 -0.234007
C31   C     C_R   0.091325 0.360865 0.594892 -0.253688
C32   C     C_R   0.679138 0.124570 0.408125 0.572778
C33   C     C_R   0.334174 0.859090 0.592305 0.606308
C34   C     C_R   0.324307 0.129949 0.593925 0.580426
C35   C     C_R   0.665188 0.858470 0.408078 0.603691
C36   C     C_R   0.183955 0.615499 0.407524 0.577452
C37   C     C_R   0.831533 0.361465 0.592301 0.608080
C38   C     C_R   0.815504 0.614201 0.592430 0.583830
C39   C     C_R   0.333661 0.891975 0.802054 -0.082273
C40   C     C_R   0.170630 0.363600 0.409772 0.560471
C41   C     C_R   0.562303 0.138390 0.234292 -0.111905
C42   C     C_R   0.422811 0.892155 0.802284 -0.135738
C43   C     C_R   0.423192 0.108851 0.801367 -0.125243
C44   C     C_R   0.576987 0.891802 0.198076 -0.135572
C45   C     C_R   0.059557 0.641104 0.240626 -0.118880
C46   C     C_R   0.923442 0.391079 0.801286 -0.132338
C47   C     C_R   0.940263 0.641020 0.759560 -0.117923
C48   C     C_R   0.065327 0.365847 0.226575 -0.109868
C49   C     C_R   0.353264 0.127523 0.863524 0.119620
C50   C     C_R   0.850479 0.641174 0.759230 -0.132066
C51   C     C_R   0.646735 0.872508 0.135849 0.120094
C52   C     C_R   0.620843 0.179462 0.200630 0.133876
C53   C     C_R   0.353001 0.873068 0.864608 0.123148
C54   C     C_R   0.882510 0.683099 0.791063 0.131741
C55   C     C_R   0.124762 0.325944 0.189979 0.140331
C56   C     C_R   0.117330 0.683201 0.208904 0.129873
C57   C     C_R   0.853875 0.371332 0.863233 0.119944
C58   C     C_R   0.661697 0.158465 0.503334 0.034550
C59   C     C_R   0.358777 0.815553 0.499804 0.044138
C60   C     C_R   0.339457 0.162908 0.500421 0.033104
C61   C     C_R   0.154449 0.364976 0.227460 -0.157946
C62   C     C_R   0.640383 0.814914 0.500731 0.045619
C63   C     C_R   0.173057 0.638785 0.501853 0.030941
C64   C     C_R   0.852183 0.321773 0.499767 0.045625
C65   C     C_R   0.826013 0.636749 0.498151 0.030475
C66   C     C_R   0.147197 0.322351 0.503259 0.065155
C67   C     C_R   0.240008 0.160297 0.508968 -0.385529
C68   C     C_R   0.734222 0.803903 0.504118 -0.399559
C69   C     C_R   0.753070 0.157751 0.514662 -0.396428
C70   C     C_R   0.264244 0.805348 0.498134 -0.396244
C71   C     C_R   0.731321 0.641932 0.492256 -0.411288
C72   C     C_R   0.149497 0.641194 0.240485 -0.130304
C73   C     C_R   0.244175 0.322545 0.499622 -0.378179
C74   C     C_R   0.268332 0.643226 0.506115 -0.413617
C75   C     C_R   0.757690 0.319783 0.497662 -0.412598
C76   C     C_R   0.682259 0.685643 0.498057 0.660064
C77   C     C_R   0.295307 0.283726 0.491826 0.620494
C78   C     C_R   0.317475 0.686645 0.500370 0.658072
C79   C     C_R   0.706580 0.280427 0.506036 0.627856
C80   C     C_R   0.189340 0.199320 0.514875 0.641061
C81   C     C_R   0.783719 0.760885 0.495893 0.621969
C82   C     C_R   0.803535 0.197500 0.508295 0.659652
C83   C     C_R   0.834129 0.390753 0.801356 -0.078082
C84   C     C_R   0.214756 0.762578 0.506149 0.621792
C85   C     C_R   0.685220 0.766384 0.502723 -0.065283
C86   C     C_R   0.291332 0.203093 0.499018 -0.094025
C87   C     C_R   0.313787 0.767443 0.497902 -0.064750
C88   C     C_R   0.706981 0.199681 0.510267 -0.094786
C89   C     C_R   0.193380 0.280010 0.507705 -0.069684
C90   C     C_R   0.780085 0.680181 0.493674 -0.092108
C91   C     C_R   0.804595 0.278158 0.500394 -0.066945
C92   C     C_R   0.218978 0.681863 0.506469 -0.091119
C93   C     C_3   0.782480 0.185979 0.264958 -0.333239
C94   C     C_2   0.646869 0.251924 0.137758 -0.209099
C95   C     C_3   0.229696 0.918769 0.725927 -0.292949
C96   C     C_3   0.237564 0.205369 0.740773 -0.281532
C97   C     C_3   0.770555 0.916117 0.273784 -0.276375
C98   C     C_3   0.287484 0.675119 0.262484 -0.341054
C99   C     C_3   0.728140 0.420652 0.730089 -0.264542
C100  C     C_3   0.711130 0.671818 0.738168 -0.340457
C101  C     C_3   0.268758 0.431792 0.270564 -0.231717
C102  C     C_3   0.582266 0.614775 0.595059 -0.239088
C103  C     C_3   0.395149 0.354515 0.379196 -0.222425
C104  C     C_3   0.416707 0.614080 0.402047 -0.232864
H1    H     H_    0.281202 0.103818 0.830652 0.144862
H2    H     H_    0.437509 0.843575 0.321210 0.137639
H3    H     H_    0.416067 0.131683 0.323616 0.131350
H4    H     H_    0.561906 0.843333 0.679124 0.138262
H5    H     H_    0.088027 0.615627 0.678996 0.130267
H6    H     H_    0.923471 0.355349 0.324145 0.134373
H7    H     H_    0.911613 0.614611 0.320971 0.130692
H8    H     H_    0.066476 0.350184 0.681021 0.132260
H9    H     H_    0.529121 0.152594 0.214859 0.092332
H10   H     H_    0.451287 0.895009 0.832760 0.092047
H11   H     H_    0.452047 0.107209 0.831237 0.093211
H12   H     H_    0.718844 0.894588 0.168122 0.135451
H13   H     H_    0.548432 0.894471 0.167724 0.093330
H14   H     H_    0.024188 0.656849 0.225939 0.095458
H15   H     H_    0.952045 0.393579 0.831550 0.092552
H16   H     H_    0.975451 0.656725 0.774601 0.095029
H17   H     H_    0.034484 0.354655 0.201966 0.085281
H18   H     H_    0.239496 0.097379 0.512447 0.170197
H19   H     H_    0.734421 0.866629 0.510114 0.165060
H20   H     H_    0.750869 0.094878 0.519821 0.175203
H21   H     H_    0.263695 0.868142 0.493390 0.164386
H22   H     H_    0.731064 0.579113 0.488145 0.172700
H23   H     H_    0.701197 0.150696 0.213839 0.153280
H24   H     H_    0.244523 0.385516 0.497420 0.161929
H25   H     H_    0.268900 0.580357 0.508910 0.172987
H26   H     H_    0.761034 0.382492 0.489188 0.163525
H27   H     H_    0.212792 0.877179 0.010601 0.122461
H28   H     H_    0.710342 0.278937 0.179559 0.130060
H29   H     H_    0.786903 0.876803 0.989427 0.124288
H30   H     H_    0.213519 0.123669 0.008075 0.123773
H31   H     H_    0.714031 0.377770 0.010255 0.124630
H32   H     H_    0.211054 0.780598 0.180299 0.129212
H33   H     H_    0.208282 0.222775 0.178080 0.156480
H34   H     H_    0.281093 0.894893 0.831820 0.135840
H35   H     H_    0.788454 0.780216 0.820111 0.129593
H36   H     H_    0.328914 0.818217 0.012261 0.127351
H37   H     H_    0.631642 0.267171 0.088588 0.135992
H38   H     H_    0.670592 0.817221 0.988674 0.127756
H39   H     H_    0.329199 0.184836 0.009506 0.140386
H40   H     H_    0.830058 0.313996 0.009265 0.127286
H41   H     H_    0.125499 0.772665 0.101105 0.134390
H42   H     H_    0.138472 0.240867 0.072780 0.126993
H43   H     H_    0.874331 0.772503 0.898762 0.134298
H44   H     H_    0.814342 0.193329 0.291026 0.169333
H45   H     H_    0.802551 0.655053 0.776163 0.148570
H46   H     H_    0.748135 0.237352 0.289302 0.158521
H47   H     H_    0.819500 0.183615 0.172814 0.167037
H48   H     H_    0.224147 0.934733 0.663150 0.140112
H49   H     H_    0.253013 0.967920 0.738241 0.165627
H50   H     H_    0.176419 0.908787 0.805979 0.170552
H51   H     H_    0.206183 0.227573 0.718480 0.160112
H52   H     H_    0.281110 0.246082 0.711891 0.163626
H53   H     H_    0.202442 0.203967 0.832878 0.156736
H54   H     H_    0.775882 0.931795 0.336886 0.142900
H55   H     H_    0.748377 0.965739 0.260050 0.176454
H56   H     H_    0.205352 0.354233 0.201390 0.165215
H57   H     H_    0.823828 0.904982 0.194318 0.168499
H58   H     H_    0.320703 0.676820 0.286572 0.169044
H59   H     H_    0.254961 0.728575 0.290077 0.163752
H60   H     H_    0.323368 0.674744 0.170321 0.170542
H61   H     H_    0.674272 0.409026 0.807920 0.167894
H62   H     H_    0.724247 0.440588 0.666646 0.146277
H63   H     H_    0.750430 0.467088 0.748036 0.184728
H64   H     H_    0.678253 0.673437 0.713433 0.169119
H65   H     H_    0.742912 0.725752 0.712039 0.163259
H66   H     H_    0.674924 0.670427 0.830329 0.170395
H67   H     H_    0.197621 0.655029 0.222795 0.151376
H68   H     H_    0.268124 0.462952 0.333386 0.159849
H69   H     H_    0.242656 0.466432 0.246569 0.176809
H70   H     H_    0.324262 0.424545 0.195071 0.166044
H71   H     H_    0.556246 0.656997 0.665054 0.121988
H72   H     H_    0.603645 0.564971 0.610190 0.124769
H73   H     H_    0.541675 0.591544 0.592829 0.184803
H74   H     H_    0.371785 0.400035 0.361470 0.128628
H75   H     H_    0.419489 0.308009 0.314937 0.129239
H76   H     H_    0.437468 0.382287 0.373605 0.171043
H77   H     H_    0.441514 0.654987 0.330718 0.118005
H78   H     H_    0.781525 0.392608 0.831385 0.136822
H79   H     H_    0.394211 0.563313 0.390815 0.129550
H80   H     H_    0.458535 0.591971 0.402000 0.184393
H81   H     H_    0.638458 0.410468 0.604373 0.124225
H82   H     H_    0.584693 0.323363 0.671460 0.128705
H83   H     H_    0.572973 0.386783 0.593825 0.173636
H84   H     H_    0.064395 0.177454 0.690437 0.122779
H85   H     H_    0.110952 0.084772 0.647130 0.131383
H86   H     H_    0.046466 0.102638 0.632328 0.180649
H87   H     H_    0.864627 0.877805 0.376083 0.129042
H88   H     H_    0.910933 0.784926 0.328440 0.127297
H89   H     H_    0.577057 0.134459 0.681425 0.133354
H90   H     H_    0.925451 0.854145 0.397091 0.174199
H91   H     H_    0.932770 0.176100 0.345472 0.125873
H92   H     H_    0.885299 0.084561 0.382044 0.130610
H93   H     H_    0.942641 0.099902 0.412448 0.185155
H94   H     H_    0.133478 0.878488 0.628727 0.128807
H95   H     H_    0.087683 0.785293 0.675046 0.126333
H96   H     H_    0.072225 0.855438 0.608451 0.174412
N1    N     N_R   0.388930 0.078160 0.705470 -0.050715
N2    N     N_R   0.419500 0.922160 0.443350 -0.068149
N3    N     N_R   0.419500 0.077840 0.443350 -0.067797
N4    N     N_R   0.580500 0.922160 0.556650 -0.068300
N5    N     N_R   0.080500 0.577840 0.556650 -0.066481
N6    N     N_R   0.919500 0.422160 0.443350 -0.065605
N7    N     N_R   0.919500 0.577840 0.443350 -0.066365
N8    N     N_R   0.080500 0.422160 0.556650 -0.067744
N9    N     N_R   0.626210 0.077590 0.443410 -0.101570
N10   N     N_R   0.373790 0.922410 0.556590 -0.118979
N11   N     N_R   0.373790 0.077590 0.556590 -0.103235
N12   N     N_R   0.611070 0.921840 0.294530 -0.058315
N13   N     N_R   0.626210 0.922410 0.443410 -0.118241
N14   N     N_R   0.126210 0.577590 0.443410 -0.100914
N15   N     N_R   0.873790 0.422410 0.556590 -0.118817
N16   N     N_R   0.873790 0.577590 0.556590 -0.101214
N17   N     N_R   0.126210 0.422410 0.443410 -0.115173
N18   N     N_R   0.554800 0.077270 0.294580 -0.039121
N19   N     N_R   0.445200 0.922730 0.705420 -0.035975
N20   N     N_R   0.445200 0.077270 0.705420 -0.037770
N21   N     N_R   0.554800 0.922730 0.294580 -0.037044
N22   N     N_R   0.054800 0.577270 0.294580 -0.040172
N23   N     N_R   0.611070 0.078160 0.294530 -0.050049
N24   N     N_R   0.945200 0.422730 0.705420 -0.037491
N25   N     N_R   0.945200 0.577270 0.705420 -0.040042
N26   N     N_R   0.054800 0.422730 0.294580 -0.036231
N27   N     N_R   0.388930 0.921840 0.705470 -0.057656
N28   N     N_R   0.888930 0.578160 0.705470 -0.049406
N29   N     N_R   0.111070 0.421840 0.294530 -0.054384
N30   N     N_R   0.111070 0.578160 0.294530 -0.048455
N31   N     N_R   0.888930 0.421840 0.705470 -0.057730
N32   N     N_R   0.580500 0.077840 0.556650 -0.069581
Ni1   Ni    Ni4+2 0.382710 0.000000 0.629850 0.217397
Ni2   Ni    Ni4+2 0.617290 0.000000 0.370150 0.225021
Ni3   Ni    Ni4+2 0.882710 0.500000 0.629850 0.227726
Ni4   Ni    Ni4+2 0.117290 0.500000 0.370150 0.226053
Ni5   Ni    Ni4+2 0.513020 0.000000 0.629850 0.197967
Ni6   Ni    Ni4+2 0.486980 0.000000 0.370150 0.200239
Ni7   Ni    Ni4+2 0.013020 0.500000 0.629850 0.200810
Ni8   Ni    Ni4+2 0.986980 0.500000 0.370150 0.203430
O1    O     O_3   0.745362 0.115136 0.305780 -0.655719
O2    O     O_3   0.345337 0.323736 0.487063 -0.620664
O3    O     O_3   0.365838 0.651644 0.504275 -0.601176
O4    O     O_3   0.661141 0.319004 0.498135 -0.623037
O5    O     O_3   0.139547 0.159550 0.518901 -0.606328
O6    O     O_3   0.831638 0.796622 0.500300 -0.626815
O7    O     O_3   0.849426 0.158665 0.514651 -0.600371
O8    O     O_3   0.166296 0.798663 0.503263 -0.626314
O9    O     O_3   0.269018 0.849919 0.695953 -0.628998
O10   O     O_3   0.260631 0.128957 0.700808 -0.662068
O11   O     O_3   0.730018 0.848297 0.304301 -0.632981
O12   O     O_3   0.247528 0.606255 0.301329 -0.666250
O13   O     O_3   0.767589 0.351842 0.697411 -0.637393
O14   O     O_3   0.751973 0.603606 0.698246 -0.665087
O15   O     O_3   0.238199 0.357756 0.309278 -0.657607
O16   O     O_3   0.634638 0.650904 0.492308 -0.600409

loop_
_geom_bond_atom_site_label_1
_geom_bond_atom_site_label_2
_ccdc_geom_bond_type
C78   C87   A    
N6    N15   A    
C23   C58   A    
C3    H82   S    
C40   N17   A    
C31   C66   A    
C18   C21   S    
N1    N20   A    
C50   N28   A    
C43   N20   A    
C9    C51   S    
C32   C58   A    
C5    O6    S    
C17   N12   A    
C16   H30   S    
C95   O9    S    
C6    H92   S    
C41   N18   A    
C101  H70   S    
N18   N23   A    
C97   O11   S    
C14   H28   S    
C15   C19   S    
C22   H33   S    
C24   N2    A    
C50   C54   A    
C75   C79   A    
C72   N30   A    
C82   O7    S    
C101  H68   S    
C45   N22   A    
C97   H55   S    
C12   H43   S    
C101  O15   S    
C24   C59   A    
C42   C53   A    
C71   C76   A    
C32   O1    S    
N31   Ni3   S    
C8    C49   S    
C96   H51   S    
C102  H72   S    
N4    N13   A    
C55   C61   A    
C7    H96   S    
N25   N28   A    
C46   N24   A    
N8    Ni7   S    
C18   H29   S    
C103  H76   S    
N10   Ni1   S    
C74   C92   A    
C80   C89   A    
N5    Ni7   S    
C73   C77   A    
N9    Ni2   S    
C79   C88   A    
N28   Ni3   S    
C69   C82   A    
C43   H11   S    
C40   O15   S    
C101  H69   S    
C42   H10   S    
N19   N27   A    
C45   C56   A    
N3    Ni6   S    
C102  O16   S    
C63   C92   S    
C46   H15   S    
C61   N29   A    
C31   H8    S    
C57   C83   A    
C71   H22   S    
N30   Ni4   S    
C25   C60   A    
C96   O10   S    
C35   C62   A    
C36   C63   A    
C70   C84   A    
C11   H40   S    
C41   C52   A    
C39   N27   A    
C23   N32   A    
C28   H23   S    
C75   C91   A    
C99   H62   S    
C36   N14   A    
C13   C55   S    
C96   H53   S    
C39   H34   S    
C1    N1    A    
C8    C16   D    
C40   C66   A    
C34   C60   A    
C68   C85   A    
N3    N11   A    
C93   H46   S    
C13   H42   S    
N2    N10   A    
C73   H24   S    
C100  O14   S    
C70   C87   A    
C3    H81   S    
N17   Ni4   S    
C6    H91   S    
C98   H58   S    
C98   H59   S    
C66   C89   S    
C99   H63   S    
N12   N21   A    
C45   H14   S    
C65   C90   S    
N27   Ni1   S    
C62   C85   S    
C11   C20   D    
N26   Ni8   S    
C100  H66   S    
C77   O2    S    
C72   H67   S    
C4    H86   S    
C6    O7    S    
N15   Ni3   S    
C5    H87   S    
C42   N19   A    
C61   H56   S    
C26   H4    S    
C48   H17   S    
C60   C86   S    
C43   C49   A    
C21   H35   S    
C93   H44   S    
C69   H20   S    
C56   C72   A    
C19   H32   S    
C12   C21   D    
C29   N6    A    
N11   Ni1   S    
C83   H78   S    
C3    H83   S    
C27   N5    A    
N9    N32   A    
N22   Ni8   S    
C26   N4    A    
N2    Ni6   S    
N23   Ni2   S    
C14   C20   S    
C48   N26   A    
C33   N10   A    
C29   H6    S    
N1    Ni1   S    
C47   N25   A    
C38   C65   A    
C10   C19   D    
C23   H89   S    
C35   O11   S    
C34   O10   S    
C79   O4    S    
C52   C94   S    
C2    C15   D    
C35   N13   A    
C27   H5    S    
C100  H64   S    
C69   C88   A    
C27   C63   A    
N7    Ni8   S    
C93   O1    S    
C47   C54   A    
C81   C90   A    
C70   H21   S    
C47   H16   S    
C104  H80   S    
C77   C86   A    
C97   H57   S    
C46   C57   A    
C74   C78   A    
N32   Ni5   S    
N25   Ni7   S    
N20   Ni5   S    
N24   N31   A    
C24   H2    S    
C68   C81   A    
N13   Ni2   S    
N26   N29   A    
C67   H18   S    
C37   C64   A    
C10   C56   S    
C44   C51   A    
N8    N17   A    
N16   Ni3   S    
C67   C86   A    
C16   C22   S    
C7    H95   S    
C48   C55   A    
C38   O14   S    
C100  H65   S    
C94   H37   S    
C81   O6    S    
N14   Ni4   S    
C67   C80   A    
C5    H88   S    
C38   N16   A    
N4    Ni5   S    
C25   N3    A    
C2    C53   S    
C58   C88   S    
N5    N14   A    
C6    H93   S    
N12   Ni2   S    
C9    H38   S    
C75   H26   S    
C95   H48   S    
C103  O2    S    
C17   C51   A    
C104  O3    S    
N21   Ni6   S    
C37   O13   S    
C78   O3    S    
C7    O8    S    
C84   O8    S    
C30   H7    S    
C4    H85   S    
C103  H74   S    
C2    H36   S    
C98   H60   S    
C95   H50   S    
N29   Ni4   S    
C102  H71   S    
C73   C89   A    
C31   N8    A    
C99   O13   S    
C68   H19   S    
C97   H54   S    
C98   O12   S    
C32   N9    A    
C28   C52   A    
C50   H45   S    
N19   Ni5   S    
C39   C53   A    
C71   C90   A    
C83   N31   A    
C44   H13   S    
C7    H94   S    
C28   N23   A    
C30   N7    A    
C33   O9    S    
C41   H9    S    
N7    N16   A    
C36   O12   S    
C14   C94   D    
C13   C22   D    
C104  H77   S    
C8    H39   S    
C103  H75   S    
C3    O4    S    
C20   H31   S    
C26   C62   A    
C76   O16   S    
N24   Ni7   S    
C59   C87   S    
C4    O5    S    
C29   C64   A    
C30   C65   A    
C93   H47   S    
C34   N11   A    
C82   C91   A    
C10   H41   S    
C9    C18   D    
C104  H79   S    
C15   H27   S    
N22   N30   A    
C33   C59   A    
C96   H52   S    
C74   H25   S    
C102  H73   S    
N18   Ni6   S    
C80   O5    S    
N6    Ni8   S    
C44   N21   A    
C84   C92   A    
C64   C91   S    
C95   H49   S    
C11   C57   S    
C1    C49   A    
C76   C85   A    
C37   N15   A    
C25   H3    S    
C12   C54   S    
C4    H84   S    
C17   H12   S    
C1    H1    S    
C5    H90   S    
C99   H61   S    
