data_mof_unit_52780.cif
_audit_creation_date              2012-12-10T18:09:54-0500
_audit_creation_method            fapswitch 2.2
_symmetry_space_group_name_H-M    P1
_symmetry_Int_Tables_number       1
_space_group_crystal_system       triclinic
_cell_length_a                    10.692421
_cell_length_b                    12.584778
_cell_length_c                    13.157129
_cell_angle_alpha                 83.700581
_cell_angle_beta                  89.787533
_cell_angle_gamma                 101.643924
_cell_volume                      1722.93413248

loop_
_atom_site_label
_atom_site_type_symbol
_atom_type_description
_atom_site_fract_x
_atom_site_fract_y
_atom_site_fract_z
_atom_type_partial_charge
C1    C     C_R   0.474297 0.440984 0.690857 0.854699
C2    C     C_R   0.419474 0.457452 0.972404 0.077402
C3    C     C_R   0.421357 0.486849 0.865765 0.096517
C4    C     C_R   0.741720 0.499008 0.500462 0.930155
C5    C     C_R   0.429265 0.541146 0.037373 0.032125
C6    C     C_R   0.456936 0.651923 0.995769 0.164068
C7    C     C_R   0.435212 0.677904 0.893199 -0.292893
C8    C     C_R   0.409690 0.595232 0.830072 -0.164958
C9    C     C_R   0.417477 0.518703 0.142911 -0.063654
C10   C     C_R   0.526475 0.703885 0.160734 -0.254079
C11   C     C_R   0.439414 0.408493 0.799432 -0.099955
C12   C     C_3   0.120599 0.496194 0.505673 -0.110599
C13   C     C_R   0.307949 0.083525 0.358480 -0.087064
C14   C     C_R   0.660549 0.802748 0.622800 0.552236
C15   C     C_R   0.702418 0.912426 0.641388 0.404118
C16   C     C_R   0.504562 0.559895 0.309682 0.871213
C17   C     C_R   0.642349 0.992150 0.591788 -0.392049
C18   C     C_R   0.541005 0.964149 0.525298 -0.026318
C19   C     C_R   0.507244 0.853919 0.505407 0.077890
C20   C     C_R   0.474856 0.041927 0.475288 0.038600
C21   C     C_R   0.377439 0.008149 0.405297 0.103337
C22   C     C_R   0.351537 0.900053 0.383675 -0.248824
C23   C     C_3   0.085107 0.543491 0.396848 0.232252
C24   C     C_R   0.416186 0.825081 0.432091 -0.122742
C25   C     C_R   0.500051 0.152290 0.493008 -0.041489
C26   C     C_R   0.337523 0.190559 0.381093 -0.058815
C27   C     C_R   0.257989 0.498398 0.504109 0.933944
C28   C     C_3   0.900160 0.374922 0.523272 -0.248090
C29   C     C_3   0.044348 0.375359 0.526281 0.283872
C30   C     C_3   0.942460 0.551870 0.396642 0.290358
C31   C     C_3   0.939627 0.561842 0.586874 -0.533643
C32   C     C_3   0.877951 0.495760 0.500412 -0.101941
C33   C     C_1   0.842068 0.300113 0.448753 0.238366
C34   C     C_3   0.083829 0.565592 0.588640 -0.171973
C35   C     C_3   0.167293 0.675819 0.260123 -0.344454
C36   C     C_1   0.307419 0.438748 0.185145 0.159546
C37   C     C_1   0.205589 0.053745 0.288978 0.143114
C38   C     C_3   0.736631 0.717172 0.768837 -0.227849
C39   C     C_3   0.787610 0.001688 0.776768 -0.369337
C40   C     C_3   0.065700 0.212215 0.620865 -0.253852
C41   C     C_3   0.827529 0.571846 0.246898 -0.287737
C42   C     C_1   0.118473 0.528575 0.693231 0.260831
C43   C     C_R   0.503709 0.733644 0.058263 -0.212885
C44   C     C_R   0.484300 0.595039 0.203171 -0.112337
C45   C     C_R   0.435452 0.299847 0.839529 -0.191577
C46   C     C_R   0.424791 0.269854 0.944318 -0.146059
C47   C     C_R   0.421492 0.348118 0.010459 -0.160944
H1    H     H_    0.134715 0.652043 0.570478 0.183195
H2    H     H_    0.383447 0.619364 0.753255 0.183411
H3    H     H_    0.283397 0.249094 0.349789 0.161851
H4    H     H_    0.280793 0.872788 0.328753 0.182748
H5    H     H_    0.570041 0.185219 0.545862 0.124574
H6    H     H_    0.680921 0.075719 0.602789 0.167232
H7    H     H_    0.394165 0.745146 0.409228 0.247289
H8    H     H_    0.072055 0.331647 0.462513 0.089164
H9    H     H_    0.100953 0.483728 0.343897 0.124609
H10   H     H_    0.925373 0.647540 0.574843 0.231068
H11   H     H_    0.890667 0.525238 0.661339 0.204940
H12   H     H_    0.938143 0.640500 0.391672 0.122408
H13   H     H_    0.105738 0.736145 0.241807 0.179006
H14   H     H_    0.137960 0.606305 0.214013 0.182855
H15   H     H_    0.266312 0.715643 0.234994 0.191176
H16   H     H_    0.669722 0.757660 0.807801 0.136032
H17   H     H_    0.836462 0.753989 0.786187 0.199260
H18   H     H_    0.718011 0.630286 0.801841 0.171569
H19   H     H_    0.693207 0.967913 0.816199 0.147845
H20   H     H_    0.795402 0.089123 0.747904 0.176789
H21   H     H_    0.861887 0.997555 0.834870 0.200253
H22   H     H_    0.140871 0.195788 0.569613 0.172871
H23   H     H_    0.572192 0.765813 0.207188 0.174232
H24   H     H_    0.969329 0.172182 0.597469 0.165868
H25   H     H_    0.080668 0.175272 0.699204 0.197813
H26   H     H_    0.903139 0.631542 0.201356 0.154573
H27   H     H_    0.766356 0.615437 0.288335 0.149009
H28   H     H_    0.766341 0.524151 0.192950 0.201088
H29   H     H_    0.440082 0.761875 0.861381 0.140241
H30   H     H_    0.528928 0.818669 0.026843 0.139323
H31   H     H_    0.446439 0.238718 0.790136 0.154133
H32   H     H_    0.426282 0.322456 0.091189 0.150962
H33   H     H_    0.426074 0.186589 0.974751 0.144008
H34   H     H_    0.854959 0.340053 0.599273 0.162024
N1    N     N_R   0.433240 0.222190 0.444680 -0.114505
N2    N     N_R   0.566070 0.776970 0.554790 -0.199423
N3    N     N_1   0.797253 0.241585 0.390677 -0.168522
N4    N     N_1   0.217197 0.376333 0.216414 -0.231514
N5    N     N_1   0.123667 0.029974 0.233358 -0.205798
N6    N     N_1   0.142145 0.498190 0.775691 -0.193246
O1    O     O_R   0.468120 0.366740 0.627160 -0.621894
O2    O     O_3   0.723185 0.721283 0.661753 -0.578426
O3    O     O_3   0.811686 0.941272 0.697066 -0.599832
O4    O     O_3   0.075819 0.325609 0.622497 -0.593769
O5    O     O_3   0.881697 0.499367 0.314167 -0.610285
O6    O     O_R   0.510770 0.544830 0.662520 -0.601330
O7    O     O_R   0.663880 0.410950 0.482330 -0.604050
O8    O     O_R   0.706530 0.589040 0.517700 -0.578172
O9    O     O_R   0.489230 0.455170 0.337480 -0.597968
O10   O     O_R   0.531880 0.633260 0.372840 -0.647917
O11   O     O_R   0.293470 0.410960 0.482300 -0.636529
O12   O     O_R   0.336120 0.589050 0.517670 -0.637820
O13   O     O_3   0.164700 0.647179 0.367385 -0.633913
Zn1   Zn    Zn3+2 0.471520 0.381090 0.476390 0.962605
Zn2   Zn    Zn3+2 0.528480 0.618910 0.523610 0.960359

loop_
_geom_bond_atom_site_label_1
_geom_bond_atom_site_label_2
_ccdc_geom_bond_type
C30   C32   S    
C27   O11   A    
C40   H24   S    
C12   C29   S    
C39   H21   S    
C34   C42   S    
C47   H32   S    
O1    Zn1   S    
C7    C8    A    
C45   C46   A    
C38   O2    S    
C27   O12   A    
C31   H11   S    
C28   C29   S    
N2    Zn2   S    
C26   H3    S    
C5    C6    A    
C16   O10   A    
C20   C25   A    
C24   H7    S    
C18   C19   A    
C41   H27   S    
O7    Zn1   S    
C1    C11   S    
C9    C36   S    
C45   H31   S    
C16   C44   S    
C39   O3    S    
C13   C37   S    
O10   Zn2   S    
O8    Zn2   S    
C1    O1    A    
C23   O13   S    
C10   C43   A    
C26   N1    A    
C21   C22   A    
C14   N2    A    
C19   N2    A    
C38   H17   S    
C16   O9    A    
C40   H22   S    
C12   C27   S    
C10   C44   A    
C23   C30   S    
C37   N5    T    
C28   C32   S    
C30   O5    S    
C3    C8    A    
C29   H8    S    
C35   H13   S    
C14   O2    S    
C5    C9    A    
C41   H28   S    
C4    O8    A    
C31   C32   S    
C12   C23   S    
C38   H18   S    
C30   H12   S    
O12   Zn2   S    
C17   C18   A    
C31   C34   S    
C13   C21   A    
C35   H14   S    
C23   H9    S    
C4    C32   S    
C4    O7    A    
C10   H23   S    
C28   C33   S    
C6    C43   A    
C25   N1    A    
C36   N4    T    
C39   H19   S    
C22   C24   A    
C13   C26   A    
C11   C45   A    
C2    C5    A    
C34   H1    S    
C12   C34   S    
C35   O13   S    
C17   H6    S    
C29   O4    S    
C38   H16   S    
C15   C17   A    
C46   C47   A    
C9    C44   A    
C40   H25   S    
C28   H34   S    
C39   H20   S    
O6    Zn2   S    
C6    C7    A    
C2    C47   A    
C43   H30   S    
O11   Zn1   S    
C31   H10   S    
C2    C3    A    
C25   H5    S    
C15   O3    S    
C46   H33   S    
N1    Zn1   S    
C19   C24   A    
C35   H15   S    
C18   C20   A    
C40   O4    S    
C33   N3    T    
C3    C11   A    
C41   H26   S    
C41   O5    S    
C20   C21   A    
C1    O6    A    
C14   C15   A    
C42   N6    T    
O9    Zn1   S    
C8    H2    S    
C22   H4    S    
C7    H29   S    
