data_mof_unit_52669.cif
_audit_creation_date              2012-12-11T17:37:44-0500
_audit_creation_method            fapswitch 2.2
_symmetry_space_group_name_H-M    P1
_symmetry_Int_Tables_number       1
_space_group_crystal_system       triclinic
_cell_length_a                    13.146641
_cell_length_b                    13.045155
_cell_length_c                    15.419469
_cell_angle_alpha                 116.634193
_cell_angle_beta                  63.788169
_cell_angle_gamma                 96.872879
_cell_volume                      2110.60692138

loop_
_atom_site_label
_atom_site_type_symbol
_atom_type_description
_atom_site_fract_x
_atom_site_fract_y
_atom_site_fract_z
_atom_type_partial_charge
C1    C     C_R   0.017315 0.834677 0.038279 -0.067999
C2    C     C_R   0.681242 0.501305 0.322843 0.102083
C3    C     C_R   0.639856 0.547862 0.006753 0.123504
C4    C     C_R   0.008366 0.821361 0.319934 0.053252
C5    C     C_R   0.322261 0.576816 0.008469 -0.193171
C6    C     C_R   0.900464 0.203778 0.793826 0.499601
C7    C     C_R   0.221726 0.432000 0.689333 0.471890
C8    C     C_R   0.089311 0.249389 0.051004 -0.127171
C9    C     C_R   0.990994 0.165752 0.955293 -0.171731
C10   C     C_R   0.319748 0.534795 0.781167 -0.161346
C11   C     C_R   0.244238 0.479076 0.105372 0.486625
C12   C     C_R   0.686436 0.440985 0.220457 -0.175584
C13   C     C_R   0.975429 0.305282 0.703016 -0.113101
C14   C     C_R   0.337872 0.537129 0.070758 0.001987
C15   C     C_R   0.917247 0.212023 0.703497 -0.082561
C16   C     C_R   0.329376 0.459932 0.679482 0.021156
C17   C     C_R   0.070744 0.142721 0.982563 0.038433
C18   C     C_R   0.302428 0.734727 0.353159 -0.117671
C19   C     C_R   0.194864 0.790045 0.395497 -0.106837
C20   C     C_R   0.184805 0.895855 0.395102 0.110196
C21   C     C_R   0.283617 0.945052 0.351155 -0.161581
C22   C     C_R   0.391096 0.888779 0.307777 -0.095928
C23   C     C_R   0.741429 0.569381 0.938413 -0.158253
C24   C     C_R   0.400485 0.784211 0.309578 -0.072549
C25   C     C_R   0.045589 0.059481 0.544533 -0.196091
C26   C     C_R   0.935050 0.114871 0.605570 0.129548
C27   C     C_R   0.846914 0.074068 0.574840 0.037866
C28   C     C_R   0.874156 0.975650 0.478073 -0.229016
C29   C     C_R   0.985354 0.921046 0.417217 0.082557
C30   C     C_R   0.071391 0.960350 0.450627 0.002045
C31   C     C_R   0.637204 0.061955 0.668874 -0.116972
C32   C     C_R   0.525699 0.113946 0.738931 -0.121652
C33   C     C_R   0.503305 0.233431 0.785184 -0.054325
C34   C     C_R   0.978188 0.715789 0.314042 -0.148632
C35   C     C_R   0.592169 0.300993 0.760365 -0.044563
C36   C     C_R   0.703469 0.249275 0.688923 -0.165946
C37   C     C_R   0.727585 0.129237 0.643992 0.154090
C38   C     C_R   0.938492 0.403692 0.360243 -0.107263
C39   C     C_R   0.824814 0.381865 0.386085 -0.166868
C40   C     C_R   0.737723 0.466059 0.475179 0.085823
C41   C     C_R   0.764996 0.567651 0.544040 -0.335911
C42   C     C_R   0.879447 0.591501 0.516028 0.567143
C43   C     C_R   0.965446 0.509375 0.423159 -0.114359
C44   C     C_R   0.532302 0.441361 0.564453 0.470364
C45   C     C_R   0.662578 0.472711 0.037612 -0.099976
C46   C     C_R   0.420455 0.458537 0.582012 -0.085707
C47   C     C_R   0.396784 0.490247 0.515198 0.125454
C48   C     C_R   0.484921 0.503238 0.431650 -0.206089
C49   C     C_R   0.595458 0.491143 0.415888 -0.006446
C50   C     C_R   0.621385 0.462088 0.482848 -0.116867
C51   C     C_R   0.229407 0.425722 0.475459 0.420439
C52   C     C_R   0.109030 0.436926 0.515446 0.136311
C53   C     C_R   0.044921 0.538374 0.608362 0.444555
C54   C     C_R   0.101063 0.633132 0.649173 0.532848
C55   C     C_R   0.219180 0.619577 0.612271 -0.602755
C56   C     C_R   0.060075 0.815954 0.218730 -0.082074
C57   C     C_R   0.281127 0.513921 0.531478 -0.003879
C58   C     C_2   0.437042 0.551572 0.090259 -0.169910
C59   C     C_2   0.529484 0.583717 0.028152 -0.196337
C60   C     C_2   0.878926 0.969822 0.051116 -0.255823
C61   C     C_2   0.856828 0.056702 0.148708 0.386055
C62   C     C_R   0.783633 0.543898 0.314832 -0.104326
C63   C     C_R   0.916694 0.751921 0.943859 -0.095125
C64   C     C_R   0.937817 0.857192 0.011063 0.165358
H1    H     H_    0.058403 0.897572 0.083090 0.140416
H2    H     H_    0.146671 0.263149 0.087194 0.156520
H3    H     H_    0.958736 0.101803 0.901849 0.139974
H4    H     H_    0.386318 0.578074 0.802922 0.148514
H5    H     H_    0.483751 0.741380 0.277022 0.113005
H6    H     H_    0.119644 0.752164 0.431327 0.148432
H7    H     H_    0.624722 0.386697 0.198218 0.117326
H8    H     H_    0.277272 0.027370 0.351653 0.123771
H9    H     H_    0.467122 0.926935 0.273994 0.118279
H10   H     H_    0.110676 0.091636 0.572960 0.152924
H11   H     H_    0.809351 0.941079 0.449897 0.139812
H12   H     H_    0.456761 0.061633 0.758255 0.113044
H13   H     H_    0.417135 0.273669 0.840151 0.109567
H14   H     H_    0.574729 0.393540 0.796133 0.138749
H15   H     H_    0.770651 0.303117 0.669208 0.116710
H16   H     H_    0.005578 0.340724 0.288866 0.155364
H17   H     H_    0.804237 0.305242 0.331195 0.113618
H18   H     H_    0.697336 0.632939 0.612213 0.133562
H19   H     H_    0.466931 0.526496 0.380013 0.135378
H20   H     H_    0.949515 0.690484 0.377826 0.121039
H21   H     H_    0.261882 0.688710 0.650798 0.191760
H22   H     H_    0.440573 0.517769 0.141472 0.109991
H23   H     H_    0.844894 0.980354 0.002743 0.108404
H24   H     H_    0.103999 0.881991 0.196467 0.100695
H25   H     H_    0.806621 0.594614 0.378711 0.104279
H26   H     H_    0.864586 0.740863 0.903326 0.158871
N1    N     N_R   0.037320 0.720000 0.995830 -0.066973
N2    N     N_R   0.946240 0.290870 0.848020 -0.111318
N3    N     N_R   0.146160 0.501170 0.788610 -0.077427
N4    N     N_R   0.025750 0.332680 0.063570 -0.036711
N5    N     N_R   0.962680 0.280000 0.004170 -0.054280
N6    N     N_R   0.209230 0.553860 0.848010 -0.079300
N7    N     N_R   0.175100 0.482030 0.063570 -0.072386
N8    N     N_R   0.996810 0.351820 0.788610 -0.049069
N9    N     N_R   0.790770 0.446140 0.151990 -0.046428
N10   N     N_R   0.824900 0.517970 0.936430 -0.041787
N11   N     N_R   0.003190 0.648180 0.211390 -0.039155
N12   N     N_R   0.774330 0.457010 0.995830 -0.053481
N13   N     N_R   0.053760 0.709130 0.151980 -0.047575
N14   N     N_R   0.853840 0.498830 0.211390 -0.041463
N15   N     N_R   0.974250 0.667320 0.936430 -0.049267
N16   N     N_R   0.225670 0.542990 0.004170 -0.069467
Ni1   Ni    Ni4+2 0.130310 0.630310 0.000000 0.195633
Ni2   Ni    Ni4+2 0.869690 0.369690 0.000000 0.203415
Ni3   Ni    Ni4+2 0.985660 0.509480 0.863750 0.249646
Ni4   Ni    Ni4+2 0.014340 0.490520 0.136250 0.244069
O1    O     O_3   0.819076 0.141953 0.837313 -0.760377
H27   H     H_    0.801287 0.175118 0.914729 0.300864
O2    O     O_3   0.197579 0.336123 0.616816 -0.799651
H28   H     H_    0.270563 0.289007 0.559587 0.326627
O3    O     O_3   0.210918 0.447201 0.187165 -0.814489
H29   H     H_    0.270902 0.462744 0.212413 0.304212
H30   H     H_    0.995568 0.339707 0.646483 0.199497
H31   H     H_    0.309785 0.653969 0.354911 0.105061
H32   H     H_    0.653281 0.969528 0.635874 0.107754
H33   H     H_    0.053565 0.527699 0.399864 0.145842
H34   H     H_    0.751289 0.611917 0.889666 0.133122
O4    O     O_3   0.909447 0.695658 0.574565 -0.741635
H35   H     H_    0.839379 0.744126 0.636756 0.334247
O5    O     O_3   0.550151 0.407383 0.630223 -0.776913
H36   H     H_    0.631594 0.381767 0.599476 0.323659
O6    O     O_3   0.296737 0.325436 0.392051 -0.766521
H37   H     H_    0.250947 0.259075 0.389453 0.329250
O7    O     O_3   0.051982 0.349530 0.469408 -0.777096
H38   H     H_    0.101833 0.306491 0.391311 0.334131
O8    O     O_3   0.927459 0.548135 0.661926 -0.732330
H39   H     H_    0.898805 0.473718 0.629233 0.337805
O9    O     O_3   0.037780 0.736887 0.727715 -0.710142
H40   H     H_    0.089671 0.794739 0.747712 0.308935
H41   H     H_    0.527898 0.620744 0.978387 0.131782
O10   O     O_3   0.889472 0.047292 0.218201 -0.753768
H42   H     H_    0.860717 0.121441 0.283979 0.313226
H43   H     H_    0.604253 0.428310 0.080991 0.094026
H44   H     H_    0.367325 0.639614 0.981579 0.119411

loop_
_geom_bond_atom_site_label_1
_geom_bond_atom_site_label_2
_ccdc_geom_bond_type
C8    H2    S    
O6    H37   S    
C6    O1    S    
N1    N15   A    
C3    C23   A    
C35   C36   A    
C2    C12   A    
O7    H38   S    
C52   O7    S    
N2    N8    A    
O10   H42   S    
C23   H34   S    
C20   C30   S    
C53   C54   A    
N9    Ni2   S    
C42   O4    S    
C26   C27   A    
C18   C24   A    
C36   C37   A    
C25   H10   S    
C38   C39   A    
C11   C14   A    
C6    N2    A    
C56   H24   S    
N16   Ni1   S    
O3    H29   S    
C62   H25   S    
C18   C19   A    
C41   C42   A    
C13   N8    A    
C12   N9    A    
C6    C15   A    
C54   C55   A    
N2    Ni2   S    
C19   C20   A    
O9    H40   S    
C1    H1    S    
N12   Ni2   S    
C51   C57   A    
C63   N15   A    
C11   O3    S    
C18   H31   S    
C4    C29   S    
C43   H33   S    
C23   N10   A    
N10   Ni3   S    
C1    N1    A    
N8    Ni3   S    
C21   C22   A    
C4    C56   A    
C34   H20   S    
C14   C58   S    
C58   H22   S    
C45   H43   S    
C60   H23   S    
C44   C46   A    
C24   H5    S    
C62   N14   A    
C5    N16   A    
C7    N3    A    
C4    C34   A    
C34   N11   A    
C21   H8    S    
C51   C52   A    
N1    Ni1   S    
C5    H44   S    
C8    N4    A    
C39   H17   S    
C45   N12   A    
C16   C46   S    
C39   C40   A    
C40   C41   A    
C15   C26   S    
N11   Ni4   S    
C3    C45   A    
C31   C37   A    
C60   C61   D    
C55   H21   S    
C9    H3    S    
C29   C30   A    
C2    C49   S    
C47   C57   S    
C47   C48   A    
C10   N6    A    
N10   N12   A    
C31   H32   S    
C5    C14   A    
N7    N16   A    
C9    C17   A    
C48   C49   A    
C12   H7    S    
N3    N6    A    
C13   C15   A    
C22   C24   A    
C58   C59   D    
C42   C43   A    
C1    C64   A    
C52   C53   A    
C61   O10   S    
O2    H28   S    
C44   C50   A    
C25   C30   A    
N15   Ni3   S    
C46   C47   A    
C28   C29   A    
C59   H41   S    
O1    H27   S    
C51   O6    S    
N6    Ni1   S    
C31   C32   A    
C7    C16   A    
C56   N13   A    
C36   H15   S    
C32   H12   S    
C13   H30   S    
C10   H4    S    
C54   O9    S    
C35   H14   S    
C8    C17   A    
C48   H19   S    
C60   C64   S    
C11   N7    A    
C32   C33   A    
C7    O2    S    
C55   C57   A    
O8    H39   S    
C25   C26   A    
C38   C43   A    
C10   C16   A    
N14   Ni4   S    
N7    Ni4   S    
C33   H13   S    
C38   H16   S    
C27   C37   S    
C40   C50   S    
C41   H18   S    
C63   H26   S    
C33   C35   A    
N4    Ni4   S    
N9    N14   A    
N4    N5    A    
N5    Ni2   S    
C63   C64   A    
C20   C21   A    
C9    N5    A    
N11   N13   A    
C49   C50   A    
C44   O5    S    
C27   C28   A    
C19   H6    S    
N13   Ni1   S    
C53   O8    S    
C22   H9    S    
O4    H35   S    
C28   H11   S    
C2    C62   A    
N3    Ni3   S    
O5    H36   S    
C3    C59   S    
