data_mof_unit_20534.cif
_audit_creation_date              2012-10-26T20:02:59-0400
_audit_creation_method            fapswitch 2.2
_symmetry_space_group_name_H-M    P1
_symmetry_Int_Tables_number       1
_space_group_crystal_system       triclinic
_cell_length_a                    10.75254
_cell_length_b                    12.32163
_cell_length_c                    13.183331
_cell_angle_alpha                 116.642192
_cell_angle_beta                  76.685758
_cell_angle_gamma                 101.091211
_cell_volume                      1511.23767394

loop_
_atom_site_label
_atom_site_type_symbol
_atom_type_description
_atom_site_fract_x
_atom_site_fract_y
_atom_site_fract_z
_atom_type_partial_charge
C1    C     C_R   0.512112 0.854978 0.286363 0.515156
C2    C     C_R   0.505856 0.566173 0.009519 0.067734
C3    C     C_R   0.465061 0.650180 0.123981 0.017857
C4    C     C_R   0.739884 0.997581 0.497066 0.535169
C5    C     C_R   0.469547 0.439105 0.977283 0.063300
C6    C     C_R   0.373595 0.401742 0.052955 0.018296
C7    C     C_R   0.321539 0.487820 0.159324 -0.125755
C8    C     C_R   0.366785 0.610044 0.194701 -0.115208
C9    C     C_R   0.525023 0.347044 0.873599 0.216874
C10   C     C_R   0.373267 0.191754 0.912749 -0.120184
C11   C     C_R   0.520295 0.773246 0.162879 -0.006201
C12   C     C_3   0.120233 0.002725 0.504091 0.038043
C13   C     C_R   0.714723 0.351825 0.336773 -0.134145
C14   C     C_R   0.327609 0.763959 0.648983 0.000896
C15   C     C_R   0.300897 0.678334 0.694356 -0.101186
C16   C     C_R   0.485818 0.144851 0.713592 0.628576
C17   C     C_R   0.372462 0.578613 0.647788 0.237340
C18   C     C_R   0.466017 0.558242 0.546473 0.001341
C19   C     C_R   0.495830 0.654410 0.508919 0.143426
C20   C     C_R   0.535364 0.451486 0.483299 0.005340
C21   C     C_R   0.641888 0.451649 0.396580 0.030908
C22   C     C_R   0.673801 0.550059 0.367799 -0.171060
C23   C     C_3   0.061409 0.117986 0.609038 0.407778
C24   C     C_R   0.600442 0.647492 0.420595 -0.096622
C25   C     C_R   0.501050 0.341374 0.497002 0.098094
C26   C     C_R   0.680281 0.250060 0.360277 0.050636
C27   C     C_R   0.259531 0.001421 0.501820 0.604333
C28   C     C_3   0.960373 0.995844 0.384931 -0.260337
C29   C     C_3   0.103703 0.001213 0.389097 -0.267064
C30   C     C_3   0.919183 0.115781 0.600022 -0.139559
C31   C     C_3   0.899421 0.885105 0.512780 -0.244182
C32   C     C_3   0.877019 0.997927 0.498425 -0.033391
C33   C     C_3   0.042609 0.884064 0.509251 -0.246005
C34   C     C_R   0.329525 0.278282 0.021397 -0.128114
C35   C     C_R   0.465364 0.227133 0.836237 0.040039
C36   C     C_R   0.593975 0.815744 0.082722 -0.132132
C37   C     C_R   0.615763 0.737224 0.966656 -0.123317
C38   C     C_R   0.573123 0.613711 0.930194 -0.028999
Cl1   Cl    Cl    0.683466 0.368784 0.803157 -0.596671
Cl2   Cl    Cl    0.356202 0.502822 0.736906 -0.615974
Cl3   Cl    Cl    0.146592 0.257285 0.605812 -0.562933
Cu1   Cu    Cu3+1 0.529690 0.098270 0.475420 1.014810
Cu2   Cu    Cu3+1 0.470310 0.901730 0.524580 0.946659
H1    H     H_    0.945478 0.074816 0.371052 0.146160
H2    H     H_    0.931800 0.911218 0.310717 0.128040
H3    H     H_    0.319089 0.672880 0.276034 0.145501
H4    H     H_    0.736822 0.173165 0.315519 0.120450
H5    H     H_    0.754625 0.550415 0.301208 0.121197
H6    H     H_    0.797414 0.352340 0.271867 0.114044
H7    H     H_    0.414107 0.326710 0.550128 0.231108
H8    H     H_    0.274580 0.843176 0.689055 0.167473
H9    H     H_    0.228746 0.693661 0.770526 0.161715
H10   H     H_    0.630665 0.716961 0.390484 0.183381
H11   H     H_    0.145106 0.920672 0.314764 0.114584
H12   H     H_    0.055526 0.873089 0.585262 0.194058
H13   H     H_    0.156687 0.083449 0.378732 0.177313
H14   H     H_    0.906093 0.196161 0.587458 0.189360
H15   H     H_    0.844385 0.886501 0.595862 0.180770
H16   H     H_    0.864780 0.799508 0.442638 0.125418
H17   H     H_    0.078305 0.802662 0.432099 0.115444
H18   H     H_    0.139993 0.308433 0.854879 0.388061
H19   H     H_    0.852954 0.123255 0.680795 0.188529
H20   H     H_    0.331351 0.097952 0.887100 0.168465
H21   H     H_    0.245940 0.460418 0.216091 0.117980
H22   H     H_    0.256834 0.249331 0.078895 0.130649
H23   H     H_    0.635269 0.909869 0.109735 0.138977
H24   H     H_    0.588293 0.558027 0.838775 0.213186
H25   H     H_    0.668391 0.771699 0.904756 0.143941
N1    N     N_R   0.574690 0.246280 0.438200 -0.248912
N2    N     N_R   0.426100 0.754320 0.561190 -0.250951
O1    O     O_R   0.537340 0.972510 0.318130 -0.515571
O2    O     O_2   0.192755 0.087050 0.746723 -0.332485
O3    O     O_3   0.051373 0.267264 0.850371 -0.437983
O4    O     O_R   0.487200 0.806530 0.359650 -0.534202
O5    O     O_R   0.707380 0.082980 0.479220 -0.501601
O6    O     O_R   0.657240 0.917000 0.520740 -0.525240
O7    O     O_R   0.512800 0.193470 0.640350 -0.431766
O8    O     O_R   0.462660 0.027490 0.681870 -0.498210
O9    O     O_R   0.342760 0.083000 0.479260 -0.477400
O10   O     O_R   0.292620 0.917020 0.520780 -0.506045
O11   O     O_2   0.960771 0.040124 0.778654 -0.307858
S1    S     S_3+6 0.067548 0.124243 0.747998 0.028853

loop_
_geom_bond_atom_site_label_1
_geom_bond_atom_site_label_2
_ccdc_geom_bond_type
C33   H12   S    
C22   H5    S    
C30   H14   S    
C23   S1    S    
C12   C29   S    
C10   H20   S    
C1    C11   S    
O11   S1    D    
C7    C8    A    
Cu2   O8    S    
C12   C23   S    
Cu1   O5    S    
C1    O1    A    
C1    O4    A    
C31   H15   S    
C36   C37   A    
C18   C19   A    
C27   O9    A    
C16   C35   S    
C5    C6    A    
C36   H23   S    
C20   C25   A    
C37   H25   S    
C9    Cl1   S    
C16   O7    A    
C31   H16   S    
C25   H7    S    
C4    O5    A    
C14   H8    S    
C31   C33   S    
C10   C35   A    
C18   C20   A    
Cu2   O4    S    
Cu1   O9    S    
C21   C22   A    
C14   N2    A    
C34   H22   S    
C28   H2    S    
C12   C27   S    
C23   C30   S    
C28   C32   S    
C3    C8    A    
H18   O3    S    
C24   H10   S    
C28   H1    S    
Cu1   N1    S    
C6    C34   A    
C17   Cl2   S    
C11   C36   A    
C5    C9    A    
C37   C38   A    
C2    C38   A    
C31   C32   S    
C17   C18   A    
C13   C21   A    
C10   C34   A    
C15   H9    S    
C38   H24   S    
C4    C32   S    
C26   H4    S    
C13   H6    S    
C27   O10   A    
C33   H17   S    
C30   H19   S    
C22   C24   A    
C13   C26   A    
C2    C5    A    
C25   N1    A    
Cu1   Cu2   S    
O3    S1    S    
Cu2   O6    S    
C15   C17   A    
C28   C29   S    
C6    C7    A    
C29   H13   S    
Cu2   N2    S    
C23   Cl3   S    
C2    C3    A    
Cu2   O10   S    
C30   C32   S    
Cu1   O1    S    
C19   C24   A    
C16   O8    A    
C8    H3    S    
C7    H21   S    
C4    O6    A    
C3    C11   A    
C20   C21   A    
Cu1   O7    S    
C29   H11   S    
C9    C35   A    
C26   N1    A    
C14   C15   A    
C19   N2    A    
C12   C33   S    
O2    S1    D    
