data_mof_unit_27017.cif
_audit_creation_date              2012-10-26T19:33:59-0400
_audit_creation_method            fapswitch 2.2
_symmetry_space_group_name_H-M    P1
_symmetry_Int_Tables_number       1
_space_group_crystal_system       triclinic
_cell_length_a                    8.723182
_cell_length_b                    19.365647
_cell_length_c                    18.156068
_cell_angle_alpha                 90.310753
_cell_angle_beta                  97.982347
_cell_angle_gamma                 89.691591
_cell_volume                      3037.31036273

loop_
_atom_site_label
_atom_site_type_symbol
_atom_type_description
_atom_site_fract_x
_atom_site_fract_y
_atom_site_fract_z
_atom_type_partial_charge
C1    C     C_R   0.500837 0.367658 0.499854 0.549797
C2    C     C_R   0.584733 0.451364 0.285090 0.033964
C3    C     C_R   0.589108 0.450807 0.803836 -0.042663
C4    C     C_R   0.587164 0.449319 0.207728 -0.000223
C5    C     C_R   0.499509 0.499043 0.838581 0.040557
C6    C     C_R   0.503101 0.499229 0.161659 0.031538
C7    C     C_R   0.410682 0.547221 0.792980 -0.122956
C8    C     C_R   0.416443 0.548453 0.195647 -0.174139
C9    C     C_R   0.411822 0.546622 0.715721 0.034383
C10   C     C_R   0.415884 0.547811 0.272959 0.044386
C11   C     C_R   0.638183 0.505729 0.969852 -0.136765
C12   C     C_R   0.500429 0.632239 0.500213 0.545608
C13   C     C_R   0.362266 0.496641 0.030602 -0.155413
C14   C     C_R   0.641393 0.507354 0.047611 0.276641
C15   C     C_R   0.358061 0.497840 0.952175 0.275525
C16   C     C_R   0.203530 0.500038 0.480997 0.549067
C17   C     C_R   0.796468 0.499987 0.519003 0.549356
C18   C     C_R   0.502833 0.500763 0.078832 -0.005309
C19   C     C_R   0.498177 0.500434 0.921429 0.004396
C20   C     C_2   0.037760 0.500012 0.470465 -0.158764
C21   C     C_2   0.962233 0.500046 0.529536 -0.159155
C22   C     C_R   0.393181 0.745744 0.457054 -0.123228
C23   C     C_R   0.558051 0.963616 0.568173 -0.172447
C24   C     C_R   0.414749 0.254468 0.541788 -0.117695
C25   C     C_R   0.398044 0.817849 0.458964 0.313003
C26   C     C_R   0.418818 0.182319 0.540330 0.311580
C27   C     C_R   0.524392 0.851472 0.501311 0.041651
C28   C     C_R   0.524658 0.147990 0.500380 0.040355
C29   C     C_R   0.637074 0.812374 0.545713 -0.191332
C30   C     C_R   0.616108 0.186410 0.457946 -0.186827
C31   C     C_R   0.626930 0.740688 0.546493 -0.150510
C32   C     C_R   0.605618 0.258130 0.456655 -0.146329
C33   C     C_R   0.506645 0.707285 0.501243 -0.026544
C34   C     C_R   0.524446 0.035770 0.433929 -0.172887
C35   C     C_R   0.506902 0.292383 0.499478 -0.029521
C36   C     C_3   0.832385 0.580299 0.096420 -0.016929
C37   C     C_3   0.981931 0.585281 0.150215 -0.369546
C38   C     C_3   0.106451 0.536730 0.921235 -0.018528
C39   C     C_3   0.986792 0.546166 0.852591 -0.365953
C40   C     C_3   0.169303 0.873178 0.463601 -0.008144
C41   C     C_3   0.065209 0.929581 0.425932 -0.367705
C42   C     C_3   0.184585 0.130205 0.531834 -0.005246
C43   C     C_3   0.092938 0.077209 0.568893 -0.368883
C44   C     C_3   0.737699 0.087679 0.655339 -0.018643
C45   C     C_R   0.562526 0.035614 0.569163 0.295224
C46   C     C_3   0.758415 0.127469 0.728419 -0.342943
C47   C     C_3   0.661071 0.912404 0.348842 -0.011642
C48   C     C_3   0.645316 0.871183 0.276721 -0.357745
C49   C     C_1   0.678594 0.397643 0.845744 0.170232
C50   C     C_1   0.671388 0.394293 0.177119 0.229892
C51   C     C_R   0.528263 0.963757 0.433028 0.293492
C52   C     C_R   0.538357 0.072114 0.501461 -0.014716
C53   C     C_R   0.538003 0.927289 0.500578 -0.014149
C54   C     C_R   0.587925 0.452807 0.726227 0.039715
Cu1   Cu    Cu3+1 0.499960 0.500000 0.573360 0.936294
Cu2   Cu    Cu3+1 0.500040 0.500000 0.426640 0.939832
H1    H     H_    0.977664 0.499934 0.413827 0.130534
H2    H     H_    0.336533 0.280710 0.574190 0.131923
H3    H     H_    0.733792 0.837380 0.579139 0.107490
H4    H     H_    0.696822 0.160831 0.426423 0.112105
H5    H     H_    0.715123 0.711128 0.580829 0.123947
H6    H     H_    0.677589 0.287021 0.423810 0.127749
H7    H     H_    0.567745 0.936108 0.620436 0.127024
H8    H     H_    0.507980 0.063287 0.381598 0.132191
H9    H     H_    0.656625 0.416051 0.699563 0.132325
H10   H     H_    0.649822 0.413514 0.320511 0.119209
H11   H     H_    0.744944 0.615091 0.116847 0.128903
H12   H     H_    0.022326 0.500132 0.586174 0.130923
H13   H     H_    0.855937 0.598010 0.040818 0.107854
H14   H     H_    0.070976 0.550791 0.131388 0.152559
H15   H     H_    0.025005 0.639211 0.152501 0.087744
H16   H     H_    0.961521 0.569567 0.206791 0.164968
H17   H     H_    0.156051 0.588492 0.937571 0.103113
H18   H     H_    0.046594 0.516234 0.966648 0.153546
H19   H     H_    0.933463 0.495767 0.834944 0.176114
H20   H     H_    0.894753 0.582423 0.865192 0.082808
H21   H     H_    0.042533 0.567525 0.806312 0.147429
H22   H     H_    0.222217 0.893499 0.518925 0.117022
H23   H     H_    0.341635 0.585604 0.817111 0.107555
H24   H     H_    0.097248 0.827395 0.472023 0.119950
H25   H     H_    0.010827 0.911700 0.370228 0.156322
H26   H     H_    0.973109 0.942638 0.460283 0.071867
H27   H     H_    0.134319 0.976618 0.419399 0.166128
H28   H     H_    0.208381 0.107830 0.477772 0.119160
H29   H     H_    0.112729 0.177715 0.521032 0.123085
H30   H     H_    0.068988 0.097071 0.623648 0.158429
H31   H     H_    0.981471 0.066613 0.533161 0.074288
H32   H     H_    0.160096 0.028307 0.577359 0.162499
H33   H     H_    0.776681 0.121432 0.612109 0.127512
H34   H     H_    0.350546 0.587652 0.162528 0.084416
H35   H     H_    0.811921 0.040494 0.662217 0.114516
H36   H     H_    0.722541 0.095096 0.773300 0.166547
H37   H     H_    0.881899 0.141812 0.743589 0.107274
H38   H     H_    0.686912 0.175291 0.722826 0.180759
H39   H     H_    0.725783 0.879944 0.393365 0.126081
H40   H     H_    0.728341 0.960035 0.341516 0.117599
H41   H     H_    0.583070 0.902264 0.230619 0.163020
H42   H     H_    0.579886 0.822960 0.282768 0.167844
H43   H     H_    0.761921 0.857472 0.263043 0.093832
H44   H     H_    0.342304 0.583791 0.681369 0.119631
H45   H     H_    0.348372 0.585935 0.298276 0.124500
H46   H     H_    0.746271 0.508893 0.947231 0.119704
H47   H     H_    0.256068 0.490487 0.054317 0.120471
H48   H     H_    0.298779 0.719929 0.422749 0.113050
N1    N     N_R   0.499980 0.500020 0.683620 -0.230698
N2    N     N_R   0.500020 0.499980 0.316380 -0.228912
N3    N     N_1   0.750441 0.355044 0.879347 -0.259956
N4    N     N_1   0.738920 0.350166 0.152572 -0.256556
O1    O     O_R   0.499930 0.400180 0.561970 -0.501248
O2    O     O_3   0.220507 0.489236 0.904468 -0.534498
O3    O     O_3   0.281327 0.855147 0.417570 -0.514117
O4    O     O_3   0.322042 0.145625 0.579718 -0.510642
O5    O     O_3   0.580512 0.069740 0.636816 -0.505963
O6    O     O_3   0.512270 0.929546 0.365450 -0.505957
O7    O     O_R   0.500070 0.599820 0.438030 -0.502054
O8    O     O_R   0.500010 0.400190 0.438070 -0.501154
O9    O     O_R   0.499990 0.599810 0.561930 -0.504299
O10   O     O_R   0.274810 0.500000 0.547650 -0.499458
O11   O     O_R   0.725190 0.500000 0.452350 -0.501166
O12   O     O_R   0.274880 0.500000 0.423750 -0.497167
O13   O     O_R   0.725120 0.500000 0.576250 -0.501868
O14   O     O_3   0.781724 0.511166 0.093253 -0.540810

loop_
_geom_bond_atom_site_label_1
_geom_bond_atom_site_label_2
_ccdc_geom_bond_type
C47   O6    S    
Cu1   Cu2   S    
Cu1   O13   S    
C23   C45   A    
C27   C29   A    
C31   H5    S    
C2    C4    A    
C3    C49   S    
C36   H11   S    
C49   N3    T    
C54   H9    S    
C15   C19   A    
C48   H41   S    
C11   C19   A    
C34   C51   A    
C13   C18   A    
Cu1   N1    S    
C14   O14   S    
C43   H32   S    
C39   H21   S    
C36   C37   S    
C24   C26   A    
C16   O12   A    
C38   H18   S    
C38   C39   S    
C8    C10   A    
C3    C54   A    
C46   H36   S    
C9    N1    A    
C41   H27   S    
C22   H48   S    
C22   C33   A    
C42   O4    S    
C1    O1    A    
C29   H3    S    
C22   C25   A    
C30   H4    S    
C47   H40   S    
C40   H24   S    
C1    O8    A    
C39   H19   S    
C13   H47   S    
C12   O7    A    
C23   H7    S    
C37   H14   S    
Cu1   O1    S    
C50   N4    T    
Cu2   O12   S    
C15   O2    S    
C44   C46   S    
C23   C53   A    
C40   O3    S    
C6    C18   S    
C24   C35   A    
C31   C33   A    
C51   O6    S    
C32   C35   A    
C42   H28   S    
C4    C6    A    
C5    C7    A    
C17   O11   A    
C6    C8    A    
C45   C52   A    
C3    C5    A    
C2    N2    A    
C17   C21   S    
C4    C50   S    
C51   C53   A    
C36   O14   S    
C16   O10   A    
C47   C48   S    
C46   H38   S    
C16   C20   S    
C41   H25   S    
C34   H8    S    
Cu2   O8    S    
C42   H29   S    
C39   H20   S    
Cu2   N2    S    
C44   H35   S    
C17   O13   A    
C40   C41   S    
C44   O5    S    
C9    H44   S    
C13   C15   A    
C21   H12   S    
Cu2   O11   S    
C40   H22   S    
C10   N2    A    
C38   O2    S    
C42   C43   S    
C26   O4    S    
C36   H13   S    
C1    C35   S    
C7    H23   S    
Cu1   O9    S    
C7    C9    A    
C48   H43   S    
C54   N1    A    
C43   H30   S    
C34   C52   A    
C14   C18   A    
C10   H45   S    
C2    H10   S    
C27   C53   S    
C5    C19   S    
C25   C27   A    
C48   H42   S    
C26   C28   A    
C43   H31   S    
C37   H15   S    
C12   C33   S    
C32   H6    S    
C29   C31   A    
C30   C32   A    
C28   C52   S    
C46   H37   S    
C41   H26   S    
C28   C30   A    
C11   C14   A    
Cu2   O7    S    
C11   H46   S    
C25   O3    S    
C12   O9    A    
C45   O5    S    
C8    H34   S    
C20   C21   D    
C24   H2    S    
C37   H16   S    
C47   H39   S    
C20   H1    S    
C38   H17   S    
C44   H33   S    
Cu1   O10   S    
