data_mof_unit_7180.cif
_audit_creation_date              2012-12-10T18:11:48-0500
_audit_creation_method            fapswitch 2.2
_symmetry_space_group_name_H-M    P1
_symmetry_Int_Tables_number       1
_space_group_crystal_system       triclinic
_cell_length_a                    10.507503
_cell_length_b                    12.617033
_cell_length_c                    13.111422
_cell_angle_alpha                 81.998636
_cell_angle_beta                  90.220257
_cell_angle_gamma                 102.9425
_cell_volume                      1676.90312467

loop_
_atom_site_label
_atom_site_type_symbol
_atom_type_description
_atom_site_fract_x
_atom_site_fract_y
_atom_site_fract_z
_atom_type_partial_charge
C1    C     C_R   0.482745 0.438283 0.691636 0.887773
C2    C     C_R   0.478687 0.449844 0.974250 0.119399
C3    C     C_R   0.440984 0.465336 0.871243 0.004107
C4    C     C_R   0.742173 0.501379 0.499391 0.988180
C5    C     C_R   0.472121 0.531759 0.036317 0.023119
C6    C     C_R   0.408570 0.617938 0.001112 0.033672
C7    C     C_R   0.356345 0.622960 0.903061 -0.229451
C8    C     C_R   0.372780 0.548166 0.839020 -0.167506
C9    C     C_R   0.527573 0.530019 0.132793 -0.257869
C10   C     C_R   0.439352 0.682983 0.166858 -0.323550
C11   C     C_R   0.473681 0.398391 0.802331 -0.223294
C12   C     C_3   0.065243 0.580512 0.424720 -0.484983
C13   C     C_R   0.318560 0.087626 0.347602 -0.300646
C14   C     C_R   0.654556 0.799717 0.629792 0.721560
C15   C     C_R   0.690991 0.907227 0.653376 -0.338436
C16   C     C_R   0.513027 0.561410 0.308810 0.889253
C17   C     C_R   0.632934 0.987980 0.603737 -0.312237
C18   C     C_R   0.538963 0.963467 0.528330 0.022665
C19   C     C_R   0.508415 0.854868 0.503814 0.143397
C20   C     C_R   0.475148 0.042404 0.475875 0.000289
C21   C     C_R   0.383372 0.011500 0.399418 0.189877
C22   C     C_R   0.357342 0.905064 0.375194 -0.261227
C23   C     C_3   0.988374 0.599444 0.518065 0.641078
C24   C     C_R   0.419334 0.828215 0.426506 -0.159979
C25   C     C_R   0.497877 0.151367 0.496287 -0.061188
C26   C     C_R   0.344904 0.193645 0.371897 0.046003
C27   C     C_R   0.257689 0.498816 0.500072 0.942393
C28   C     C_3   0.934369 0.420174 0.574188 -0.506905
C29   C     C_3   0.046401 0.518043 0.590777 0.477090
C30   C     C_3   0.122289 0.497688 0.498813 -0.256854
C31   C     C_3   0.010357 0.401537 0.480314 0.508197
C32   C     C_3   0.953082 0.482966 0.407164 0.456298
C33   C     C_3   0.011684 0.544535 0.757511 -0.274394
C34   C     C_3   0.877283 0.502836 0.499630 -0.303253
C35   C     C_3   0.473842 0.124961 0.799946 -0.318689
C36   C     C_3   0.717299 0.712061 0.782196 -0.322919
C37   C     C_3   0.912904 0.223298 0.461230 -0.255441
C38   C     C_3   0.986688 0.463274 0.238338 -0.285376
C39   C     C_3   0.412729 0.881429 0.030063 -0.351545
C40   C     C_R   0.397063 0.696598 0.065288 0.534052
C41   C     C_R   0.501874 0.598110 0.200265 -0.102133
C42   C     C_R   0.513730 0.300890 0.840277 0.539506
C43   C     C_R   0.535148 0.278700 0.945748 -0.266107
C44   C     C_R   0.520372 0.352687 0.011444 -0.277008
F1    F     F_    0.972503 0.700422 0.538462 -0.624286
H1    H     H_    0.585472 0.471787 0.160282 0.173986
H2    H     H_    0.664864 0.068794 0.625397 0.172327
H3    H     H_    0.765202 0.929168 0.708936 0.167628
H4    H     H_    0.395959 0.748459 0.403632 0.200175
H5    H     H_    0.122705 0.644868 0.365623 0.182013
H6    H     H_    0.416172 0.733979 0.220734 0.155283
H7    H     H_    0.304700 0.685889 0.874533 0.203595
H8    H     H_    0.941128 0.464175 0.777104 0.158735
H9    H     H_    0.959349 0.610287 0.730630 0.222504
H10   H     H_    0.061353 0.565177 0.829315 0.181919
H11   H     H_    0.371672 0.119142 0.826930 0.162723
H12   H     H_    0.538853 0.329894 0.091543 0.163804
H13   H     H_    0.526503 0.080856 0.859112 0.153721
H14   H     H_    0.467332 0.082367 0.731058 0.199170
H15   H     H_    0.625917 0.725282 0.815983 0.156444
H16   H     H_    0.803822 0.771486 0.804965 0.164007
H17   H     H_    0.727087 0.628596 0.815610 0.189345
H18   H     H_    0.840727 0.253478 0.409228 0.191005
H19   H     H_    0.872141 0.200014 0.541352 0.162531
H20   H     H_    0.930377 0.147894 0.434733 0.191016
H21   H     H_    0.046133 0.402083 0.263333 0.186774
H22   H     H_    0.050880 0.546546 0.217956 0.171588
H23   H     H_    0.569316 0.206278 0.976723 0.153248
H24   H     H_    0.936365 0.440105 0.167495 0.183724
H25   H     H_    0.503709 0.888873 0.983638 0.155687
H26   H     H_    0.436660 0.900948 0.108972 0.171588
H27   H     H_    0.361536 0.943820 0.992602 0.191879
H28   H     H_    0.330193 0.555296 0.764054 0.222219
H29   H     H_    0.295803 0.253772 0.332684 0.147104
H30   H     H_    0.288514 0.880896 0.316234 0.157043
H31   H     H_    0.248347 0.065315 0.289094 0.150632
H32   H     H_    0.565818 0.182739 0.552378 0.153972
H33   H     H_    0.876881 0.357075 0.634256 0.191374
N1    N     N_R   0.432930 0.222190 0.444670 -0.104303
N2    N     N_R   0.566370 0.776980 0.554790 -0.173939
O1    O     O_R   0.467970 0.366730 0.627150 -0.567482
O2    O     O_3   0.544195 0.234579 0.772244 -0.610447
O3    O     O_3   0.714505 0.717661 0.673870 -0.546871
O4    O     O_3   0.032794 0.300937 0.457882 -0.594495
O5    O     O_3   0.891491 0.463347 0.313631 -0.602741
O6    O     O_3   0.328763 0.776716 0.032892 -0.617589
O7    O     O_R   0.510820 0.544830 0.662520 -0.595372
O8    O     O_R   0.664630 0.410960 0.482340 -0.617725
O9    O     O_R   0.707470 0.589060 0.517710 -0.537700
O10   O     O_R   0.489180 0.455170 0.337480 -0.621972
O11   O     O_R   0.532030 0.633270 0.372850 -0.647515
O12   O     O_R   0.292530 0.410940 0.482290 -0.586870
O13   O     O_R   0.335370 0.589040 0.517660 -0.634496
O14   O     O_3   0.106774 0.538444 0.684458 -0.613467
Zn1   Zn    Zn3+2 0.471390 0.381080 0.476380 0.985367
Zn2   Zn    Zn3+2 0.528610 0.618920 0.523620 0.996220

loop_
_geom_bond_atom_site_label_1
_geom_bond_atom_site_label_2
_ccdc_geom_bond_type
C1    O7    A    
C16   O10   A    
C23   F1    S    
C42   O2    S    
C33   O14   S    
C7    C8    A    
C5    C9    A    
C12   C23   S    
C35   H13   S    
C25   H32   S    
C14   O3    S    
C35   H14   S    
C28   C29   S    
C7    H7    S    
C5    C6    A    
O1    Zn1   S    
C20   C25   A    
C36   O3    S    
C1    O1    A    
C33   H9    S    
C11   C42   A    
C10   C40   A    
C18   C19   A    
C40   O6    S    
O11   Zn2   S    
C38   H21   S    
C2    C44   A    
C43   H23   S    
C37   H20   S    
C39   H27   S    
C37   O4    S    
C14   N2    A    
N2    Zn2   S    
C28   H33   S    
C18   C20   A    
C38   H24   S    
C28   C34   S    
C9    H1    S    
C21   C22   A    
C12   C32   S    
C10   C41   A    
C22   H30   S    
C36   H17   S    
C10   H6    S    
C37   H18   S    
C35   O2    S    
C33   H8    S    
C4    C34   S    
C38   O5    S    
O10   Zn1   S    
C3    C8    A    
O12   Zn1   S    
C31   O4    S    
C32   C34   S    
C43   C44   A    
N1    Zn1   S    
C29   C30   S    
C31   C32   S    
C13   H31   S    
C44   H12   S    
C23   C34   S    
O7    Zn2   S    
C17   C18   A    
C13   C21   A    
C27   O12   A    
C38   H22   S    
O13   Zn2   S    
C29   O14   S    
C6    C40   A    
C13   C26   A    
C27   O13   A    
C2    C5    A    
C42   C43   A    
C36   H16   S    
C23   C29   S    
C37   H19   S    
C4    O9    A    
C24   H4    S    
C15   C17   A    
C12   C30   S    
C35   H11   S    
C25   N1    A    
C15   H3    S    
C28   C31   S    
C17   H2    S    
C36   H15   S    
C12   H5    S    
C6    C7    A    
C4    O8    A    
C9    C41   A    
C26   N1    A    
O9    Zn2   S    
C2    C3    A    
C30   C31   S    
C32   O5    S    
C8    H28   S    
C26   H29   S    
C39   H25   S    
C19   C24   A    
C22   C24   A    
C19   N2    A    
O8    Zn1   S    
C3    C11   A    
C20   C21   A    
C16   O11   A    
C39   H26   S    
C14   C15   A    
C1    C11   S    
C39   O6    S    
C16   C41   S    
C33   H10   S    
C27   C30   S    
