data_mof_unit_14081.cif
_audit_creation_date              2012-12-11T14:51:43-0500
_audit_creation_method            fapswitch 2.2
_symmetry_space_group_name_H-M    P1
_symmetry_Int_Tables_number       1
_space_group_crystal_system       triclinic
_cell_length_a                    6.969203
_cell_length_b                    16.757492
_cell_length_c                    16.894982
_cell_angle_alpha                 101.1524
_cell_angle_beta                  91.225662
_cell_angle_gamma                 90.860064
_cell_volume                      1935.032084

loop_
_atom_site_label
_atom_site_type_symbol
_atom_type_description
_atom_site_fract_x
_atom_site_fract_y
_atom_site_fract_z
_atom_type_partial_charge
O1    O     O_R   0.506340 0.439070 0.579550 -0.557170
O2    O     O_R   0.170010 0.404890 0.412100 -0.511879
O3    O     O_R   0.005010 0.560930 0.420450 -0.532873
C1    C     C_R   0.338376 0.380623 0.384351 0.817412
O4    O     O_R   0.176280 0.429360 0.578400 -0.519417
O5    O     O_R   0.011320 0.585570 0.587940 -0.518337
C2    C     C_R   0.346803 0.412369 0.603763 0.764690
O6    O     O_R   0.500030 0.414430 0.412060 -0.517739
O7    O     O_3   0.340950 0.551220 0.502940 -0.365507
V1    V     V_3+5 0.064020 0.490500 0.499460 1.660799
O8    O     O_R   0.681910 0.595110 0.587900 -0.538989
C3    C     C_R   0.853386 0.616303 0.618067 0.700087
O9    O     O_R   0.675640 0.570640 0.421600 -0.533359
C4    C     C_R   0.844228 0.586319 0.395009 0.752978
V2    V     V_3+5 0.564670 0.509500 0.500540 1.610599
O10   O     O_3   0.837610 0.448780 0.497060 -0.347247
C5    C     C_R   0.906714 0.865605 0.169765 -0.045680
C6    C     C_R   0.857986 0.636507 0.331012 -0.127463
C7    C     C_R   0.980560 0.654529 0.200914 -0.250832
C8    C     C_R   0.945825 0.604251 0.256657 0.013838
C9    C     C_R   0.795851 0.718559 0.345574 -0.110837
C10   C     C_R   0.832485 0.768844 0.287743 0.132575
C11   C     C_R   0.927018 0.735957 0.215544 0.143343
C12   C     C_R   0.964895 0.784494 0.157615 -0.207513
C13   C     C_R   0.815765 0.898601 0.241554 -0.175280
C14   C     C_R   0.782483 0.851778 0.300312 -0.125584
H1    H     H_    0.033471 0.758391 0.101764 0.105852
H2    H     H_    0.769986 0.961220 0.252223 0.109470
H3    H     H_    0.049095 0.629511 0.144692 0.110085
H4    H     H_    0.717212 0.881804 0.355217 0.171116
C15   C     C_3   0.763105 0.806171 0.737217 -0.072227
C16   C     C_3   0.934623 0.772027 0.684444 -0.223273
H5    H     H_    0.979519 0.791717 0.628424 0.141204
H6    H     H_    0.666974 0.854746 0.724952 0.134179
C17   C     C_3   0.871890 0.684461 0.690510 -0.071749
C18   C     C_3   0.704193 0.717926 0.743024 0.039358
C19   C     C_3   0.829757 0.723436 0.820411 -0.312102
C20   C     C_3   0.998232 0.689145 0.767305 0.038805
C21   C     C_3   0.061627 0.776431 0.761693 0.025828
C22   C     C_3   0.893310 0.810730 0.813722 -0.053193
H7    H     H_    0.784683 0.704105 0.876606 0.121509
C23   C     C_3   0.510290 0.243679 0.309170 -0.091891
C24   C     C_3   0.358083 0.179838 0.270315 0.236771
C25   C     C_3   0.414508 0.190722 0.185440 -0.081981
C26   C     C_3   0.565125 0.255642 0.223937 -0.050974
C27   C     C_3   0.412635 0.322119 0.228616 -0.032769
C28   C     C_3   0.260600 0.257442 0.189278 -0.227884
C29   C     C_3   0.202774 0.245330 0.275120 -0.093841
C30   C     C_3   0.355755 0.310288 0.313701 -0.087692
H8    H     H_    0.165581 0.265504 0.138152 0.171136
H9    H     H_    0.056518 0.238562 0.297450 0.153288
C31   C     C_R   0.398447 0.129767 0.826039 -0.132130
C32   C     C_R   0.366919 0.357587 0.663099 -0.076991
C33   C     C_R   0.537304 0.330751 0.782063 -0.172293
C34   C     C_R   0.501393 0.380469 0.726618 -0.161172
C35   C     C_R   0.267933 0.281455 0.654601 -0.081135
C36   C     C_R   0.315358 0.226932 0.708191 0.027058
C37   C     C_R   0.446699 0.254435 0.773804 0.138604
C38   C     C_R   0.488000 0.205779 0.831014 -0.217523
C39   C     C_R   0.274108 0.099100 0.759144 -0.042923
C40   C     C_R   0.241099 0.145464 0.698195 -0.045182
H10   H     H_    0.584310 0.228717 0.881879 0.125296
H11   H     H_    0.639523 0.351751 0.831208 0.121423
H12   H     H_    0.578158 0.438284 0.734035 0.125467
O11   O     O_R   0.266070 0.085680 0.087850 -0.532998
O12   O     O_R   0.590090 0.070660 0.921580 -0.532168
O13   O     O_R   0.754780 0.914400 0.912080 -0.530095
C41   C     C_R   0.419512 0.085177 0.894025 0.681050
O14   O     O_R   0.596110 0.095130 0.087880 -0.517331
O15   O     O_R   0.760850 0.939050 0.079570 -0.543748
C42   C     C_R   0.428300 0.119460 0.115581 0.737708
O16   O     O_R   0.260010 0.061030 0.920360 -0.544787
O17   O     O_3   0.425070 0.948840 0.997010 -0.359629
V3    V     V_3+5 0.702100 0.009490 0.000550 1.530657
O18   O     O_R   0.090200 0.929250 0.078500 -0.539699
C43   C     C_R   0.921502 0.914100 0.105320 0.688201
O19   O     O_R   0.084180 0.904770 0.912200 -0.526645
C44   C     C_R   0.912353 0.881626 0.883638 0.724721
V4    V     V_3+5 0.201420 0.990350 0.999580 1.516151
O20   O     O_3   0.928580 0.051150 0.002990 -0.357234
C45   C     C_2   0.113190 0.622727 0.791349 0.354743
H13   H     H_    0.190040 0.633913 0.849050 0.040374
O21   O     O_2   0.118420 0.555781 0.747587 -0.545643
C46   C     C_2   0.259392 0.812850 0.770301 0.370654
H14   H     H_    0.320360 0.835448 0.720210 0.057431
O22   O     O_2   0.354046 0.815899 0.832463 -0.543939
N1    N     N_2   0.330763 0.100521 0.290906 -0.551267
H15   H     H_    0.453071 0.066237 0.284554 0.235779
C47   C     C_3   0.233368 0.099792 0.365414 -0.429066
H16   H     H_    0.222646 0.036434 0.375741 0.213988
H17   H     H_    0.085551 0.122879 0.361986 0.204335
H18   H     H_    0.313844 0.137764 0.416943 0.231943
C48   C     C_2   0.650729 0.231841 0.374169 0.330894
H19   H     H_    0.647568 0.176036 0.397604 0.065011
O23   O     O_2   0.770940 0.284447 0.400393 -0.504204
C49   C     C_2   0.761790 0.268620 0.194986 0.312483
H20   H     H_    0.854471 0.315457 0.229684 0.128427
O24   O     O_2   0.816174 0.228964 0.131522 -0.537218
C50   C     C_2   0.444788 0.400982 0.200956 0.364592
H21   H     H_    0.471339 0.400409 0.137843 0.039764
O25   O     O_2   0.443128 0.465647 0.248713 -0.530729
C51   C     C_2   0.189796 0.015691 0.751575 0.351617
H22   H     H_    0.267067 0.971132 0.777285 0.039799
O26   O     O_2   0.031801 0.997124 0.720310 -0.558707
C52   C     C_2   0.155237 0.103145 0.620092 0.393612
H23   H     H_    0.006617 0.082462 0.615912 0.100124
O27   O     O_2   0.252374 0.090556 0.559887 -0.529734
C53   C     C_2   0.109584 0.262047 0.593374 0.412176
H24   H     H_    0.970979 0.241624 0.610741 0.031520
O28   O     O_2   0.134578 0.265873 0.522887 -0.526889
C54   C     C_2   0.999531 0.517527 0.232312 0.399941
H25   H     H_    0.086225 0.498884 0.179544 0.049000
O29   O     O_2   0.943678 0.465463 0.268274 -0.542332
C55   C     C_2   0.697169 0.750356 0.422140 0.392949
H26   H     H_    0.750453 0.735903 0.478454 0.017481
O30   O     O_2   0.549891 0.788913 0.422411 -0.522145
C56   C     C_2   0.517386 0.672466 0.733008 0.408896
H27   H     H_    0.484097 0.633181 0.774847 0.030674
O31   O     O_2   0.411113 0.673913 0.674955 -0.528623

loop_
_geom_bond_atom_site_label_1
_geom_bond_atom_site_label_2
_ccdc_geom_bond_type
O12   C41   A    
C27   C50   S    
C48   H19   S    
O11   V4    S    
C6    C9    A    
O17   V3    S    
C4    C6    S    
O2    C1    A    
C54   H25   S    
C12   H1    S    
C1    O6    A    
C55   H26   S    
O19   C44   A    
C35   C36   A    
C13   H2    S    
C52   O27   D    
C27   C30   S    
C18   C19   S    
C46   O22   D    
C21   C46   S    
C19   C22   S    
C56   O31   D    
O5    C3    A    
C20   C21   S    
C33   H11   S    
V2    O10   S    
C23   C48   S    
C53   H24   S    
C25   C42   S    
C16   C21   S    
O14   C42   A    
C35   C53   S    
C31   C39   A    
C15   C22   S    
C33   C34   A    
O8    V2    S    
C29   H9    S    
C50   H21   S    
C49   O24   D    
O15   V3    S    
C5    C43   S    
C11   C12   A    
O1    V2    S    
C47   H17   S    
C40   C52   S    
O7    V1    S    
C31   C41   S    
C25   C28   S    
O19   V4    S    
C48   O23   D    
V3    O20   S    
O9    C4    A    
C49   H20   S    
O13   C44   A    
C39   C51   S    
C45   O21   D    
C45   H13   S    
C28   H8    S    
C32   C34   A    
C5    C12   A    
C16   C17   S    
C17   C20   S    
C46   H14   S    
C21   C22   S    
O4    C2    A    
C13   C14   A    
C26   C27   S    
C39   C40   A    
C47   H18   S    
C17   C18   S    
C7    C11   A    
O18   C43   A    
C19   C20   S    
C31   C38   A    
C8    C54   S    
C15   C16   S    
C41   O16   A    
C34   H12   S    
C33   C37   A    
O17   V4    S    
C15   H6    S    
O14   V3    S    
C54   O29   D    
O13   V3    S    
C3    C17   S    
C51   O26   D    
C18   C56   S    
O3    C4    A    
C29   C30   S    
C50   O25   D    
C14   H4    S    
O6    V2    S    
N1    C47   S    
C20   C45   S    
O15   C43   A    
C22   C44   S    
C23   C24   S    
C2    C32   S    
C7    H3    S    
C25   C26   S    
C24   C29   S    
C32   C35   A    
C27   C28   S    
C38   H10   S    
O12   V3    S    
O1    C2    A    
C10   C11   A    
C9    C55   S    
C28   C29   S    
O5    V1    S    
C55   O30   D    
O8    C3    A    
C36   C40   A    
O16   V4    S    
C52   H23   S    
C1    C30   S    
C24   N1    S    
C16   H5    S    
C7    C8    A    
O9    V2    S    
C37   C38   A    
C5    C13   A    
O4    V1    S    
O3    V1    S    
O11   C42   A    
C56   H27   S    
C36   C37   A    
C24   C25   S    
C53   O28   D    
C6    C8    A    
C19   H7    S    
C51   H22   S    
C23   C30   S    
V4    O20   S    
N1    H15   S    
C10   C14   A    
C15   C18   S    
V1    O10   S    
C47   H16   S    
C9    C10   A    
C26   C49   S    
O18   V4    S    
C23   C26   S    
O7    V2    S    
O2    V1    S    
