data_mof_unit_43239.cif
_audit_creation_date              2012-12-10T20:44:48-0500
_audit_creation_method            fapswitch 2.2
_symmetry_space_group_name_H-M    P1
_symmetry_Int_Tables_number       1
_space_group_crystal_system       triclinic
_cell_length_a                    9.876919
_cell_length_b                    10.679945
_cell_length_c                    16.813818
_cell_angle_alpha                 89.218565
_cell_angle_beta                  95.656174
_cell_angle_gamma                 89.710831
_cell_volume                      1764.76898662

loop_
_atom_site_label
_atom_site_type_symbol
_atom_type_description
_atom_site_fract_x
_atom_site_fract_y
_atom_site_fract_z
_atom_type_partial_charge
C1    C     C_R   0.499803 0.259972 0.497559 0.880906
C2    C     C_R   0.497993 0.128778 0.484615 -0.105472
C3    C     C_R   0.373731 0.065976 0.469820 -0.224724
C4    C     C_R   0.518937 0.499745 0.653176 0.875454
C5    C     C_R   0.373389 0.936468 0.469624 -0.221136
C6    C     C_R   0.497298 0.871577 0.484219 -0.102505
C7    C     C_R   0.619644 0.935499 0.483629 0.126698
C8    C     C_3   0.746285 0.925745 0.539934 -0.469841
C9    C     C_3   0.746306 0.067528 0.540517 -0.496806
C10   C     C_R   0.077083 0.397847 0.527355 0.179158
C11   C     C_R   0.065338 0.594336 0.464239 -0.128582
C12   C     C_R   0.633539 0.589117 0.775808 -0.294816
C13   C     C_R   0.921257 0.593609 0.463420 -0.142302
C14   C     C_R   0.935901 0.400892 0.531483 0.204022
C15   C     C_3   0.955074 0.347411 0.615792 -0.108346
C16   C     C_R   0.499262 0.740016 0.497313 0.882704
C17   C     C_3   0.106667 0.336140 0.606724 -0.520972
C18   C     C_R   0.480935 0.505052 0.346670 0.866504
C19   C     C_R   0.531977 0.512698 0.738901 -0.052799
C20   C     C_R   0.435721 0.457377 0.782947 -0.220320
C21   C     C_R   0.439491 0.479247 0.863686 -0.169440
C22   C     C_R   0.538939 0.558646 0.901587 0.264207
C23   C     C_R   0.565860 0.594498 0.142798 -0.146701
C24   C     C_R   0.639055 0.612870 0.857700 -0.041338
C25   C     C_3   0.927044 0.431781 0.686632 -0.324272
C26   C     C_3   0.958753 0.571234 0.676653 -0.784833
C27   C     C_2   0.747371 0.696588 0.895037 0.908766
C28   C     C_R   0.577453 0.573194 0.224348 -0.240837
C29   C     C_R   0.443475 0.566140 0.096298 0.324280
C30   C     C_R   0.466938 0.525498 0.260860 -0.027211
C31   C     C_R   0.342519 0.504290 0.215562 -0.216552
C32   C     C_R   0.331225 0.524616 0.133402 -0.192126
C33   C     C_R   0.620000 0.063269 0.483899 0.144240
H1    H     H_    0.673153 0.593928 0.258707 0.164577
H2    H     H_    0.174109 0.392369 0.648901 0.227388
H3    H     H_    0.654022 0.629232 0.116159 0.187054
H4    H     H_    0.141300 0.237723 0.601117 0.176565
H5    H     H_    0.704834 0.634083 0.739851 0.191386
H6    H     H_    0.255399 0.469435 0.243263 0.162547
H7    H     H_    0.365007 0.432915 0.896806 0.157564
H8    H     H_    0.236742 0.503017 0.098080 0.146704
H9    H     H_    0.357616 0.397185 0.754898 0.145938
H10   H     H_    0.277242 0.115609 0.464092 0.169050
H11   H     H_    0.060774 0.585359 0.655877 0.255980
H12   H     H_    0.276780 0.888203 0.463814 0.164545
H13   H     H_    0.880575 0.617592 0.634204 0.264144
H14   H     H_    0.957698 0.617711 0.735182 0.266009
H15   H     H_    0.820315 0.420389 0.699646 0.222389
H16   H     H_    0.989351 0.395729 0.740883 0.199054
H17   H     H_    0.823545 0.794000 0.991264 0.343738
H18   H     H_    0.728576 0.882589 0.598581 0.210022
H19   H     H_    0.832822 0.885312 0.511099 0.197675
H20   H     H_    0.727594 0.106594 0.599453 0.199546
H21   H     H_    0.833102 0.108896 0.512173 0.197929
H22   H     H_    0.114419 0.671838 0.436864 0.141669
H23   H     H_    0.861901 0.670178 0.435037 0.145453
H24   H     H_    0.907996 0.253956 0.620383 0.135197
N1    N     N_2   0.545818 0.575525 0.984736 -0.146340
N2    N     N_2   0.433803 0.565039 0.012158 -0.195132
N3    N     N_R   0.142860 0.499130 0.500540 -0.101319
N4    N     N_R   0.857210 0.499170 0.500530 -0.104404
O1    O     O_R   0.614690 0.316790 0.499990 -0.616986
O2    O     O_R   0.744265 0.737675 0.973460 -0.806506
O3    O     O_R   0.385350 0.316760 0.500000 -0.621713
O4    O     O_R   0.627460 0.498860 0.616130 -0.625798
O5    O     O_R   0.398120 0.498820 0.616130 -0.614951
O6    O     O_R   0.614650 0.683240 0.500000 -0.626524
O7    O     O_R   0.385310 0.683210 0.500010 -0.623528
O8    O     O_R   0.601880 0.501180 0.383870 -0.618341
O9    O     O_R   0.372540 0.501140 0.383870 -0.620448
O10   O     O_2   0.839727 0.731007 0.856649 -0.654890
Zn1   Zn    Zn3+2 0.653130 0.500020 0.499990 0.937508
Zn2   Zn    Zn3+2 0.346870 0.499980 0.500010 0.942242

loop_
_geom_bond_atom_site_label_1
_geom_bond_atom_site_label_2
_ccdc_geom_bond_type
C22   N1    S    
O8    Zn1   S    
C10   N3    A    
C32   H8    S    
C18   O9    A    
C6    C7    A    
C16   O7    A    
O4    Zn1   S    
C7    C33   A    
C8    H19   S    
O3    Zn2   S    
C20   H9    S    
C19   C20   A    
C25   H15   S    
C24   C27   S    
C30   C31   A    
O5    Zn2   S    
C13   H23   S    
C1    O1    A    
O9    Zn2   S    
C28   C30   A    
C2    C3    A    
C25   C26   S    
O1    Zn1   S    
C7    C8    S    
C14   N4    A    
C16   O6    A    
C17   H4    S    
C21   C22   A    
C9    C33   S    
H17   O2    S    
C15   H24   S    
C8    H18   S    
C3    H10   S    
C5    C6    A    
C21   H7    S    
C27   O2    S    
C26   H14   S    
C18   O8    A    
C26   H11   S    
C18   C30   S    
C23   C29   A    
C2    C33   A    
C31   H6    S    
O6    Zn1   S    
C29   C32   A    
C22   C24   A    
C12   H5    S    
C4    O4    A    
C25   H16   S    
C15   C25   S    
N1    N2    D    
C9    H20   S    
C26   H13   S    
C10   C17   S    
C28   H1    S    
C11   N3    A    
C23   H3    S    
C1    O3    A    
N3    Zn2   S    
C11   C13   A    
C11   H22   S    
C20   C21   A    
N4    Zn1   S    
C1    C2    S    
C10   C14   A    
C13   N4    A    
C15   C17   S    
C12   C24   A    
C14   C15   S    
C9    H21   S    
C17   H2    S    
C12   C19   A    
O7    Zn2   S    
C23   C28   A    
C4    C19   S    
C5    H12   S    
C6    C16   S    
C31   C32   A    
C4    O5    A    
C29   N2    S    
C27   O10   D    
C8    C9    S    
C3    C5    A    
