data_mof_unit_42077.cif
_audit_creation_date              2012-12-11T14:17:32-0500
_audit_creation_method            fapswitch 2.2
_symmetry_space_group_name_H-M    P1
_symmetry_Int_Tables_number       1
_space_group_crystal_system       triclinic
_cell_length_a                    6.946691
_cell_length_b                    13.656818
_cell_length_c                    20.472116
_cell_angle_alpha                 102.433252
_cell_angle_beta                  89.99212
_cell_angle_gamma                 90.614566
_cell_volume                      1896.52052574

loop_
_atom_site_label
_atom_site_type_symbol
_atom_type_description
_atom_site_fract_x
_atom_site_fract_y
_atom_site_fract_z
_atom_type_partial_charge
O1    O     O_R   0.506860 0.599390 0.449240 -0.537969
O2    O     O_R   0.180220 0.594600 0.586780 -0.543200
O3    O     O_R   0.004500 0.400610 0.550760 -0.540110
C1    C     C_R   0.348968 0.615204 0.613740 0.741181
O4    O     O_R   0.177490 0.611290 0.451970 -0.542961
O5    O     O_R   0.001750 0.417420 0.414990 -0.539315
C2    C     C_R   0.346897 0.637060 0.434526 0.701230
O6    O     O_R   0.509610 0.582580 0.585010 -0.543366
O7    O     O_3   0.337420 0.436370 0.488020 -0.372676
V1    V     V_3+5 0.064680 0.511800 0.502220 1.419598
O8    O     O_R   0.671710 0.405400 0.413220 -0.546049
C3    C     C_R   0.839717 0.384313 0.386451 0.741891
O9    O     O_R   0.674440 0.388710 0.548030 -0.542844
C4    C     C_R   0.842813 0.361785 0.563891 0.696486
V2    V     V_3+5 0.564010 0.488200 0.497780 1.418687
O10   O     O_3   0.841140 0.563630 0.511980 -0.373827
C5    C     C_R   0.859281 0.108921 0.604842 -0.150917
H1    H     H_    0.851726 0.163007 0.514121 0.102108
H2    H     H_    0.864356 0.980913 0.681507 0.123892
H3    H     H_    0.861574 0.031237 0.578127 0.111951
C6    C     C_R   0.850319 0.283507 0.601635 -0.028587
C7    C     C_R   0.859560 0.306756 0.922770 -0.164620
C8    C     C_R   0.854234 0.382400 0.887673 -0.112878
C9    C     C_R   0.854070 0.359549 0.818369 -0.138271
C10   C     C_R   0.857621 0.258905 0.781487 0.046005
C11   C     C_R   0.860676 0.179307 0.817343 0.041643
C12   C     C_R   0.857179 0.235723 0.709987 0.069578
C13   C     C_R   0.860541 0.134264 0.675080 0.098106
C14   C     C_R   0.863092 0.057887 0.709791 -0.183480
C15   C     C_R   0.861153 0.077568 0.779529 0.105142
C16   C     C_R   0.852758 0.309924 0.671363 -0.200830
C17   C     C_R   0.853657 0.183356 0.568287 -0.172908
C18   C     C_R   0.862988 0.206251 0.889200 -0.065766
H4    H     H_    0.850019 0.388966 0.693226 0.090951
H5    H     H_    0.860752 0.326869 0.976990 0.102193
H6    H     H_    0.850740 0.423383 0.795517 0.106700
H7    H     H_    0.850317 0.459865 0.914465 0.114381
C19   C     C_2   0.005105 0.290094 0.284611 -0.122850
C20   C     C_2   0.842038 0.316316 0.319524 -0.324865
H8    H     H_    0.142160 0.319117 0.306490 0.141128
H9    H     H_    0.703457 0.287969 0.299258 0.128726
C21   C     C_2   0.013579 0.222029 0.216984 -0.124288
C22   C     C_2   0.858525 0.183785 0.180189 -0.313088
H10   H     H_    0.156438 0.203423 0.196835 0.136011
H11   H     H_    0.714372 0.201709 0.198723 0.127974
C23   C     C_2   0.204375 0.778924 0.786380 -0.139414
C24   C     C_2   0.364524 0.818061 0.819135 -0.288211
H12   H     H_    0.065824 0.794873 0.810615 0.134235
H13   H     H_    0.504598 0.802195 0.796380 0.127162
C25   C     C_2   0.202722 0.713858 0.717714 -0.128516
C26   C     C_2   0.360902 0.681284 0.681242 -0.307639
H14   H     H_    0.061366 0.691152 0.696839 0.132634
H15   H     H_    0.504095 0.700892 0.700919 0.125047
C27   C     C_R   0.431535 0.883580 0.385784 -0.165247
H16   H     H_    0.431040 0.833639 0.478197 0.106323
H17   H     H_    0.454249 0.008064 0.303321 0.116436
H18   H     H_    0.464592 0.960389 0.410472 0.114144
C28   C     C_R   0.360455 0.713535 0.394313 -0.061464
C29   C     C_R   0.329469 0.684674 0.069930 0.379373
C30   C     C_R   0.340539 0.607369 0.104469 -0.268320
C31   C     C_R   0.367116 0.627323 0.173797 0.392415
C32   C     C_R   0.368997 0.728404 0.211590 -0.031835
C33   C     C_R   0.375635 0.806889 0.175222 -0.055392
C34   C     C_R   0.373517 0.755022 0.283463 0.097846
C35   C     C_R   0.411661 0.856423 0.315920 0.137836
C36   C     C_R   0.427708 0.930494 0.278752 -0.196961
C37   C     C_R   0.404814 0.906755 0.209878 -0.141189
C38   C     C_R   0.336523 0.685940 0.324796 -0.203288
C39   C     C_R   0.410684 0.811994 0.424525 -0.167234
C40   C     C_R   0.356262 0.784134 0.104527 -0.184042
H19   H     H_    0.284914 0.610840 0.305072 0.171191
H20   H     H_    0.335643 0.530273 0.076744 0.158323
H21   H     H_    0.413467 0.967777 0.183853 0.107288
O11   O     O_R   0.203230 0.917310 0.915020 -0.544234
O12   O     O_R   0.535500 0.888690 0.048040 -0.541253
O13   O     O_R   0.711080 0.082610 0.085000 -0.545478
C41   C     C_R   0.366394 0.862993 0.065574 0.780762
O14   O     O_R   0.532630 0.905370 0.913230 -0.549883
O15   O     O_R   0.708190 0.099410 0.949230 -0.542107
C42   C     C_R   0.364414 0.884066 0.886594 0.759458
O16   O     O_R   0.206120 0.900510 0.050790 -0.544187
O17   O     O_3   0.375360 0.063570 0.011990 -0.375173
V3    V     V_3+5 0.648170 0.988200 0.997780 1.416624
O18   O     O_R   0.038240 0.111390 0.951940 -0.543807
C43   C     C_R   0.870322 0.133749 0.932212 0.704451
O19   O     O_R   0.041120 0.094710 0.086750 -0.542550
C44   C     C_R   0.872511 0.115917 0.113451 0.746236
V4    V     V_3+5 0.148810 0.011930 0.002180 1.419014
O20   O     O_3   0.871750 0.936430 0.988010 -0.374582
O21   O     O_3   0.315089 0.662446 0.000910 -0.553099
C45   C     C_3   0.122336 0.636325 0.983090 -0.236484
H22   H     H_    0.022934 0.698378 0.004610 0.144088
H23   H     H_    0.078158 0.566191 0.998637 0.128873
H24   H     H_    0.109245 0.622497 0.927845 0.160334
O22   O     O_3   0.399563 0.546133 0.202335 -0.563485
C46   C     C_3   0.599920 0.531281 0.204595 -0.256582
H25   H     H_    0.674847 0.597825 0.235518 0.144537
H26   H     H_    0.662554 0.512787 0.153405 0.142551
H27   H     H_    0.626155 0.466762 0.228248 0.165268
C47   C     C_3   0.854450 0.986107 0.809416 -0.759945
H28   H     H_    0.852738 0.914872 0.771055 0.180033
H29   H     H_    0.983531 0.984070 0.840392 0.219331
H30   H     H_    0.719911 0.986068 0.837874 0.219889

loop_
_geom_bond_atom_site_label_1
_geom_bond_atom_site_label_2
_ccdc_geom_bond_type
O15   V3    S    
O22   C46   S    
C1    O6    A    
C24   H13   S    
C27   C35   A    
C7    H5    S    
C6    C16   A    
C9    H6    S    
C34   C38   A    
C4    C6    S    
C13   C14   A    
C19   C21   S    
O5    C3    A    
C19   C20   D    
O14   C42   A    
C30   H20   S    
V2    O10   S    
C46   H27   S    
C15   C47   S    
C5    H3    S    
C18   C43   S    
C32   C34   A    
O8    V2    S    
O14   V3    S    
C46   H26   S    
C25   H14   S    
C8    C9    A    
H17   C36   S    
C37   H21   S    
O7    V1    S    
C2    C28   S    
C36   C37   A    
C29   C30   A    
O11   C42   A    
O9    C4    A    
C40   C41   S    
C21   H10   S    
C24   C42   S    
O13   V3    S    
C23   H12   S    
V3    O20   S    
C6    C17   A    
C33   C37   A    
C1    C26   S    
C12   C16   A    
C9    C10   A    
C20   H9    S    
C45   H22   S    
O4    C2    A    
O19   C44   A    
C10   C11   A    
C8    H7    S    
C47   H30   S    
C30   C31   A    
C26   H15   S    
C29   O21   S    
O2    C1    A    
C14   C15   A    
C45   H23   S    
C22   H11   S    
C11   C18   A    
C33   C40   A    
C41   O16   A    
C46   H25   S    
C32   C33   A    
C47   H29   S    
C25   C26   D    
C16   H4    S    
O18   C43   A    
O12   C41   A    
O13   C44   A    
H16   C39   S    
O3    C4    A    
O1    V2    S    
C28   C38   A    
C11   C15   A    
O6    V2    S    
O9    V2    S    
H1    C17   S    
C21   C22   D    
O2    V1    S    
O15   C43   A    
C7    C18   A    
C23   C24   D    
O1    C2    A    
C5    C13   A    
O18   V4    S    
O5    V1    S    
O8    C3    A    
C31   O22   S    
C28   C39   A    
C10   C12   A    
C23   C25   S    
C22   C44   S    
C34   C35   A    
C3    C20   S    
O7    V2    S    
O4    V1    S    
O3    V1    S    
V1    O10   S    
C45   H24   S    
C19   H8    S    
O12   V3    S    
O21   C45   S    
C27   C39   A    
C38   H19   S    
O17   V4    S    
C47   H28   S    
O19   V4    S    
C35   C36   A    
C31   C32   A    
O16   V4    S    
C29   C40   A    
V4    O20   S    
O17   V3    S    
C12   C13   A    
C5    C17   A    
C7    C8    A    
O11   V4    S    
C27   H18   S    
H2    C14   S    
