data_mof_unit_52652.cif
_audit_creation_date              2013-03-05T15:46:31-0500
_audit_creation_method            fapswitch 2.2
_symmetry_space_group_name_H-M    P1
_symmetry_Int_Tables_number       1
_space_group_crystal_system       triclinic
_cell_length_a                    6.940164
_cell_length_b                    16.738576
_cell_length_c                    17.042467
_cell_angle_alpha                 100.371466
_cell_angle_beta                  89.115947
_cell_angle_gamma                 91.609837
_cell_volume                      1946.57283775

loop_
_atom_site_label
_atom_site_type_symbol
_atom_site_description
_atom_site_fract_x
_atom_site_fract_y
_atom_site_fract_z
_atom_type_partial_charge
O1    O     O_R   0.506180 0.438940 0.579430 -0.611259
O2    O     O_R   0.170520 0.406230 0.413590 -0.525327
O3    O     O_R   0.005180 0.561060 0.420570 -0.557886
C1    C     C_R   0.339605 0.382625 0.385662 1.077358
O4    O     O_R   0.176140 0.429310 0.578370 -0.585514
O5    O     O_R   0.010830 0.584300 0.586530 -0.581817
C2    C     C_R   0.341512 0.413341 0.605155 1.004970
O6    O     O_R   0.500520 0.415700 0.413470 -0.616007
O7    O     O_3   0.340830 0.550820 0.502480 -0.275756
V1    V     V_3+5 0.064040 0.490570 0.499540 1.266501
O8    O     O_R   0.681400 0.593770 0.586410 -0.603769
C3    C     C_R   0.851149 0.617197 0.614175 1.059381
O9    O     O_R   0.675790 0.570690 0.421630 -0.615187
C4    C     C_R   0.846834 0.584886 0.393754 1.147515
V2    V     V_3+5 0.564650 0.509430 0.500460 1.204694
O10   O     O_3   0.837730 0.449180 0.497520 -0.273342
C5    C     C_R   0.897584 0.862910 0.167747 -0.129871
C6    C     C_R   0.866487 0.632588 0.328110 -0.311171
C7    C     C_R   0.016701 0.656741 0.203368 -0.301873
C8    C     C_R   0.977245 0.604223 0.258097 0.323391
C9    C     C_R   0.787143 0.710364 0.338071 -0.240731
C10   C     C_R   0.823351 0.761354 0.281737 0.196141
C11   C     C_R   0.942527 0.734951 0.214714 0.155907
C12   C     C_R   0.981719 0.786351 0.158790 -0.245251
C13   C     C_R   0.777109 0.888152 0.234165 -0.157174
C14   C     C_R   0.742555 0.838499 0.291166 -0.188113
H1    H     H_    0.071220 0.765647 0.106792 0.129441
H2    H     H_    0.709270 0.946613 0.241864 0.125601
H3    H     H_    0.102765 0.635943 0.150428 0.181169
H4    H     H_    0.650073 0.859951 0.341955 0.125698
H5    H     H_    0.701101 0.731975 0.390889 0.164206
H6    H     H_    0.664104 0.636892 0.973206 0.161310
C15   C     C_R   0.028988 0.905159 0.727211 -0.169660
C16   C     C_R   0.080665 0.919130 0.651625 -0.218621
C17   C     C_R   0.060095 0.857421 0.585858 -0.229266
C18   C     C_R   0.988622 0.780865 0.594810 0.694318
C19   C     C_R   0.937121 0.764060 0.671518 -0.082594
C20   C     C_R   0.956894 0.828139 0.738876 0.061524
C21   C     C_R   0.864141 0.686307 0.682449 -0.250227
C22   C     C_R   0.809290 0.673598 0.759987 0.035808
C23   C     C_R   0.827880 0.738019 0.826698 0.145499
C24   C     C_R   0.901744 0.815170 0.816157 -0.243110
C25   C     C_R   0.738002 0.596792 0.772851 -0.387338
C26   C     C_R   0.685602 0.584083 0.849010 0.840078
C27   C     C_R   0.703946 0.647053 0.914046 -0.267435
C28   C     C_R   0.774603 0.723141 0.903397 -0.272177
H7    H     H_    0.045529 0.955734 0.776216 0.127083
H8    H     H_    0.135544 0.978467 0.643970 0.153925
H9    H     H_    0.098621 0.869147 0.527091 0.152768
H10   H     H_    0.722533 0.545592 0.724411 0.142559
H11   H     H_    0.788217 0.769832 0.956052 0.138602
H12   H     H_    0.626412 0.485246 0.158334 0.120915
C29   C     C_R   0.223762 0.213133 0.396437 0.700547
C30   C     C_R   0.171588 0.133269 0.401881 -0.226145
C31   C     C_R   0.197542 0.070962 0.337370 -0.233135
C32   C     C_R   0.277289 0.087658 0.266628 -0.166794
C33   C     C_R   0.329562 0.168097 0.258051 0.077174
C34   C     C_R   0.300935 0.232857 0.324095 -0.084441
C35   C     C_R   0.413565 0.183676 0.185511 -0.261561
C36   C     C_R   0.470743 0.264049 0.178886 0.122365
C37   C     C_R   0.441926 0.329037 0.244205 0.094258
C38   C     C_R   0.354853 0.314020 0.316616 -0.275866
C39   C     C_R   0.553353 0.281578 0.107176 -0.188825
C40   C     C_R   0.609944 0.360519 0.100385 -0.083271
C41   C     C_R   0.583484 0.423843 0.164053 0.040212
C42   C     C_R   0.499595 0.408765 0.234908 -0.041582
H13   H     H_    0.112441 0.119443 0.457213 0.154016
H14   H     H_    0.158167 0.009040 0.342513 0.157837
H15   H     H_    0.299689 0.036294 0.219228 0.132503
H16   H     H_    0.574849 0.234798 0.055366 0.123623
H17   H     H_    0.673579 0.372665 0.045193 0.144823
H18   H     H_    0.478172 0.460847 0.281575 0.109837
C43   C     C_R   0.431030 0.140940 0.834459 -0.139290
C44   C     C_R   0.334715 0.359434 0.665936 -0.113784
C45   C     C_R   0.144580 0.298147 0.762903 -0.202854
C46   C     C_R   0.163450 0.353229 0.710423 -0.107285
C47   C     C_R   0.488930 0.309735 0.676273 -0.223583
C48   C     C_R   0.469819 0.253278 0.728484 0.218451
C49   C     C_R   0.295921 0.247143 0.771958 0.210357
C50   C     C_R   0.276812 0.190663 0.824157 -0.279211
C51   C     C_R   0.602283 0.147166 0.789961 -0.147367
C52   C     C_R   0.621156 0.202275 0.737519 -0.220805
H19   H     H_    0.144632 0.187128 0.858261 0.142318
H20   H     H_    0.723650 0.109514 0.796106 0.134888
H21   H     H_    0.010747 0.295068 0.795966 0.139419
H22   H     H_    0.754979 0.205360 0.704450 0.129862
H23   H     H_    0.042084 0.390864 0.704229 0.133923
H24   H     H_    0.621106 0.313248 0.642160 0.137868
O11   O     O_R   0.265840 0.084300 0.086750 -0.586031
O12   O     O_R   0.589750 0.070740 0.921690 -0.604504
O13   O     O_R   0.755020 0.915730 0.913400 -0.586777
C53   C     C_R   0.424305 0.086935 0.895163 0.937146
O14   O     O_R   0.595830 0.093740 0.086480 -0.591763
O15   O     O_R   0.761150 0.938890 0.079360 -0.592901
C54   C     C_R   0.427101 0.116477 0.115187 0.930262
O16   O     O_R   0.259710 0.061140 0.920790 -0.595378
O17   O     O_3   0.425260 0.949200 0.997610 -0.267694
V3    V     V_3+5 0.702060 0.009430 0.000450 1.161132
O18   O     O_R   0.090530 0.929220 0.078150 -0.594276
C55   C     C_R   0.919053 0.913716 0.104984 0.927896
O19   O     O_R   0.084440 0.906220 0.913360 -0.591532
C56   C     C_R   0.914744 0.883257 0.885356 0.927036
V4    V     V_3+5 0.201450 0.990520 0.999290 1.163863
O20   O     O_3   0.928380 0.050800 0.002390 -0.272165
F1    F     F_    0.967556 0.724872 0.527221 -0.751822
F2    F     F_    0.617528 0.510023 0.859750 -0.708488
F3    F     F_    0.201178 0.269394 0.463569 -0.736206
N1    N     N_R   0.045307 0.522099 0.239814 0.217087
O21   O     O_R   0.171252 0.502340 0.182780 -0.435649
O22   O     O_R   0.961969 0.464128 0.270552 -0.453601

loop_
_geom_bond_atom_site_label_1
_geom_bond_atom_site_label_2
_geom_bond_distance
_ccdc_geom_bond_type
C34   C38   1.426270 A    
O18   V4    1.967714 S    
C31   C32   1.389230 A    
O19   C56   1.299378 A    
C6    C9    1.408795 A    
C23   C24   1.416425 A    
C4    C6    1.489470 S    
O2    C1    1.304153 A    
C7    C8    1.411227 A    
C12   H1    1.084320 S    
C1    O6    1.290509 A    
O17   V3    2.141402 S    
C47   C48   1.412252 A    
N1    O21   1.300953 A    
C13   H2    1.083602 S    
C9    H5    1.084435 S    
C44   C46   1.411385 A    
C36   C39   1.416480 A    
C18   C19   1.424166 A    
C20   C24   1.418094 A    
O5    C3    1.295413 A    
C33   C35   1.421798 A    
O15   V3    1.996701 S    
V2    O10   2.167420 S    
C1    C38   1.493651 S    
C53   O16   1.306464 A    
C32   C33   1.416907 A    
C16   C17   1.386865 A    
H6    C27   1.082775 S    
C40   H17   1.082639 S    
C48   C52   1.399420 A    
O8    V2    2.005726 S    
C37   C42   1.417902 A    
C45   H21   1.083742 S    
C22   C25   1.417081 A    
C42   H18   1.081024 S    
C17   C18   1.394186 A    
C47   H24   1.084316 S    
C44   C47   1.406128 A    
C17   H9    1.082885 S    
C23   C28   1.415790 A    
O1    V2    1.973865 S    
O7    V1    2.141406 S    
C35   C36   1.415435 A    
O19   V4    2.005858 S    
O9    C4    1.303339 A    
O11   V4    2.006034 S    
C35   C54   1.492485 S    
C50   H19   1.084310 S    
C24   C56   1.487073 S    
C43   C51   1.411454 A    
C31   H14   1.082923 S    
C2    C44   1.490655 S    
C5    C12   1.405463 A    
C21   C22   1.420387 A    
O4    C2    1.293984 A    
C48   C49   1.417347 A    
C30   H13   1.082864 S    
C13   C14   1.401525 A    
C27   C28   1.393157 A    
C28   H11   1.082097 S    
C51   C52   1.397607 A    
C49   C50   1.412411 A    
C36   C37   1.425442 A    
O11   C54   1.290889 A    
C7    C11   1.399928 A    
C45   C46   1.397733 A    
C19   C20   1.428414 A    
C29   F3    1.354703 S    
O12   C53   1.293795 A    
O18   C55   1.304361 A    
C39   H16   1.080998 S    
O15   C55   1.294675 A    
C11   C12   1.413042 A    
C15   C16   1.390025 A    
C46   H23   1.083497 S    
O17   V4    1.715726 S    
O3    C4    1.296667 A    
C22   C23   1.423829 A    
C14   H4    1.083523 S    
O6    V2    2.000272 S    
O9    V2    1.967456 S    
C25   C26   1.393783 A    
C15   H7    1.081797 S    
C16   H8    1.082792 S    
O13   C56   1.294848 A    
O2    V1    1.991325 S    
C51   H20   1.083497 S    
C26   C27   1.389903 A    
C30   C31   1.385812 A    
C18   F1    1.354772 S    
O1    C2    1.306340 A    
C43   C53   1.490805 S    
O5    V1    1.993464 S    
C29   C34   1.425521 A    
C25   H10   1.081817 S    
C29   C30   1.393985 A    
C26   F2    1.356311 S    
C15   C20   1.415938 A    
C5    C13   1.406168 A    
C40   C41   1.387540 A    
C3    C21   1.487591 S    
O7    V2    1.715893 S    
O4    V1    2.008656 S    
C19   C21   1.425617 A    
O3    V1    1.996531 S    
V1    O10   1.697053 S    
C52   H22   1.083748 S    
C33   C34   1.430826 A    
V3    O20   1.697043 S    
C43   C50   1.406247 A    
N1    O22   1.301027 A    
C6    C8    1.424166 A    
C41   C42   1.393044 A    
O13   V3    1.993409 S    
C37   C38   1.425285 A    
C5    C55   1.484921 S    
C39   C40   1.392167 A    
O14   C54   1.302220 A    
C32   H15   1.081420 S    
C10   C14   1.403883 A    
O16   V4    1.968872 S    
V4    O20   2.167401 S    
C10   C11   1.412007 A    
C9    C10   1.410286 A    
C45   C49   1.399530 A    
O14   V3    1.991195 S    
O12   V3    2.008879 S    
H12   C41   1.082860 S    
O8    C3    1.299998 A    
C8    N1    1.444831 S    
C7    H3    1.083478 S    
