data_mof_unit_17403.cif
_audit_creation_date              2012-12-10T19:59:28-0500
_audit_creation_method            fapswitch 2.2
_symmetry_space_group_name_H-M    P1
_symmetry_Int_Tables_number       1
_space_group_crystal_system       triclinic
_cell_length_a                    14.962728
_cell_length_b                    14.129138
_cell_length_c                    10.675544
_cell_angle_alpha                 90.339207
_cell_angle_beta                  90.445392
_cell_angle_gamma                 89.925038
_cell_volume                      2256.81200828

loop_
_atom_site_label
_atom_site_type_symbol
_atom_type_description
_atom_site_fract_x
_atom_site_fract_y
_atom_site_fract_z
_atom_type_partial_charge
C1    C     C_R   0.327557 0.500044 0.502486 0.859081
C2    C     C_R   0.544336 0.106292 0.597336 -0.305039
C3    C     C_R   0.456447 0.203198 0.407967 0.008495
C4    C     C_R   0.544127 0.205663 0.593202 0.008376
C5    C     C_R   0.500869 0.053719 0.502886 0.161070
C6    C     C_R   0.580655 0.894903 0.481198 0.005826
C7    C     C_R   0.421510 0.895661 0.528177 0.006100
C8    C     C_R   0.577503 0.795071 0.480058 -0.074092
C9    C     C_R   0.423389 0.795805 0.524667 -0.067417
C10   C     C_R   0.501101 0.947182 0.504180 0.057253
C11   C     C_R   0.509203 0.499135 0.260540 0.900951
C12   C     C_R   0.672377 0.499989 0.501358 0.858875
C13   C     C_R   0.494806 0.499958 0.740308 0.891390
C14   C     C_R   0.540729 0.577071 0.061884 0.041266
C15   C     C_R   0.529806 0.577867 0.935702 0.046298
C16   C     C_R   0.527389 0.494877 0.129202 -0.211527
C17   C     C_R   0.496649 0.498433 0.873533 -0.184212
C18   C     C_R   0.520416 0.408122 0.062399 0.058880
C19   C     C_R   0.485184 0.412332 0.940146 0.064534
C20   C     C_3   0.508557 0.682313 0.934872 -0.111156
C21   C     C_3   0.521077 0.680295 0.077962 -0.110813
C22   C     C_R   0.096708 0.581331 0.571586 -0.183977
C23   C     C_R   0.183803 0.417314 0.488897 -0.199298
C24   C     C_R   0.908138 0.579024 0.481727 -0.175233
C25   C     C_R   0.188431 0.581658 0.558131 -0.199234
C26   C     C_R   0.816244 0.578115 0.469095 -0.206072
C27   C     C_R   0.231886 0.499973 0.515327 -0.024774
C28   C     C_R   0.768076 0.500256 0.512111 -0.019005
C29   C     C_3   0.556601 0.315074 0.114583 -0.373496
C30   C     C_3   0.622346 0.267122 0.024081 -0.369873
C31   C     C_3   0.661408 0.177253 0.080875 -0.914218
C32   C     C_3   0.428992 0.329847 0.889567 -0.392370
C33   C     C_3   0.334184 0.361462 0.851855 -0.327698
C34   C     C_R   0.811362 0.424276 0.570277 -0.197169
C35   C     C_3   0.280189 0.278965 0.798145 -0.873824
C36   C     C_3   0.669756 0.942001 0.457221 -0.423276
C37   C     C_3   0.674910 0.980462 0.323613 -0.328078
C38   C     C_3   0.769521 0.013279 0.293819 -0.907739
C39   C     C_3   0.334923 0.943935 0.564102 -0.427478
C40   C     C_3   0.336930 0.974271 0.702237 -0.324924
C41   C     C_3   0.248057 0.018055 0.741089 -0.902288
C42   C     C_3   0.414252 0.713607 0.890459 -0.396676
C43   C     C_3   0.336136 0.648583 0.926593 -0.312356
C44   C     C_3   0.246516 0.695913 0.898470 -0.910438
C45   C     C_R   0.092031 0.417377 0.500816 -0.183702
C46   C     C_3   0.600194 0.739972 0.128496 -0.407419
C47   C     C_3   0.693764 0.704003 0.091939 -0.314698
C48   C     C_3   0.766705 0.769227 0.143166 -0.921565
C49   C     C_R   0.903170 0.425784 0.584457 -0.187384
C50   C     C_R   0.048294 0.499742 0.540637 0.118333
C51   C     C_R   0.951726 0.502601 0.538792 0.116967
C52   C     C_R   0.456939 0.103684 0.406897 -0.311744
H1    H     H_    0.637639 0.754989 0.461862 0.137381
H2    H     H_    0.774222 0.364528 0.605901 0.146931
H3    H     H_    0.055047 0.354306 0.474772 0.130649
H4    H     H_    0.936384 0.366826 0.629673 0.128571
H5    H     H_    0.422949 0.065866 0.332012 0.130414
H6    H     H_    0.578275 0.070685 0.673655 0.128680
H7    H     H_    0.421212 0.241104 0.335036 0.116868
H8    H     H_    0.579194 0.245473 0.665048 0.112352
H9    H     H_    0.697874 0.194208 0.169196 0.273870
H10   H     H_    0.607315 0.125790 0.100595 0.260687
H11   H     H_    0.708845 0.144327 0.014005 0.248791
H12   H     H_    0.363351 0.756329 0.544417 0.133212
H13   H     H_    0.588841 0.247615 0.934671 0.217222
H14   H     H_    0.677780 0.316723 0.002863 0.226529
H15   H     H_    0.595636 0.327782 0.201791 0.232891
H16   H     H_    0.500906 0.266484 0.137150 0.185607
H17   H     H_    0.313388 0.249736 0.713535 0.272152
H18   H     H_    0.273507 0.222305 0.869093 0.253688
H19   H     H_    0.212369 0.303933 0.771094 0.251848
H20   H     H_    0.299359 0.390458 0.935351 0.210480
H21   H     H_    0.336288 0.417666 0.779906 0.218104
H22   H     H_    0.462436 0.293820 0.810513 0.217400
H23   H     H_    0.561500 0.722878 0.886192 0.152715
H24   H     H_    0.420959 0.274495 0.961697 0.189885
H25   H     H_    0.788279 0.074249 0.354658 0.265551
H26   H     H_    0.818166 0.954822 0.308254 0.263002
H27   H     H_    0.773042 0.035241 0.194424 0.254327
H28   H     H_    0.655264 0.924327 0.255721 0.223025
H29   H     H_    0.628266 0.040972 0.312144 0.234749
H30   H     H_    0.682460 0.999396 0.526279 0.206357
H31   H     H_    0.724686 0.889840 0.471083 0.190821
H32   H     H_    0.233118 0.081380 0.683392 0.267024
H33   H     H_    0.193168 0.965796 0.729478 0.260741
H34   H     H_    0.458658 0.693785 0.130968 0.167030
H35   H     H_    0.251709 0.039829 0.841095 0.245504
H36   H     H_    0.350517 0.911618 0.762015 0.213865
H37   H     H_    0.390858 0.026905 0.718736 0.229804
H38   H     H_    0.321660 0.005762 0.503220 0.209750
H39   H     H_    0.277831 0.894682 0.548989 0.189790
H40   H     H_    0.238560 0.760646 0.956900 0.261448
H41   H     H_    0.241987 0.715448 0.797994 0.256957
H42   H     H_    0.191296 0.646291 0.919937 0.254556
H43   H     H_    0.339021 0.582018 0.871421 0.211573
H44   H     H_    0.338866 0.630569 0.027556 0.216609
H45   H     H_    0.063387 0.644967 0.603910 0.128115
H46   H     H_    0.402260 0.785714 0.929146 0.190749
H47   H     H_    0.414801 0.720546 0.786918 0.217419
H48   H     H_    0.759835 0.840932 0.102102 0.269097
H49   H     H_    0.762586 0.774368 0.246861 0.259773
H50   H     H_    0.833319 0.740400 0.118103 0.253576
H51   H     H_    0.704980 0.632195 0.131088 0.223636
H52   H     H_    0.699848 0.699904 0.988458 0.217218
H53   H     H_    0.591238 0.813941 0.095772 0.189386
H54   H     H_    0.596061 0.741001 0.232127 0.218470
H55   H     H_    0.945268 0.637913 0.443788 0.129635
H56   H     H_    0.225169 0.645498 0.581129 0.139979
H57   H     H_    0.783065 0.637110 0.423840 0.141893
H58   H     H_    0.216782 0.353516 0.456418 0.152205
N1    N     N_R   0.500000 0.252470 0.500000 -0.087208
N2    N     N_R   0.500000 0.747550 0.500000 -0.107989
O1    O     O_R   0.369060 0.579480 0.500010 -0.632643
O2    O     O_R   0.630940 0.579480 0.499990 -0.632149
O3    O     O_R   0.369050 0.420520 0.500010 -0.619376
O4    O     O_R   0.630950 0.420520 0.499990 -0.626766
O5    O     O_R   0.499990 0.579490 0.316780 -0.616201
O6    O     O_R   0.500010 0.579490 0.683220 -0.614676
O7    O     O_R   0.499980 0.420540 0.316780 -0.636597
O8    O     O_R   0.500020 0.420540 0.683220 -0.627513
Zn1   Zn    Zn3+2 0.500000 0.606140 0.500000 0.922415
Zn2   Zn    Zn3+2 0.500000 0.393860 0.500000 0.924708

loop_
_geom_bond_atom_site_label_1
_geom_bond_atom_site_label_2
_ccdc_geom_bond_type
C7    C10   A    
C23   C45   A    
C9    H12   S    
C31   H9    S    
C11   O7    A    
C13   O6    A    
C37   C38   S    
O4    Zn2   S    
C12   C28   S    
C14   C21   S    
C36   C37   S    
C24   C26   A    
C8    N2    A    
C32   H22   S    
C30   C31   S    
C38   H27   S    
C36   H31   S    
C46   H53   S    
C15   C17   A    
C18   C19   A    
O5    Zn1   S    
C44   H41   S    
C33   H20   S    
C17   C19   A    
C29   H15   S    
O2    Zn1   S    
C35   H18   S    
C3    N1    A    
C49   C51   A    
C22   C25   A    
C43   H43   S    
C5    C52   A    
C23   C27   A    
C40   H37   S    
C39   H38   S    
C44   H40   S    
C22   C50   A    
C24   C51   A    
C28   C34   A    
O3    Zn2   S    
N1    Zn2   S    
C31   H10   S    
C37   H29   S    
C1    O1    A    
C48   H48   S    
C19   C32   S    
C39   H39   S    
O8    Zn2   S    
C50   C51   S    
C12   O2    A    
C15   C20   S    
C41   H35   S    
C37   H28   S    
C47   H51   S    
C31   H11   S    
C36   H30   S    
C39   C40   S    
C18   C29   S    
C6    C8    A    
C38   H26   S    
C41   H32   S    
C20   H23   S    
O6    Zn1   S    
C2    C4    A    
C43   C44   S    
C6    C10   A    
C29   C30   S    
C29   H16   S    
C11   C16   S    
C47   C48   S    
C48   H50   S    
C4    H8    S    
C43   H44   S    
C24   H55   S    
C26   H57   S    
C35   H17   S    
C30   H14   S    
C33   H21   S    
C40   C41   S    
C4    N1    A    
C34   H2    S    
C14   C16   A    
C2    C5    A    
C42   C43   S    
C11   O5    A    
C13   O8    A    
C21   C46   S    
O7    Zn2   S    
C7    C9    A    
C23   H58   S    
C46   C47   S    
C34   C49   A    
C47   H52   S    
C22   H45   S    
C8    H1    S    
C32   H24   S    
C20   C42   S    
C3    C52   A    
C2    H6    S    
C38   H25   S    
C25   C27   A    
C49   H4    S    
C41   H33   S    
C26   C28   A    
C13   C17   S    
C32   C33   S    
C40   H36   S    
C42   H46   S    
C5    C10   S    
C42   H47   S    
C21   H34   S    
C45   C50   A    
C9    N2    A    
C48   H49   S    
C46   H54   S    
C33   C35   S    
C6    C36   S    
C30   H13   S    
C44   H42   S    
C52   H5    S    
C35   H19   S    
N2    Zn1   S    
O1    Zn1   S    
C20   C21   S    
C45   H3    S    
C16   C18   A    
C1    C27   S    
C7    C39   S    
C14   C15   A    
C1    O3    A    
C25   H56   S    
C12   O4    A    
C3    H7    S    
