data_mof_unit_37356.cif
_audit_creation_date              2012-12-11T16:50:52-0500
_audit_creation_method            fapswitch 2.2
_symmetry_space_group_name_H-M    P1
_symmetry_Int_Tables_number       1
_space_group_crystal_system       triclinic
_cell_length_a                    6.925378
_cell_length_b                    28.836115
_cell_length_c                    32.159812
_cell_angle_alpha                 100.819341
_cell_angle_beta                  89.753062
_cell_angle_gamma                 90.471996
_cell_volume                      6307.94348172

loop_
_atom_site_label
_atom_site_type_symbol
_atom_type_description
_atom_site_fract_x
_atom_site_fract_y
_atom_site_fract_z
_atom_type_partial_charge
O1    O     O_R   0.494350 0.453170 0.452520 -0.544603
O2    O     O_R   0.820980 0.455850 0.538220 -0.533113
O3    O     O_R   0.994300 0.546830 0.547480 -0.539907
C1    C     C_R   0.651386 0.446361 0.552343 0.764092
O4    O     O_R   0.823860 0.447590 0.452270 -0.545018
O5    O     O_R   0.997200 0.538510 0.460920 -0.542970
C2    C     C_R   0.654818 0.434693 0.436539 0.702996
O6    O     O_R   0.491440 0.461490 0.539080 -0.513903
O7    O     O_3   0.661790 0.529840 0.502940 -0.376501
V1    V     V_3+5 0.935470 0.494460 0.499450 1.465176
O8    O     O_R   0.327090 0.544150 0.461780 -0.546516
C3    C     C_R   0.158762 0.554401 0.448317 0.694672
O9    O     O_R   0.324210 0.552410 0.547730 -0.535676
C4    C     C_R   0.155465 0.564894 0.563549 0.768582
V2    V     V_3+5 0.435840 0.505540 0.500550 1.468107
O10   O     O_3   0.159650 0.470160 0.497060 -0.358909
C5    C     C_R   0.145077 0.906610 0.863348 -0.186740
H1    H     H_    0.213870 0.940638 0.864039 0.134997
C6    C     C_R   0.152740 0.872697 0.826166 -0.110343
H2    H     H_    0.225681 0.881647 0.798866 0.148154
C7    C     C_R   0.064352 0.828227 0.824037 0.080217
C8    C     C_R   0.968456 0.818604 0.860201 -0.065157
H3    H     H_    0.904450 0.784157 0.859880 0.182626
C9    C     C_R   0.956116 0.852952 0.897247 0.243234
C10   C     C_R   0.045074 0.897384 0.898948 -0.109432
C11   C     C_R   0.909925 0.765462 0.768392 0.393869
C12   C     C_R   0.925791 0.731159 0.731079 -0.170135
H4    H     H_    0.793897 0.716011 0.717219 0.184531
C13   C     C_R   0.103843 0.719616 0.710273 0.018823
C14   C     C_R   0.256038 0.753296 0.722271 0.253628
C15   C     C_R   0.243223 0.786457 0.760072 -0.216214
H5    H     H_    0.364963 0.809795 0.769506 0.187940
C16   C     C_R   0.073610 0.791912 0.784318 0.015176
C17   C     C_R   0.296295 0.664116 0.653515 -0.066983
H6    H     H_    0.430757 0.679838 0.665116 0.188373
C18   C     C_R   0.307794 0.629180 0.617079 -0.132500
H7    H     H_    0.445406 0.623020 0.600919 0.141964
C19   C     C_R   0.145378 0.602162 0.602180 -0.109374
C20   C     C_R   0.977437 0.607825 0.626920 -0.142057
H8    H     H_    0.857470 0.583502 0.618714 0.161460
C21   C     C_R   0.967793 0.641440 0.664526 0.264882
C22   C     C_R   0.120380 0.675442 0.675488 0.068612
C23   C     C_R   0.142228 0.656302 0.283130 0.596444
N1    N     N_R   0.121581 0.676043 0.325153 -0.563482
C24   C     C_R   0.089682 0.723405 0.337810 0.578847
C25   C     C_R   0.076589 0.753022 0.307788 -0.010828
C26   C     C_R   0.099763 0.733587 0.264437 -0.054359
C27   C     C_R   0.138400 0.684859 0.251630 -0.143085
C28   C     C_R   0.040888 0.801600 0.320183 -0.132841
C29   C     C_R   0.027410 0.830597 0.290079 -0.131810
C30   C     C_R   0.048132 0.811760 0.246734 -0.016711
C31   C     C_R   0.083684 0.763109 0.233893 -0.019313
C32   C     C_R   0.102556 0.744005 0.190560 -0.125410
C33   C     C_R   0.141698 0.695739 0.177979 -0.112259
C34   C     C_R   0.166240 0.666547 0.207731 0.383789
C35   C     C_R   0.036112 0.840544 0.215878 0.581131
N2    N     N_R   0.054997 0.821425 0.173608 -0.553292
C36   C     C_R   0.085331 0.773857 0.160693 0.622578
O11   O     O_2   0.160467 0.609082 0.272042 -0.487545
O12   O     O_2   0.070385 0.741818 0.379383 -0.511091
H9    H     H_    0.023129 0.817442 0.353264 0.179077
H10   H     H_    0.000128 0.867841 0.300928 0.181038
O13   O     O_2   0.008771 0.887386 0.228193 -0.510831
O14   O     O_2   0.098130 0.755319 0.119020 -0.490453
H11   H     H_    0.160704 0.680536 0.144770 0.204674
C37   C     C_R   0.206353 0.853914 0.115217 -0.106498
H12   H     H_    0.332246 0.832527 0.117575 0.163339
C38   C     C_R   0.202992 0.882884 0.084735 0.229068
C39   C     C_R   0.040653 0.911777 0.081644 -0.110797
C40   C     C_R   0.882647 0.909182 0.108906 -0.189297
H13   H     H_    0.756071 0.930633 0.107497 0.163889
C41   C     C_R   0.886319 0.879475 0.138739 -0.057667
H14   H     H_    0.762267 0.878078 0.159090 0.145672
C42   C     C_R   0.048923 0.851815 0.142432 0.308452
C43   C     C_R   0.962875 0.633936 0.376381 -0.074506
H15   H     H_    0.824456 0.647069 0.368419 0.115501
C44   C     C_R   0.971782 0.604280 0.406198 -0.185675
H16   H     H_    0.838817 0.595290 0.420761 0.130147
C45   C     C_R   0.149989 0.586548 0.417059 -0.054068
C46   C     C_R   0.318902 0.599384 0.397259 -0.180475
H17   H     H_    0.458380 0.586341 0.404643 0.128096
C47   C     C_R   0.309406 0.628761 0.367188 -0.081756
H18   H     H_    0.440666 0.637940 0.352097 0.115800
C48   C     C_R   0.131417 0.646240 0.356549 0.381260
C49   C     C_R   0.565498 0.224726 0.839099 0.623991
N3    N     N_R   0.583906 0.176891 0.825961 -0.540049
C50   C     C_R   0.617371 0.157663 0.784320 0.686178
C51   C     C_R   0.628258 0.186653 0.753738 -0.024268
C52   C     C_R   0.612666 0.236006 0.766656 -0.053537
C53   C     C_R   0.587940 0.255826 0.810035 -0.142747
C54   C     C_R   0.654016 0.167379 0.710584 -0.114130
C55   C     C_R   0.661325 0.196498 0.680459 -0.131583
C56   C     C_R   0.644263 0.245688 0.692724 -0.015035
C57   C     C_R   0.621045 0.265491 0.735959 -0.014014
C58   C     C_R   0.604937 0.314689 0.748435 -0.124140
C59   C     C_R   0.584435 0.334286 0.791548 -0.108691
C60   C     C_R   0.581354 0.305869 0.822338 0.385404
C61   C     C_R   0.648447 0.275622 0.662718 0.577930
N4    N     N_R   0.632559 0.323640 0.675368 -0.553241
C62   C     C_R   0.612673 0.343370 0.717467 0.623036
O15   O     O_2   0.520318 0.241717 0.879907 -0.491186
O16   O     O_2   0.639139 0.110568 0.772514 -0.483262
H19   H     H_    0.667014 0.129619 0.699856 0.181373
H20   H     H_    0.679921 0.180273 0.647495 0.178018
O17   O     O_2   0.665616 0.256737 0.621203 -0.517321
O18   O     O_2   0.602311 0.390705 0.729477 -0.490734
H21   H     H_    0.575893 0.372209 0.801866 0.204320
C63   C     C_R   0.477251 0.383126 0.640525 -0.101111
H22   H     H_    0.353150 0.382567 0.661046 0.164671
C64   C     C_R   0.479206 0.413715 0.611390 0.229635
C65   C     C_R   0.640557 0.414654 0.584089 -0.120297
C66   C     C_R   0.797368 0.384836 0.587817 -0.200054
H23   H     H_    0.923159 0.384467 0.567641 0.169287
C67   C     C_R   0.794829 0.355036 0.617518 -0.062121
H24   H     H_    0.918600 0.333031 0.620023 0.144935
C68   C     C_R   0.634590 0.353833 0.644091 0.308916
C69   C     C_R   0.406706 0.118481 0.859885 0.327357
C70   C     C_R   0.397756 0.089731 0.890479 -0.237068
H25   H     H_    0.270977 0.067740 0.891634 0.181349
C71   C     C_R   0.551026 0.088600 0.918928 -0.205062
C72   C     C_R   0.714032 0.118514 0.916869 0.335789
C73   C     C_R   0.723562 0.146050 0.885360 -0.090054
H26   H     H_    0.848582 0.168483 0.883769 0.182484
C74   C     C_R   0.571538 0.146470 0.856852 0.242024
C75   C     C_R   0.724601 0.115566 0.122416 -0.154564
H27   H     H_    0.855520 0.097200 0.110808 0.120870
C76   C     C_R   0.735394 0.150961 0.158747 -0.068971
H28   H     H_    0.873741 0.159273 0.174048 0.132043
C77   C     C_R   0.569415 0.175554 0.175188 0.141366
C78   C     C_R   0.392682 0.164551 0.154240 -0.106148
H29   H     H_    0.262989 0.183265 0.166227 0.123287
C79   C     C_R   0.381293 0.128879 0.118032 -0.149982
H30   H     H_    0.242402 0.121001 0.102900 0.122119
C80   C     C_R   0.547195 0.103814 0.101615 -0.053372
C81   C     C_R   0.539272 0.260035 0.210712 -0.207377
H31   H     H_    0.498473 0.268237 0.180435 0.175649
C82   C     C_R   0.554142 0.296712 0.246088 0.298958
C83   C     C_R   0.609172 0.286870 0.285788 -0.005952
C84   C     C_R   0.649257 0.239889 0.288785 -0.142755
H32   H     H_    0.689103 0.231496 0.319045 0.179827
C85   C     C_R   0.636541 0.203344 0.253296 0.287717
C86   C     C_R   0.581379 0.213232 0.213714 -0.055395
C87   C     C_R   0.797032 0.332419 0.347866 0.396053
C88   C     C_R   0.806131 0.368469 0.384357 -0.246529
H33   H     H_    0.940019 0.374578 0.401898 0.119706
C89   C     C_R   0.644053 0.396338 0.398301 -0.079991
C90   C     C_R   0.471741 0.387551 0.375074 -0.160274
H34   H     H_    0.343913 0.408223 0.384788 0.137379
C91   C     C_R   0.462349 0.352393 0.338628 -0.158194
H35   H     H_    0.327807 0.346686 0.321357 0.175604
C92   C     C_R   0.624046 0.324716 0.324421 0.105731
O19   O     O_R   0.699170 0.038480 0.960880 -0.538570
O20   O     O_R   0.366800 0.052460 0.047690 -0.546922
O21   O     O_R   0.193520 0.961530 0.039110 -0.523012
C93   C     C_R   0.535895 0.065388 0.063420 0.673616
O22   O     O_R   0.369630 0.044100 0.961740 -0.538377
O23   O     O_R   0.196370 0.953120 0.952550 -0.533419
C94   C     C_R   0.539506 0.055305 0.949170 0.708096
O24   O     O_R   0.696320 0.046890 0.047450 -0.551871
O25   O     O_3   0.528890 0.970170 0.997080 -0.331956
V3    V     V_3+5 0.255190 0.005530 0.000540 1.505574
O26   O     O_R   0.866460 0.947530 0.952310 -0.523032
C95   C     C_R   0.035282 0.934663 0.937085 0.761594
O27   O     O_R   0.863630 0.955880 0.038270 -0.526167
C96   C     C_R   0.032403 0.944753 0.050985 0.765973
V4    V     V_3+5 0.754830 0.994440 0.999470 1.539123
O28   O     O_3   0.031000 0.029830 0.002920 -0.382278
Br1   Br    Br    0.772231 0.626416 0.702930 -0.503110
O29   O     O_3   0.221017 0.620728 0.192506 -0.586481
H36   H     H_    0.332161 0.614182 0.209771 0.339144
Br2   Br    Br    0.420241 0.878253 0.046854 -0.440255
O30   O     O_3   0.576242 0.328584 0.863971 -0.590160
H37   H     H_    0.677215 0.314201 0.879115 0.340437
Br3   Br    Br    0.261212 0.454968 0.613316 -0.508486
Br4   Br    Br    0.189907 0.119338 0.823185 -0.486418
O31   O     O_3   0.864254 0.122987 0.945387 -0.623370
H38   H     H_    0.812776 0.118121 0.973016 0.293190
Br5   Br    Br    0.824705 0.836791 0.945302 -0.408088
Br6   Br    Br    0.509051 0.359886 0.237690 -0.441847
Br7   Br    Br    0.687855 0.140206 0.260955 -0.469668
O32   O     O_3   0.955595 0.304884 0.334304 -0.640080
H39   H     H_    0.060700 0.312980 0.355303 0.284059
O33   O     O_3   0.734064 0.775000 0.788481 -0.638062
H40   H     H_    0.637250 0.751498 0.774943 0.315946
Br8   Br    Br    0.455630 0.768865 0.685121 -0.539738

loop_
_geom_bond_atom_site_label_1
_geom_bond_atom_site_label_2
_ccdc_geom_bond_type
C75   C80   A    
C27   C34   A    
C37   C38   A    
C50   C51   A    
C3    C45   S    
C24   O12   S    
C56   C57   A    
C13   C22   S    
C12   C13   A    
C85   Br7   S    
O29   H36   S    
O21   V3    S    
O2    C1    A    
C65   C66   A    
C17   C22   A    
C43   H15   S    
C66   C67   A    
C67   H24   S    
C91   H35   S    
C81   H31   S    
C20   C21   A    
C33   H11   S    
C44   H16   S    
O30   H37   S    
C25   C28   A    
C11   C12   A    
C61   O17   S    
C87   O32   S    
C7    C8    A    
O27   C96   A    
C90   C91   A    
C69   C74   A    
C89   C90   A    
C91   C92   A    
O5    C3    A    
C14   C15   A    
C38   Br2   S    
C43   C48   A    
C72   O31   S    
C7    C16   S    
V2    O10   S    
C37   C42   A    
C21   Br1   S    
C63   H22   S    
C17   H6    S    
C21   C22   A    
C52   C57   A    
C28   C29   A    
C70   H25   S    
C90   H34   S    
O26   V4    S    
O8    V2    S    
C81   C86   A    
C58   C59   A    
C38   C39   A    
C15   C16   A    
O21   C96   A    
C40   H13   S    
O1    V2    S    
O25   V4    S    
O20   C93   A    
C23   C27   A    
O23   C95   A    
C53   C60   A    
C17   C18   A    
C54   C55   A    
C23   O11   S    
C2    C89   S    
C11   O33   S    
C69   Br4   S    
C87   C92   A    
C37   H12   S    
O1    C2    A    
O9    C4    A    
C71   C94   S    
C57   C58   A    
C8    H3    S    
C66   H23   S    
C29   C30   A    
C70   C71   A    
C44   C45   A    
C36   O14   S    
C19   C20   A    
C49   C53   A    
O19   C94   A    
C28   H9    S    
C93   O24   A    
C30   C31   A    
C14   Br8   S    
C9    C10   A    
C88   C89   A    
C52   C53   A    
C20   H8    S    
O4    C2    A    
C58   C62   A    
C46   H17   S    
C77   C86   S    
O32   H39   S    
C64   C65   A    
O20   V3    S    
N2    C42   S    
C78   C79   A    
C23   N1    A    
C76   C77   A    
O33   H40   S    
C13   C14   A    
C4    C19   S    
C50   O16   S    
C11   C16   A    
C67   C68   A    
C26   C27   A    
C82   Br6   S    
C51   C54   A    
C32   C36   A    
C59   C60   A    
C5    H1    S    
C35   O13   S    
C25   C26   A    
C31   C32   A    
C43   C44   A    
C72   C73   A    
V3    O28   S    
O3    C4    A    
C41   C42   A    
O31   H38   S    
C59   H21   S    
O22   V3    S    
C61   N4    A    
O6    V2    S    
C47   C48   A    
O9    V2    S    
C9    Br5   S    
V4    O28   S    
C29   H10   S    
C60   O30   S    
N4    C62   A    
C35   N2    A    
C73   C74   A    
C76   H28   S    
O2    V1    S    
O23   V3    S    
N4    C68   S    
C49   O15   S    
N1    C24   A    
O26   C95   A    
O7    V1    S    
C81   C82   A    
C80   C93   S    
C33   C34   A    
C18   H7    S    
C6    C7    A    
N3    C50   A    
C1    C65   S    
C15   H5    S    
C30   C35   A    
C54   H19   S    
C41   H14   S    
N1    C48   S    
C49   N3    A    
O5    V1    S    
O19   V4    S    
C84   H32   S    
C1    O6    A    
C32   C33   A    
C26   C31   A    
C83   C92   S    
C82   C83   A    
C62   O18   S    
O24   V4    S    
C88   H33   S    
C5    C10   A    
O25   V3    S    
C63   C68   A    
C6    H2    S    
O27   V4    S    
C78   H29   S    
C77   C78   A    
O4    V1    S    
O3    V1    S    
V1    O10   S    
C85   C86   A    
C18   C19   A    
N3    C74   S    
C84   C85   A    
N2    C36   A    
C75   H27   S    
C64   Br3   S    
C10   C95   S    
O22   C94   A    
C55   C56   A    
C5    C6    A    
C46   C47   A    
C63   C64   A    
C79   H30   S    
C8    C9    A    
O7    V2    S    
C39   C40   A    
C39   C96   S    
C83   C84   A    
C55   H20   S    
C45   C46   A    
C24   C25   A    
C51   C52   A    
C79   C80   A    
C47   H18   S    
C12   H4    S    
C75   C76   A    
C71   C72   A    
C40   C41   A    
C73   H26   S    
C69   C70   A    
C56   C61   A    
C34   O29   S    
C87   C88   A    
O8    C3    A    
