data_mof_unit_50819.cif
_audit_creation_date              2012-12-10T17:10:26-0500
_audit_creation_method            fapswitch 2.2
_symmetry_space_group_name_H-M    P1
_symmetry_Int_Tables_number       1
_space_group_crystal_system       triclinic
_cell_length_a                    10.970349
_cell_length_b                    13.031299
_cell_length_c                    11.7355
_cell_angle_alpha                 101.441138
_cell_angle_beta                  93.728436
_cell_angle_gamma                 90.335106
_cell_volume                      1640.56341063

loop_
_atom_site_label
_atom_site_type_symbol
_atom_type_description
_atom_site_fract_x
_atom_site_fract_y
_atom_site_fract_z
_atom_type_partial_charge
C1    C     C_R   0.492493 0.298746 0.477275 0.943236
C2    C     C_R   0.499075 0.701531 0.523328 0.792847
C3    C     C_R   0.498132 0.816556 0.539292 -0.127900
C4    C     C_R   0.485931 0.184078 0.463102 -0.054763
C5    C     C_R   0.452803 0.008334 0.347535 -0.245391
C6    C     C_R   0.532095 0.992532 0.654647 -0.211410
C7    C     C_R   0.446156 0.116579 0.356640 -0.071915
C8    C     C_R   0.516903 0.885247 0.649935 -0.007275
C9    C     C_R   0.519922 0.141024 0.560674 -0.185800
C10   C     C_R   0.481183 0.859062 0.438641 -0.242633
C11   C     C_R   0.514593 0.033474 0.553762 0.132648
C12   C     C_R   0.484818 0.966663 0.445839 0.171961
C13   C     C_R   0.433060 0.374730 0.017166 -0.188841
C14   C     C_R   0.577433 0.621981 0.982970 -0.281042
C15   C     C_R   0.430610 0.391088 0.139299 0.125382
C16   C     C_R   0.574403 0.607385 0.860258 0.137989
C17   C     C_R   0.526732 0.556806 0.159672 0.019719
C18   C     C_R   0.479759 0.441166 0.840807 0.097561
C19   C     C_R   0.528171 0.544919 0.036258 0.051743
C20   C     C_R   0.480320 0.452643 0.964140 0.058926
C21   C     C_R   0.261667 0.500717 0.500057 0.843856
C22   C     C_R   0.737268 0.499941 0.499637 0.867038
C23   C     C_R   0.123957 0.507023 0.711771 0.443570
C24   C     C_R   0.872524 0.393172 0.293891 0.402447
C25   C     C_R   0.089458 0.578119 0.809234 -0.172746
C26   C     C_R   0.917638 0.399134 0.186687 -0.181083
C27   C     C_R   0.979560 0.632353 0.803867 -0.032513
C28   C     C_R   0.022303 0.459923 0.182077 -0.134412
C29   C     C_R   0.902506 0.607653 0.701203 -0.190412
C30   C     C_R   0.090262 0.501653 0.286600 -0.209874
C31   C     C_R   0.943671 0.540318 0.601630 0.034901
C32   C     C_R   0.051467 0.485756 0.393614 0.068224
C33   C     C_R   0.066853 0.514233 0.604001 -0.028733
C34   C     C_R   0.929226 0.455340 0.396569 -0.053432
C35   C     C_R   0.870266 0.497284 0.499353 -0.147751
C36   C     C_R   0.126468 0.500227 0.499091 -0.149068
Cu1   Cu    Cu3+1 0.509250 0.507730 0.615930 1.023332
Cu2   Cu    Cu3+1 0.490750 0.492270 0.384070 1.009290
H1    H     H_    0.396917 0.301727 0.964698 0.190446
H2    H     H_    0.617335 0.693484 0.035607 0.144917
H3    H     H_    0.144625 0.586717 0.889650 0.238108
H4    H     H_    0.872890 0.354069 0.107261 0.203342
H5    H     H_    0.814785 0.644651 0.698288 0.182419
H6    H     H_    0.166776 0.553456 0.286260 0.162776
H7    H     H_    0.461797 0.808519 0.354031 0.161616
H8    H     H_    0.547213 0.191342 0.643758 0.158109
H9    H     H_    0.423415 0.956436 0.265979 0.148954
H10   H     H_    0.549058 0.045198 0.738374 0.174486
H11   H     H_    0.442648 0.370025 0.785805 0.173104
H12   H     H_    0.567410 0.626476 0.215074 0.129142
H13   H     H_    0.612944 0.667362 0.821201 0.165663
H14   H     H_    0.391927 0.331388 0.177414 0.193142
N1    N     N_R   0.523180 0.519350 0.790130 -0.206032
N2    N     N_R   0.476820 0.480650 0.209870 -0.206585
O1    O     O_R   0.506570 0.354460 0.582000 -0.590484
O2    O     O_R   0.493430 0.645540 0.418000 -0.609867
O3    O     O_R   0.490940 0.341410 0.386200 -0.541119
O4    O     O_R   0.509060 0.658590 0.613800 -0.581929
O5    O     O_R   0.327470 0.506520 0.597900 -0.555945
O6    O     O_R   0.672530 0.493480 0.402100 -0.559120
O7    O     O_R   0.311840 0.493460 0.402100 -0.601258
O8    O     O_R   0.688160 0.506540 0.597900 -0.585214
C37   C     C_2   0.061646 0.475057 0.067966 0.965533
O9    O     O_2   0.989396 0.455843 0.982499 -0.526095
O10   O     O_R   0.179106 0.511053 0.054256 -0.728490
H15   H     H_    0.239515 0.515342 0.123337 0.294221
C38   C     C_2   0.941346 0.707482 0.906984 0.894114
O11   O     O_2   0.004935 0.722440 0.998547 -0.573327
O12   O     O_R   0.832712 0.762060 0.899704 -0.774515
H16   H     H_    0.816438 0.810559 0.975857 0.348422
S1    S     S_3+6 0.158853 0.378693 0.730182 0.024845
O13   O     O_2   0.240295 0.325038 0.639448 -0.323681
O14   O     O_2   0.217436 0.380095 0.849284 -0.297128
O15   O     O_3   0.026406 0.310265 0.715493 -0.491030
H17   H     H_    0.049421 0.239765 0.728036 0.383309
S2    S     S_3+6 0.781463 0.281879 0.297745 0.018593
O16   O     O_2   0.661657 0.288121 0.230391 -0.275344
O17   O     O_2   0.845351 0.185792 0.239464 -0.257397
O18   O     O_3   0.758325 0.270949 0.435073 -0.554390
H18   H     H_    0.839794 0.256501 0.469344 0.369879
C39   C     C_2   0.511756 0.852002 0.762950 0.855390
O19   O     O_2   0.425300 0.798858 0.780490 -0.581231
O20   O     O_R   0.600572 0.888990 0.852858 -0.738726
H19   H     H_    0.584714 0.864566 0.927471 0.328041
C40   C     C_2   0.381382 0.154157 0.258931 0.891699
O21   O     O_2   0.292067 0.208967 0.277397 -0.548658
O22   O     O_R   0.415795 0.123094 0.144706 -0.723604
H20   H     H_    0.492391 0.079781 0.139475 0.323223

loop_
_geom_bond_atom_site_label_1
_geom_bond_atom_site_label_2
_ccdc_geom_bond_type
O22   H20   S    
C37   O10   S    
C27   C29   A    
C19   C20   A    
S2    O18   S    
Cu1   O8    S    
C21   C36   S    
C40   O21   D    
C22   C35   S    
C5    H9    S    
C6    H10   S    
C32   C36   A    
C24   C26   A    
C21   O5    A    
C22   O6    A    
C33   C36   A    
C18   C20   A    
C34   C35   A    
C16   N1    A    
C18   N1    A    
C23   C33   A    
C31   C33   A    
C21   O7    A    
Cu1   O4    S    
Cu2   O7    S    
Cu1   N1    S    
C9    H8    S    
C29   H5    S    
C30   H6    S    
C4    C7    A    
C39   O20   S    
C39   O19   D    
C40   O22   S    
O15   H17   S    
C38   O11   D    
C15   N2    A    
C23   S1    S    
S2    O16   D    
C5    C12   A    
C3    C8    A    
C25   H3    S    
C6    C11   A    
C5    C7    A    
C24   S2    S    
C6    C8    A    
C24   C34   A    
C8    C39   S    
C38   O12   S    
C32   C34   A    
Cu1   Cu2   S    
C1    O3    A    
C22   O8    A    
Cu2   O3    S    
O20   H19   S    
Cu2   N2    S    
C10   H7    S    
C15   H14   S    
C9    C11   A    
Cu1   O5    S    
C10   C12   A    
Cu2   O6    S    
C13   C15   A    
C14   C16   A    
O18   H18   S    
C26   H4    S    
S1    O14   D    
C16   H13   S    
C13   C20   A    
C14   C19   A    
S2    O17   D    
C17   H12   S    
S1    O15   S    
C11   C12   A    
C2    O4    A    
C25   C27   A    
C26   C28   A    
C1    C4    S    
C28   C30   A    
C2    C3    S    
C1    O1    A    
S1    O13   D    
C29   C31   A    
C3    C10   A    
C2    O2    A    
C30   C32   A    
C7    C40   S    
C17   C19   A    
C31   C35   A    
C23   C25   A    
O12   H16   S    
C13   H1    S    
C27   C38   S    
C14   H2    S    
C37   O9    D    
Cu1   O1    S    
C28   C37   S    
Cu2   O2    S    
O10   H15   S    
C4    C9    A    
C17   N2    A    
C18   H11   S    
