data_mof_unit_59330.cif
_audit_creation_date              2012-12-11T15:37:03-0500
_audit_creation_method            fapswitch 2.2
_symmetry_space_group_name_H-M    P1
_symmetry_Int_Tables_number       1
_space_group_crystal_system       triclinic
_cell_length_a                    15.065492
_cell_length_b                    15.066732
_cell_length_c                    34.847443
_cell_angle_alpha                 91.318607
_cell_angle_beta                  91.822656
_cell_angle_gamma                 60.151723
_cell_volume                      6856.95330984

loop_
_atom_site_label
_atom_site_type_symbol
_atom_type_description
_atom_site_fract_x
_atom_site_fract_y
_atom_site_fract_z
_atom_type_partial_charge
C1    C     C_R   0.610665 0.302598 0.444063 0.543596
C2    C     C_R   0.599158 0.095223 0.762841 -0.113095
C3    C     C_R   0.088647 0.767737 0.885208 -0.126252
C4    C     C_R   0.114997 0.756452 0.846803 -0.121743
C5    C     C_R   0.117205 0.676445 0.824708 0.032224
C6    C     C_R   0.099367 0.603929 0.842148 -0.123845
C7    C     C_R   0.073498 0.614879 0.880627 -0.126245
C8    C     C_R   0.193804 0.578660 0.764709 -0.123275
C9    C     C_R   0.204586 0.574768 0.725152 -0.123331
C10   C     C_R   0.152884 0.664493 0.703389 0.024729
C11   C     C_R   0.090506 0.758293 0.721660 -0.114325
C12   C     C_R   0.079517 0.762193 0.761271 -0.112378
C13   C     C_R   0.597142 0.169353 0.788678 0.027521
C14   C     C_R   0.654840 0.764821 0.164416 -0.120369
C15   C     C_R   0.131362 0.672406 0.783066 0.028014
C16   C     C_R   0.195796 0.726194 0.645044 -0.120284
C17   C     C_R   0.230554 0.708522 0.607540 -0.129510
C18   C     C_R   0.201367 0.564147 0.602426 -0.122171
C19   C     C_R   0.167905 0.581107 0.639900 -0.124154
C20   C     C_R   0.168719 0.659628 0.661927 0.031636
C21   C     C_R   0.237959 0.624382 0.586634 0.023074
C22   C     C_R   0.673165 0.078828 0.906106 0.021482
C23   C     C_R   0.598793 0.063721 0.886453 -0.128926
C24   C     C_R   0.549009 0.194729 0.640624 -0.119477
C25   C     C_R   0.569305 0.097986 0.848753 -0.122295
C26   C     C_3   0.922623 0.546668 0.732260 -0.018612
C27   C     C_3   0.999315 0.520339 0.700725 -0.368417
C28   C     C_R   0.827530 0.621089 0.161126 -0.124428
C29   C     C_R   0.550995 0.219127 0.602352 -0.124258
C30   C     C_R   0.692641 0.248128 0.617793 -0.126297
C31   C     C_R   0.689625 0.225169 0.656061 -0.122703
C32   C     C_R   0.615550 0.201809 0.667951 0.029885
C33   C     C_R   0.620463 0.249630 0.590902 0.023097
C34   C     C_R   0.045358 0.739221 0.048643 0.540741
C35   C     C_R   0.742473 0.687373 0.182887 0.030747
C36   C     C_R   0.747472 0.746732 0.064107 0.543776
C37   C     C_R   0.751434 0.040179 0.050715 0.541327
C38   C     C_R   0.016738 0.722507 0.939719 0.544483
C39   C     C_R   0.717210 0.730016 0.954921 0.541432
C40   C     C_R   0.827024 0.636037 0.121697 -0.127778
C41   C     C_R   0.721415 0.024393 0.942071 0.542293
C42   C     C_R   0.776466 0.582434 0.241585 -0.117272
C43   C     C_R   0.767185 0.575731 0.280958 -0.114664
C44   C     C_R   0.726632 0.664155 0.304253 0.029092
C45   C     C_R   0.700742 0.758420 0.287789 -0.119248
C46   C     C_R   0.613227 0.148430 0.830358 0.031455
C47   C     C_R   0.709423 0.765158 0.248415 -0.118708
C48   C     C_R   0.744623 0.677699 0.224904 0.026578
C49   C     C_R   0.605695 0.733865 0.358549 -0.119261
C50   C     C_R   0.593297 0.610195 0.449411 0.545043
C51   C     C_R   0.573063 0.721013 0.393912 -0.126591
C52   C     C_R   0.732852 0.562132 0.402785 -0.126931
C53   C     C_R   0.765605 0.575200 0.367461 -0.122662
C54   C     C_R   0.700884 0.659390 0.344437 0.032563
C55   C     C_R   0.634840 0.633185 0.415718 0.021847
C56   C     C_R   0.101406 0.729367 0.085242 0.021321
C57   C     C_R   0.682073 0.169614 0.851137 -0.118304
C58   C     C_R   0.144182 0.636775 0.105380 -0.126200
C59   C     C_R   0.166313 0.634528 0.144537 -0.122587
C60   C     C_R   0.147770 0.724254 0.164048 0.029178
C61   C     C_R   0.115921 0.814276 0.143367 -0.122527
C62   C     C_R   0.303554 0.591583 0.442304 0.554506
C63   C     C_R   0.092660 0.816939 0.104090 -0.128368
C64   C     C_R   0.214396 0.752890 0.226919 -0.118619
C65   C     C_R   0.221948 0.745089 0.266911 -0.113046
C66   C     C_R   0.164243 0.711326 0.286716 0.029821
C67   C     C_R   0.095741 0.689834 0.265849 -0.120348
C68   C     C_R   0.711678 0.135204 0.888582 -0.124556
C69   C     C_R   0.089476 0.696130 0.225960 -0.117269
C70   C     C_R   0.150310 0.725554 0.206238 0.024969
C71   C     C_R   0.187665 0.600966 0.342963 -0.097676
C72   C     C_R   0.219005 0.571093 0.381149 0.100663
C73   C     C_R   0.235087 0.722944 0.390959 -0.156915
C74   C     C_R   0.605546 0.300654 0.553759 0.541021
C75   C     C_R   0.202862 0.752139 0.353129 -0.136052
C76   C     C_R   0.182526 0.689565 0.328366 0.010488
C77   C     C_R   0.247828 0.630366 0.405075 0.044798
C78   C     C_R   0.725387 0.096990 0.087324 0.023875
C79   C     C_R   0.592243 0.257898 0.774133 -0.120467
C80   C     C_R   0.801492 0.104205 0.109211 -0.126215
C81   C     C_R   0.786444 0.131481 0.147938 -0.122914
C82   C     C_R   0.694797 0.152947 0.165149 0.031395
C83   C     C_R   0.615284 0.154991 0.142420 -0.119883
C84   C     C_R   0.630528 0.127032 0.103793 -0.125391
C85   C     C_R   0.595132 0.238987 0.223689 -0.117801
C86   C     C_R   0.587430 0.606486 0.559130 0.543014
C87   C     C_R   0.585452 0.245307 0.263430 -0.114477
C88   C     C_R   0.665952 0.175498 0.287303 0.028025
C89   C     C_R   0.756121 0.098960 0.270729 -0.119750
C90   C     C_R   0.596094 0.268995 0.734764 -0.118493
C91   C     C_R   0.765900 0.092851 0.230991 -0.116254
C92   C     C_R   0.685653 0.163114 0.207182 0.028432
C93   C     C_R   0.740154 0.182420 0.351480 -0.119607
C94   C     C_R   0.727185 0.212062 0.389972 -0.125368
C95   C     C_R   0.552508 0.244864 0.385742 -0.124823
C96   C     C_R   0.565538 0.215233 0.347206 -0.122600
C97   C     C_R   0.658097 0.187855 0.329386 0.030431
C98   C     C_R   0.297814 0.589198 0.551594 0.541499
C99   C     C_R   0.631846 0.247853 0.406975 0.019256
C100  C     C_R   0.692174 0.689469 0.919782 0.020356
C101  C     C_R   0.603525 0.192469 0.709173 0.025408
C102  C     C_R   0.768605 0.599649 0.902453 -0.127797
C103  C     C_R   0.756964 0.576529 0.864329 -0.124761
C104  C     C_R   0.668419 0.642189 0.843020 0.035749
C105  C     C_R   0.587519 0.725843 0.861455 -0.117790
C106  C     C_R   0.599306 0.749411 0.899593 -0.129235
C107  C     C_R   0.579344 0.642041 0.781242 -0.140349
C108  C     C_R   0.575112 0.641759 0.741250 -0.174554
C109  C     C_R   0.657800 0.631224 0.720148 0.040208
C110  C     C_R   0.741132 0.717168 0.103518 0.021449
C111  C     C_R   0.746998 0.618543 0.739352 0.278039
C112  C     C_R   0.601727 0.107047 0.723311 -0.115708
C113  C     C_R   0.749521 0.620721 0.779869 -0.111130
C114  C     C_R   0.666400 0.631883 0.800829 -0.011806
C115  C     C_R   0.721640 0.549461 0.656154 -0.085586
C116  C     C_R   0.705853 0.544450 0.616620 -0.137153
C117  C     C_R   0.550363 0.709198 0.619684 -0.128024
C118  C     C_R   0.565778 0.713652 0.659174 -0.125104
C119  C     C_R   0.649797 0.632521 0.677829 0.069019
C120  C     C_R   0.618058 0.622690 0.598214 0.019595
C121  C     C_R   0.064432 0.698937 0.902056 0.023988
C122  C     C_R   0.653972 0.779389 0.125096 -0.124332
Cr1   Cr    Cr6+3 0.426010 0.422500 0.497000 1.022255
Cr2   Cr    Cr6+3 0.651300 0.426310 0.501970 1.008992
Cr3   Cr    Cr6+3 0.422670 0.651170 0.501050 1.006962
Cr4   Cr    Cr6+3 0.905130 0.911420 0.992650 1.009396
Cr5   Cr    Cr6+3 0.911860 0.682710 0.002320 1.008679
Cr6   Cr    Cr6+3 0.682710 0.906840 0.004710 1.010413
H1    H     H_    0.586503 0.842335 0.111961 0.128537
H2    H     H_    0.192368 0.564034 0.160096 0.104805
H3    H     H_    0.048562 0.665998 0.280291 0.104986
H4    H     H_    0.895546 0.587161 0.105872 0.126087
H5    H     H_    0.037987 0.676730 0.210350 0.112690
H6    H     H_    0.172041 0.551962 0.324124 0.095801
H7    H     H_    0.101584 0.884121 0.158097 0.101847
H8    H     H_    0.254814 0.770975 0.408625 0.128955
H9    H     H_    0.875429 0.081350 0.097286 0.121802
H10   H     H_    0.570461 0.122474 0.087499 0.118929
H11   H     H_    0.501814 0.218016 0.330887 0.103822
H12   H     H_    0.497192 0.777094 0.403123 0.126181
H13   H     H_    0.515951 0.306445 0.275533 0.108765
H14   H     H_    0.532457 0.294104 0.205859 0.103936
H15   H     H_    0.840031 0.517587 0.357514 0.099699
H16   H     H_    0.848131 0.131182 0.164882 0.101628
H17   H     H_    0.818877 0.043758 0.288503 0.105917
H18   H     H_    0.835564 0.032113 0.218811 0.109787
H19   H     H_    0.812242 0.161879 0.338421 0.102701
H20   H     H_    0.789936 0.212943 0.405687 0.126998
H21   H     H_    0.543956 0.171226 0.155089 0.101459
H22   H     H_    0.478314 0.271459 0.398129 0.144613
H23   H     H_    0.895788 0.560636 0.174880 0.099704
H24   H     H_    0.840704 0.551268 0.917319 0.123254
H25   H     H_    0.538845 0.818880 0.912178 0.123864
H26   H     H_    0.510111 0.778809 0.675446 0.103534
H27   H     H_    0.786477 0.502251 0.292763 0.105021
H28   H     H_    0.506885 0.650022 0.726623 0.116814
H29   H     H_    0.514283 0.651246 0.796907 0.117903
H30   H     H_    0.819634 0.510642 0.850777 0.096424
H31   H     H_    0.813966 0.618659 0.795286 0.096858
H32   H     H_    0.786874 0.485967 0.670135 0.117325
H33   H     H_    0.759202 0.476645 0.600949 0.118960
H34   H     H_    0.782641 0.494152 0.419177 0.123289
H35   H     H_    0.518491 0.777606 0.845542 0.103790
H36   H     H_    0.481987 0.770796 0.606456 0.127243
H37   H     H_    0.083068 0.832713 0.901235 0.121745
H38   H     H_    0.803583 0.514146 0.223912 0.104680
H39   H     H_    0.054715 0.561007 0.892872 0.124882
H40   H     H_    0.146655 0.529343 0.652280 0.096936
H41   H     H_    0.254761 0.501845 0.711604 0.109129
H42   H     H_    0.235165 0.508700 0.781006 0.105280
H43   H     H_    0.130635 0.811987 0.834046 0.101420
H44   H     H_    0.049821 0.828137 0.705254 0.106734
H45   H     H_    0.152726 0.567827 0.091629 0.124677
H46   H     H_    0.029325 0.835104 0.774806 0.107617
H47   H     H_    0.197124 0.787143 0.661691 0.101853
H48   H     H_    0.258028 0.756317 0.595970 0.123781
H49   H     H_    0.100009 0.541944 0.825551 0.093849
H50   H     H_    0.587540 0.815363 0.180591 0.104627
H51   H     H_    0.205009 0.499465 0.586807 0.128658
H52   H     H_    0.568099 0.020178 0.899300 0.124803
H53   H     H_    0.768811 0.148293 0.903135 0.125243
H54   H     H_    0.742624 0.229497 0.676734 0.104054
H55   H     H_    0.594937 0.336706 0.724261 0.109747
H56   H     H_    0.059710 0.889466 0.089379 0.122699
H57   H     H_    0.588630 0.317165 0.793300 0.104663
H58   H     H_    0.515140 0.081755 0.833519 0.101011
H59   H     H_    0.606991 0.047470 0.703919 0.112605
H60   H     H_    0.604237 0.025606 0.773210 0.110281
H61   H     H_    0.491591 0.176440 0.649297 0.103328
H62   H     H_    0.670999 0.827373 0.305195 0.105224
H63   H     H_    0.494521 0.219609 0.582201 0.119732
H64   H     H_    0.718260 0.207177 0.837697 0.103397
H65   H     H_    0.746774 0.271697 0.609930 0.124408
H66   H     H_    0.686503 0.839130 0.236143 0.110174
H67   H     H_    0.197119 0.822172 0.342888 0.106235
H68   H     H_    0.553659 0.799019 0.341256 0.101997
H69   H     H_    0.210152 0.440072 0.372805 0.208559
H70   H     H_    0.167777 0.500335 0.414921 0.230000
H71   H     H_    0.927670 0.474148 0.741890 0.109699
H72   H     H_    0.944347 0.582283 0.756357 0.139545
H73   H     H_    0.996034 0.591349 0.690693 0.177293
H74   H     H_    0.077806 0.467157 0.711875 0.089608
H75   H     H_    0.981174 0.483261 0.676176 0.145453
H76   H     H_    0.276299 0.761074 0.282116 0.104510
H77   H     H_    0.261510 0.776073 0.212038 0.105620
N1    N     N_3   0.225551 0.478792 0.394972 -0.607766
O1    O     O_R   0.324990 0.503440 0.453910 -0.479522
O2    O     O_R   0.675430 0.831160 0.051290 -0.518538
O3    O     O_R   0.698870 0.998880 0.039560 -0.500596
O4    O     O_R   0.522030 0.339050 0.458320 -0.498507
O5    O     O_R   0.811290 0.006780 0.950620 -0.517200
O6    O     O_R   0.980960 0.812920 0.953200 -0.500671
O7    O     O_R   0.001480 0.656720 0.955830 -0.521458
O8    O     O_R   0.809240 0.683250 0.968050 -0.502474
O9    O     O_R   0.652500 0.818540 0.967340 -0.520177
O10   O     O_R   0.677620 0.987170 0.961730 -0.502314
O11   O     O_3   0.833240 0.833660 0.999890 -0.235014
O12   O     O_R   0.639980 0.519500 0.542640 -0.502548
O13   O     O_R   0.676180 0.324490 0.458320 -0.519468
O14   O     O_R   0.643570 0.521510 0.464260 -0.501412
O15   O     O_R   0.504630 0.675350 0.460920 -0.519647
O16   O     O_R   0.339850 0.642450 0.459830 -0.512710
O17   O     O_R   0.321120 0.501280 0.538470 -0.522627
O18   O     O_R   0.518440 0.337050 0.536710 -0.501129
O19   O     O_R   0.672300 0.322330 0.542880 -0.521159
O20   O     O_3   0.823917 0.616668 0.717670 -0.556561
O21   O     O_R   0.500750 0.673190 0.545480 -0.520042
O22   O     O_R   0.336260 0.640450 0.538210 -0.504077
O23   O     O_3   0.499990 0.499990 0.500010 -0.236962
O24   O     O_R   0.834210 0.019400 0.034570 -0.522397
O25   O     O_R   0.002210 0.824620 0.031030 -0.503091
O26   O     O_R   0.024400 0.669340 0.039790 -0.519842
O27   O     O_R   0.830490 0.694950 0.045870 -0.502258

loop_
_geom_bond_atom_site_label_1
_geom_bond_atom_site_label_2
_ccdc_geom_bond_type
C87   C88   A    
Cr2   O14   S    
C50   O15   A    
C34   C56   S    
C93   C94   A    
C14   C122  A    
C4    H43   S    
C29   C33   A    
H70   N1    S    
C27   H74   S    
C62   O1    A    
C62   C77   S    
C9    H41   S    
C34   O25   A    
C90   H55   S    
C109  C119  S    
C43   C44   A    
C1    C99   S    
C96   H11   S    
C13   C79   A    
Cr2   O19   S    
C22   C68   A    
C90   C101  A    
C53   C54   A    
C52   C53   A    
C101  C112  A    
C89   H17   S    
C61   H7    S    
C26   C27   S    
C27   H75   S    
C5    C6    A    
Cr4   O24   S    
C52   C55   A    
C74   O19   A    
Cr3   O23   S    
Cr4   O5    S    
C109  C111  A    
C36   O2    A    
C13   C46   S    
C78   C80   A    
C30   H65   S    
C52   H34   S    
C28   C40   A    
C115  C116  A    
C18   C21   A    
Cr1   O4    S    
C74   O18   A    
C82   C92   S    
C108  C109  A    
C18   C19   A    
C86   O12   A    
C61   C63   A    
C2    C13   A    
C24   C29   A    
C79   C90   A    
C47   H66   S    
C118  C119  A    
Cr5   O8    S    
C81   H16   S    
C95   C96   A    
C28   C35   A    
C10   C20   S    
C8    C9    A    
C49   C51   A    
Cr1   O23   S    
C107  C108  A    
C29   H63   S    
C93   H19   S    
C24   H61   S    
C64   C70   A    
C89   C91   A    
Cr3   O22   S    
C26   H72   S    
C9    C10   A    
C122  H1    S    
C51   C55   A    
Cr2   O23   S    
C39   O8    A    
C17   H48   S    
C51   H12   S    
C45   C47   A    
C66   C67   A    
C40   H4    S    
Cr2   O13   S    
C84   H10   S    
C59   C60   A    
C49   C54   A    
C98   O17   A    
C86   O21   A    
C73   C75   A    
H69   N1    S    
C102  C103  A    
C7    C121  A    
C43   H27   S    
C35   C48   S    
C100  C102  A    
C104  C105  A    
C107  H29   S    
C85   C92   A    
C8    H42   S    
C81   C82   A    
C98   O22   A    
C85   C87   A    
C117  H36   S    
C94   H20   S    
C37   O24   A    
Cr2   O12   S    
C68   H53   S    
Cr5   O27   S    
C47   C48   A    
C116  H33   S    
C57   H64   S    
C1    O13   A    
C10   C11   A    
C117  C120  A    
C14   C35   A    
C41   O10   A    
C16   C17   A    
C40   C110  A    
C58   C59   A    
Cr3   O16   S    
Cr1   O17   S    
C17   C21   A    
C116  C120  A    
C60   C61   A    
C67   C69   A    
C41   O5    A    
C75   C76   A    
C24   C32   A    
C107  C114  A    
C72   C77   A    
C78   C84   A    
Cr6   O3    S    
C45   H62   S    
C80   H9    S    
C83   C84   A    
C108  H28   S    
C12   C15   A    
C60   C70   S    
C16   C20   A    
C106  H25   S    
C2    C112  A    
C96   C97   A    
C105  H35   S    
C23   H52   S    
C56   C63   A    
Cr1   O1    S    
C111  C113  A    
C95   H22   S    
C42   C48   A    
C113  H31   S    
C26   H71   S    
C37   O3    A    
Cr5   O11   S    
C14   H50   S    
C64   H77   S    
C67   H3    S    
Cr6   O10   S    
C104  C114  S    
C16   H47   S    
C18   H51   S    
C65   C66   A    
C8    C15   A    
C115  C119  A    
C46   C57   A    
C36   C110  S    
C58   H45   S    
C19   H40   S    
C38   O7    A    
C3    C4    A    
C93   C97   A    
C71   C76   A    
C91   C92   A    
C44   C45   A    
C3    H37   S    
C59   H2    S    
C12   H46   S    
C113  C114  A    
Cr1   O18   S    
C31   H54   S    
C7    H39   S    
C69   H5    S    
C63   H56   S    
C79   H57   S    
C30   C33   A    
C1    O4    A    
C27   H73   S    
C111  O20   S    
C31   C32   A    
Cr5   O7    S    
C22   C23   A    
C88   C97   S    
C80   C81   A    
C85   H14   S    
C73   H8    S    
C72   N1    S    
C11   C12   A    
Cr4   O11   S    
C103  H30   S    
C6    C7    A    
C49   H68   S    
Cr3   O15   S    
C87   H13   S    
Cr6   O2    S    
C105  C106  A    
C100  C106  A    
C50   C55   S    
C39   O9    A    
C115  H32   S    
C38   O6    A    
C64   C65   A    
C19   C20   A    
Cr4   O25   S    
C36   O27   A    
C71   C72   A    
C6    H49   S    
Cr4   O6    S    
C117  C118  A    
C110  C122  A    
C71   H6    S    
C21   C98   S    
C39   C100  S    
C30   C31   A    
C65   H76   S    
C94   C99   A    
C26   O20   S    
Cr6   O11   S    
C50   O14   A    
Cr5   O26   S    
C56   C58   A    
C118  H26   S    
C95   C99   A    
C62   O16   A    
C69   C70   A    
C2    H60   S    
C5    C15   S    
C38   C121  S    
C25   H58   S    
Cr6   O9    S    
C3    C121  A    
C22   C41   S    
C44   C54   S    
C33   C74   S    
C4    C5    A    
C23   C25   A    
C88   C89   A    
C28   H23   S    
C82   C83   A    
C42   C43   A    
C11   H44   S    
C103  C104  A    
C73   C77   A    
C32   C101  S    
C34   O26   A    
C112  H59   S    
C86   C120  S    
C57   C68   A    
C53   H15   S    
Cr3   O21   S    
C37   C78   S    
C25   C46   A    
C91   H18   S    
C66   C76   S    
C42   H38   S    
C102  H24   S    
C83   H21   S    
C75   H67   S    
