data_mof_unit_35591.cif
_audit_creation_date              2012-12-11T17:45:37-0500
_audit_creation_method            fapswitch 2.2
_symmetry_space_group_name_H-M    P1
_symmetry_Int_Tables_number       1
_space_group_crystal_system       triclinic
_cell_length_a                    14.985142
_cell_length_b                    14.911483
_cell_length_c                    15.100853
_cell_angle_alpha                 110.245272
_cell_angle_beta                  109.169585
_cell_angle_gamma                 109.136395
_cell_volume                      2592.87783992

loop_
_atom_site_label
_atom_site_type_symbol
_atom_type_description
_atom_site_fract_x
_atom_site_fract_y
_atom_site_fract_z
_atom_type_partial_charge
C1    C     C_R   0.973565 0.248800 0.062265 -0.124228
C2    C     C_R   0.705605 0.193493 0.794835 -0.135459
C3    C     C_R   0.776655 0.591919 0.025621 -0.143914
C4    C     C_R   0.315205 0.759962 0.225187 -0.132125
C5    C     C_R   0.941206 0.409404 0.685443 -0.136891
C6    C     C_R   0.674416 0.499245 0.949809 -0.008708
C7    C     C_R   0.958472 0.504089 0.678949 0.041340
C8    C     C_R   0.705020 0.127591 0.703185 0.067015
C9    C     C_R   0.064733 0.870734 0.074946 0.068348
C10   C     C_R   0.612549 0.266492 0.094110 -0.118374
C11   C     C_R   0.691939 0.354487 0.199090 -0.153283
C12   C     C_R   0.324602 0.789988 0.327914 0.052464
C13   C     C_R   0.741351 0.334641 0.281623 0.117823
C14   C     C_R   0.702578 0.225091 0.259029 -0.161513
C15   C     C_R   0.618995 0.137523 0.155038 -0.118935
C16   C     C_R   0.208165 0.408343 0.902722 -0.146544
C17   C     C_R   0.575100 0.158260 0.072266 -0.091303
C18   C     C_R   0.848304 0.430887 0.484148 -0.250940
C19   C     C_R   0.942531 0.513702 0.583918 0.075741
C20   C     C_R   0.026037 0.599586 0.589955 0.015290
C21   C     C_R   0.015074 0.597054 0.495649 -0.249903
C22   C     C_R   0.926870 0.509223 0.395111 0.066179
C23   C     C_R   0.299774 0.499686 0.931311 -0.009931
C24   C     C_R   0.839069 0.426881 0.387673 0.025264
C25   C     C_R   0.155157 0.791165 0.750901 -0.203599
C26   C     C_R   0.256834 0.869948 0.844108 -0.111742
C27   C     C_R   0.338898 0.843388 0.873107 -0.106130
C28   C     C_R   0.996872 0.592470 0.298983 -0.165822
C29   C     C_R   0.319749 0.738387 0.809016 -0.121078
C30   C     C_R   0.217400 0.658193 0.717467 -0.128197
C31   C     C_R   0.134016 0.683869 0.688471 0.119512
C32   C     C_R   0.253850 0.041813 0.534505 -0.128920
C33   C     C_R   0.330416 0.013657 0.520878 -0.127295
C34   C     C_R   0.941698 0.502041 0.303739 0.060676
C35   C     C_R   0.340887 0.930753 0.539589 0.108127
C36   C     C_R   0.275460 0.877872 0.574131 -0.184074
C37   C     C_R   0.194826 0.902154 0.581547 -0.117555
C38   C     C_R   0.184679 0.984650 0.562744 -0.119869
C39   C     C_R   0.526328 0.973038 0.627961 -0.228620
C40   C     C_R   0.299577 0.591335 0.995394 -0.137826
C41   C     C_R   0.622423 0.010275 0.623703 0.049887
C42   C     C_R   0.622745 0.946965 0.529158 0.031065
C43   C     C_R   0.523028 0.865439 0.435102 -0.245430
C44   C     C_R   0.425307 0.853142 0.433193 0.068995
C45   C     C_R   0.686049 0.407246 0.933368 -0.140838
C46   C     C_R   0.427819 0.908184 0.532358 0.016520
C47   C     C_R   0.739433 0.006974 0.452623 -0.204211
C48   C     C_R   0.843323 0.055141 0.465265 -0.115598
C49   C     C_R   0.930883 0.063273 0.545473 -0.111812
C50   C     C_R   0.914365 0.021866 0.612156 -0.138586
C51   C     C_R   0.811360 0.976043 0.601791 -0.146419
C52   C     C_R   0.911724 0.409196 0.211688 -0.136004
C53   C     C_R   0.723885 0.971138 0.523873 0.122165
C54   C     C_3   0.470392 0.387309 0.840884 -0.401481
C55   C     C_3   0.366640 0.389144 0.833679 -0.416177
C56   C     C_R   0.022523 0.593200 0.782442 -0.106949
C57   C     C_3   0.573979 0.519044 0.044725 -0.401237
C58   C     C_3   0.564065 0.591590 0.915319 -0.395885
C59   C     C_3   0.572572 0.499131 0.936378 0.399294
C60   C     C_3   0.396587 0.499743 0.927557 0.406043
C61   C     C_3   0.470560 0.518076 0.038972 -0.389678
C62   C     C_3   0.460030 0.592739 0.911351 -0.411355
C63   C     C_R   0.178047 0.058731 0.811477 -0.136795
C64   C     C_R   0.220453 0.752093 0.313335 -0.121837
C65   C     C_R   0.136205 0.057596 0.881093 -0.192734
C66   C     C_R   0.200060 0.138542 0.992008 0.113560
C67   C     C_R   0.793307 0.195116 0.701649 -0.145376
C68   C     C_R   0.305618 0.220949 0.032422 -0.149075
C69   C     C_R   0.346834 0.221356 0.961960 -0.140546
C70   C     C_R   0.283954 0.139485 0.851975 -0.111410
C71   C     C_R   0.171149 0.043670 0.088092 -0.230606
C72   C     C_R   0.100895 0.989241 0.116936 0.056433
C73   C     C_R   0.052848 0.043887 0.164702 0.024220
C74   C     C_R   0.061419 0.138465 0.162151 -0.240313
C75   C     C_R   0.098111 0.167047 0.096401 0.060663
C76   C     C_R   0.067749 0.251943 0.973660 -0.141396
C77   C     C_R   0.161749 0.124209 0.066274 0.026833
C78   C     C_R   0.000933 0.802358 0.097398 -0.144736
C79   C     C_R   0.865685 0.949713 0.135301 -0.151305
C80   C     C_R   0.794176 0.896704 0.164119 -0.157936
C81   C     C_R   0.834902 0.889484 0.257312 -0.100795
C82   C     C_R   0.947431 0.941138 0.325384 -0.119209
C83   C     C_R   0.019549 0.998765 0.299611 -0.188305
C84   C     C_R   0.978738 0.998212 0.201410 0.117239
C85   C     C_R   0.051649 0.223217 0.047989 0.057508
C86   C     C_R   0.094825 0.807432 0.010580 -0.150099
H1    H     H_    0.938821 0.236403 0.111902 0.092679
H2    H     H_    0.582221 0.282104 0.028914 0.093628
H3    H     H_    0.719627 0.437868 0.214209 0.113044
H4    H     H_    0.379867 0.775831 0.205712 0.089905
H5    H     H_    0.739419 0.207008 0.320485 0.105533
H6    H     H_    0.590531 0.053488 0.137900 0.099149
H7    H     H_    0.784024 0.367528 0.481596 0.129015
H8    H     H_    0.083482 0.658479 0.501001 0.130159
H9    H     H_    0.091692 0.812211 0.729266 0.112764
H10   H     H_    0.272212 0.951386 0.894385 0.137416
H11   H     H_    0.417509 0.904008 0.945144 0.092273
H12   H     H_    0.045103 0.677791 0.808011 0.115957
H13   H     H_    0.384775 0.719924 0.830514 0.100028
H14   H     H_    0.203204 0.576604 0.668970 0.106626
H15   H     H_    0.124337 0.005494 0.571663 0.092771
H16   H     H_    0.176836 0.323083 0.845376 0.099444
H17   H     H_    0.248503 0.108208 0.523642 0.102713
H18   H     H_    0.383211 0.057898 0.498076 0.111690
H19   H     H_    0.284453 0.815642 0.591374 0.126813
H20   H     H_    0.140469 0.857535 0.602345 0.115096
H21   H     H_    0.524488 0.013446 0.701515 0.124902
H22   H     H_    0.522610 0.819034 0.361568 0.122724
H23   H     H_    0.825381 0.173552 0.648946 0.133816
H24   H     H_    0.673358 0.005393 0.393162 0.115247
H25   H     H_    0.856327 0.087941 0.414113 0.127977
H26   H     H_    0.011604 0.102139 0.556270 0.100955
H27   H     H_    0.981996 0.028885 0.674524 0.115449
H28   H     H_    0.019125 0.676757 0.350173 0.107017
H29   H     H_    0.801040 0.949890 0.658037 0.112153
H30   H     H_    0.470171 0.318247 0.853510 0.143665
H31   H     H_    0.469428 0.370567 0.762719 0.157915
H32   H     H_    0.316246 0.377832 0.753522 0.153630
H33   H     H_    0.318192 0.318378 0.837713 0.163925
H34   H     H_    0.975715 0.822301 0.156191 0.130871
H35   H     H_    0.581920 0.455013 0.062837 0.148348
H36   H     H_    0.426774 0.452690 0.052768 0.162118
H37   H     H_    0.635885 0.673409 0.980486 0.150273
H38   H     H_    0.561774 0.577750 0.837128 0.157049
H39   H     H_    0.407351 0.578869 0.830836 0.151956
H40   H     H_    0.355348 0.676598 0.026487 0.087414
H41   H     H_    0.483650 0.675036 0.975347 0.142516
H42   H     H_    0.645372 0.600107 0.113898 0.156283
H43   H     H_    0.493215 0.598160 0.106266 0.151483
H44   H     H_    0.317074 0.139128 0.798177 0.123235
H45   H     H_    0.154991 0.836526 0.988019 0.101225
H46   H     H_    0.128797 0.995114 0.726909 0.106638
H47   H     H_    0.055305 0.991940 0.849451 0.118707
H48   H     H_    0.356458 0.282662 0.118221 0.117209
H49   H     H_    0.427553 0.284977 0.992621 0.113406
H50   H     H_    0.218984 0.011209 0.063085 0.125436
H51   H     H_    0.024043 0.178461 0.198579 0.126488
H52   H     H_    0.859708 0.324266 0.184764 0.113577
H53   H     H_    0.707198 0.859492 0.113203 0.107015
H54   H     H_    0.779319 0.845110 0.277589 0.117740
H55   H     H_    0.978405 0.934997 0.397149 0.119335
H56   H     H_    0.659330 0.167200 0.831473 0.087428
H57   H     H_    0.106321 0.036494 0.351104 0.118354
H58   H     H_    0.194895 0.751909 0.371565 0.119828
H59   H     H_    0.122867 0.247315 0.944007 0.126877
H60   H     H_    0.624012 0.321391 0.883555 0.093995
H61   H     H_    0.833116 0.950736 0.060356 0.114208
H62   H     H_    0.796522 0.677032 0.062801 0.110249
H63   H     H_    0.895669 0.324953 0.619167 0.102874
H64   H     H_    0.513150 0.090766 0.990774 0.102588
N1    N     N_R   0.947080 0.293830 0.002870 -0.041402
N2    N     N_R   0.153670 0.443180 0.946090 -0.036642
N3    N     N_R   0.002360 0.556820 0.208890 -0.038936
N4    N     N_R   0.210070 0.556820 0.002870 -0.033759
N5    N     N_R   0.945960 0.443180 0.152110 -0.039755
N6    N     N_R   0.151710 0.706170 0.208890 -0.042885
N7    N     N_R   0.004320 0.293830 0.946090 -0.041616
N8    N     N_R   0.789930 0.443180 0.997130 -0.035252
N9    N     N_R   0.054040 0.556820 0.847890 -0.040388
N10   N     N_R   0.848290 0.293830 0.791110 -0.041958
N11   N     N_R   0.995680 0.706170 0.053910 -0.041114
N12   N     N_R   0.052920 0.706170 0.997130 -0.041462
N13   N     N_R   0.791050 0.293830 0.847890 -0.038742
N14   N     N_R   0.846330 0.556820 0.053910 -0.036485
N15   N     N_R   0.997640 0.443180 0.791110 -0.040096
N16   N     N_R   0.208950 0.706170 0.152110 -0.039842
Ni1   Ni    Ni4+2 0.869690 0.369690 0.000000 0.211550
Ni2   Ni    Ni4+2 0.130310 0.630310 0.000000 0.217555
Ni3   Ni    Ni4+2 0.000970 0.369690 0.869780 0.215555
Ni4   Ni    Ni4+2 0.999030 0.630310 0.130220 0.213580

loop_
_geom_bond_atom_site_label_1
_geom_bond_atom_site_label_2
_ccdc_geom_bond_type
C25   C31   A    
C81   H54   S    
C66   C68   A    
C63   C65   A    
C58   C62   S    
C6    C45   A    
C27   C29   A    
C33   H18   S    
C41   C42   A    
N14   Ni4   S    
C17   H64   S    
C9    C72   S    
C56   H12   S    
C3    C6    A    
N4    Ni2   S    
C57   H42   S    
N11   N12   A    
C39   C41   A    
C55   H33   S    
C52   N5    A    
C39   H21   S    
C9    C78   A    
C10   H2    S    
C26   C27   A    
C29   C30   A    
C83   C84   A    
C18   C24   A    
N1    N7    A    
C36   C37   A    
C56   N9    A    
C42   C53   S    
C79   C84   A    
C12   C64   A    
C86   H45   S    
C57   C59   S    
C21   H8    S    
C10   C17   A    
C23   C40   A    
C30   H14   S    
C70   H44   S    
C5    H63   S    
N9    Ni2   S    
C60   C62   S    
C18   C19   A    
C73   C74   A    
C1    H1    S    
C7    C19   S    
N7    Ni3   S    
C15   H6    S    
C75   C85   S    
C35   C36   A    
N5    Ni1   S    
C68   C69   A    
C54   H30   S    
N3    Ni4   S    
C52   H52   S    
N10   Ni3   S    
C67   N10   A    
C86   N12   A    
C5    N15   A    
C4    C12   A    
C73   C84   S    
N8    N14   A    
C47   C53   A    
C55   C60   S    
C28   C34   A    
C3    H62   S    
C69   H49   S    
C21   C22   A    
C26   H10   S    
C40   N4    A    
C7    C56   A    
C82   H55   S    
C44   C46   A    
N8    Ni1   S    
C81   C82   A    
C4    H4    S    
C54   C59   S    
N15   Ni3   S    
C23   C60   S    
C22   C34   S    
C74   H51   S    
C76   N7    A    
C74   C75   A    
C29   H13   S    
C45   H60   S    
N10   N13   A    
N16   Ni2   S    
C8    C41   S    
C71   H50   S    
C5    C7    A    
C72   C73   A    
C79   H61   S    
C64   H58   S    
C25   C26   A    
C82   C83   A    
C51   H29   S    
N9    N15   A    
C13   C24   S    
C61   H36   S    
C51   C53   A    
C78   H34   S    
C43   C44   A    
C37   C38   A    
C9    C86   A    
C11   H3    S    
C47   C48   A    
C63   C70   A    
N6    N16   A    
N13   Ni1   S    
C40   H40   S    
C50   C51   A    
C58   H37   S    
C32   H17   S    
C16   N2    A    
C63   H46   S    
C75   C77   A    
C28   H28   S    
C3    N14   A    
C8    C67   A    
C39   C46   A    
N12   Ni2   S    
N11   Ni4   S    
C16   H16   S    
C48   C49   A    
N2    N4    A    
C76   H59   S    
C25   H9    S    
C16   C23   A    
C32   C38   A    
C49   H26   S    
C28   N3    A    
C2    H56   S    
C22   C24   A    
C1    C85   A    
N3    N5    A    
C42   C43   A    
C80   H53   S    
C71   C77   A    
C15   C17   A    
C66   C77   S    
C54   C55   S    
C27   H11   S    
C36   H19   S    
C34   C52   A    
C6    C59   S    
C2    C8    A    
C45   N8    A    
C80   C81   A    
C2    N13   A    
C62   H39   S    
C57   C61   S    
C61   H43   S    
C38   H15   S    
C47   H24   S    
C64   N6    A    
C58   H38   S    
C50   H27   S    
C32   C33   A    
C19   C20   A    
C68   H48   S    
C58   C59   S    
C71   C72   A    
C12   C44   S    
C83   H57   S    
N2    Ni3   S    
C11   C13   A    
C67   H23   S    
C30   C31   A    
N1    Ni1   S    
N6    Ni4   S    
C33   C35   A    
C4    N16   A    
C1    N1    A    
C43   H22   S    
C65   C66   A    
C69   C70   A    
C14   H5    S    
C10   C11   A    
C57   H35   S    
C79   C80   A    
C62   H41   S    
C37   H20   S    
C48   H25   S    
C20   C21   A    
C78   N11   A    
C49   C50   A    
C54   H31   S    
C18   H7    S    
C14   C15   A    
C60   C61   S    
C13   C14   A    
C35   C46   S    
C76   C85   A    
C55   H32   S    
C65   H47   S    
C20   C31   S    
