data_mof_unit_50250.cif
_audit_creation_date              2012-12-11T14:28:34-0500
_audit_creation_method            fapswitch 2.2
_symmetry_space_group_name_H-M    P1
_symmetry_Int_Tables_number       1
_space_group_crystal_system       triclinic
_cell_length_a                    11.026423
_cell_length_b                    19.4701
_cell_length_c                    18.82585
_cell_angle_alpha                 89.294904
_cell_angle_beta                  89.796852
_cell_angle_gamma                 90.911216
_cell_volume                      4040.79271946

loop_
_atom_site_label
_atom_site_type_symbol
_atom_type_description
_atom_site_fract_x
_atom_site_fract_y
_atom_site_fract_z
_atom_type_partial_charge
C1    C     C_R   0.319328 0.964025 0.644630 0.532840
C2    C     C_R   0.318532 0.963660 0.855403 0.534764
C3    C     C_R   0.317201 0.059686 0.361555 0.539019
C4    C     C_R   0.316848 0.057162 0.138018 0.545403
C5    C     C_R   0.819335 0.463530 0.644372 0.531470
C6    C     C_R   0.818767 0.463366 0.855795 0.537019
C7    C     C_R   0.816953 0.558756 0.361573 0.537255
C8    C     C_R   0.817047 0.561039 0.138019 0.533453
C9    C     C_3   0.214389 0.738902 0.453668 -0.133926
C10   C     C_3   0.127424 0.684670 0.022629 -0.103350
C11   C     C_3   0.168390 0.294412 0.535326 -0.119073
C12   C     C_3   0.123096 0.318763 0.977110 -0.106996
C13   C     C_3   0.695277 0.230195 0.464956 -0.133411
C14   C     C_3   0.694557 0.214310 0.037085 -0.124235
C15   C     C_3   0.697801 0.780531 0.539347 -0.134515
C16   C     C_3   0.681097 0.785559 0.961351 -0.119319
C17   C     C_3   0.086260 0.746458 0.425571 0.061763
C18   C     C_3   0.070013 0.739728 0.069550 0.068356
C19   C     C_3   0.045452 0.269764 0.564706 0.070247
C20   C     C_3   0.075039 0.260806 0.929090 0.070608
C21   C     C_3   0.574304 0.242251 0.428736 0.065974
C22   C     C_3   0.582272 0.242910 0.073284 0.082700
C23   C     C_3   0.576716 0.758098 0.571446 0.065220
C24   C     C_3   0.555833 0.765559 0.932757 0.072865
C25   C     C_R   0.324032 0.035832 0.434056 -0.030789
C26   C     C_R   0.319739 0.031067 0.066604 -0.033522
C27   C     C_R   0.323047 0.990537 0.573339 -0.025242
C28   C     C_R   0.319239 0.990196 0.926368 -0.029293
C29   C     C_R   0.822695 0.533228 0.433298 -0.028054
C30   C     C_R   0.822307 0.538661 0.064831 -0.036056
C31   C     C_R   0.822971 0.488212 0.572455 -0.024746
C32   C     C_R   0.821008 0.491601 0.926363 -0.027550
C33   C     C_R   0.547559 0.006784 0.432266 -0.076411
C34   C     C_R   0.542022 0.002015 0.068254 -0.087094
C35   C     C_R   0.544301 0.015537 0.578772 -0.082677
C36   C     C_R   0.542137 0.014112 0.921998 -0.094185
C37   C     C_R   0.044798 0.503787 0.430050 -0.078455
C38   C     C_R   0.042646 0.503541 0.066816 -0.087814
C39   C     C_R   0.044805 0.514281 0.576430 -0.080588
C40   C     C_R   0.043408 0.517891 0.920329 -0.085291
C41   C     C_R   0.654341 0.001748 0.470431 -0.153445
C42   C     C_R   0.650009 0.997782 0.030696 -0.142488
C43   C     C_R   0.653252 0.007890 0.543545 -0.142309
C44   C     C_R   0.651174 0.008823 0.957896 -0.131880
C45   C     C_R   0.152664 0.501249 0.466965 -0.152829
C46   C     C_R   0.150333 0.497481 0.028937 -0.154384
C47   C     C_R   0.153173 0.508359 0.539905 -0.143464
C48   C     C_R   0.152547 0.510831 0.956319 -0.136533
C49   C     C_R   0.433892 0.010301 0.541291 -0.008471
C50   C     C_R   0.430258 0.007856 0.959041 -0.015448
C51   C     C_R   0.435509 0.017862 0.467401 -0.000860
C52   C     C_R   0.430815 0.014223 0.032761 -0.008189
C53   C     C_R   0.933565 0.507964 0.539873 -0.009168
C54   C     C_R   0.931848 0.511903 0.957712 -0.016604
C55   C     C_R   0.933955 0.515091 0.466055 -0.002427
C56   C     C_R   0.932866 0.519347 0.031418 -0.001107
C57   C     C_R   0.213909 0.990219 0.533116 -0.016244
C58   C     C_R   0.207190 0.990877 0.965692 -0.005879
C59   C     C_R   0.213708 0.029681 0.472100 -0.023863
C60   C     C_R   0.207128 0.024094 0.029916 -0.009582
C61   C     C_R   0.713556 0.486692 0.532313 -0.019991
C62   C     C_R   0.710786 0.492294 0.967078 -0.009307
C63   C     C_R   0.712378 0.526217 0.471290 -0.019396
C64   C     C_R   0.710724 0.531744 0.027796 -0.020335
C65   C     C_R   0.102236 0.957427 0.553390 -0.091924
C66   C     C_R   0.094000 0.960219 0.944457 -0.083821
C67   C     C_R   0.101017 0.055233 0.448204 -0.099745
C68   C     C_R   0.092404 0.044694 0.056851 -0.084775
C69   C     C_R   0.601739 0.454507 0.553790 -0.098508
C70   C     C_R   0.600700 0.455151 0.951645 -0.103705
C71   C     C_R   0.599280 0.551782 0.447886 -0.093754
C72   C     C_R   0.596564 0.552116 0.055501 -0.088831
C73   C     C_R   0.992957 0.980197 0.527818 -0.148472
C74   C     C_R   0.984386 0.976812 0.974950 -0.146014
C75   C     C_R   0.992404 0.028856 0.473434 -0.148996
C76   C     C_R   0.983669 0.021601 0.029843 -0.146537
C77   C     C_R   0.492065 0.477236 0.528600 -0.147998
C78   C     C_R   0.492347 0.467565 0.987634 -0.164349
C79   C     C_R   0.491140 0.525379 0.473671 -0.148860
C80   C     C_R   0.489848 0.518067 0.038432 -0.156109
C81   C     C_R   0.178705 0.770721 0.635607 0.545950
C82   C     C_R   0.135253 0.758153 0.857029 0.542888
C83   C     C_R   0.175217 0.230461 0.364818 0.530791
C84   C     C_R   0.137112 0.241332 0.142056 0.547124
C85   C     C_R   0.641228 0.260497 0.640780 0.533993
C86   C     C_R   0.676682 0.270003 0.864150 0.547657
C87   C     C_R   0.677951 0.729551 0.364575 0.538276
C88   C     C_R   0.673596 0.731300 0.135444 0.536555
C89   C     C_R   0.537423 0.772878 0.643185 0.544757
C90   C     C_R   0.508330 0.783316 0.863014 0.552621
C91   C     C_R   0.540975 0.228834 0.355229 0.522035
C92   C     C_R   0.537021 0.227165 0.143455 0.536184
C93   C     C_R   0.002997 0.285910 0.636650 0.552735
C94   C     C_R   0.040812 0.271384 0.855572 0.538588
C95   C     C_R   0.042241 0.729361 0.354722 0.527304
C96   C     C_R   0.038768 0.728242 0.143762 0.528073
C97   C     C_3   0.072498 0.814623 0.462643 -0.004198
C98   C     C_3   0.142170 0.796749 0.033694 -0.000371
C99   C     C_3   0.069361 0.196916 0.539674 0.008287
C100  C     C_3   0.156598 0.209061 0.963276 0.000285
C101  C     C_3   0.557997 0.309664 0.467042 -0.000992
C102  C     C_3   0.607803 0.313757 0.043428 0.007722
C103  C     C_3   0.585244 0.687024 0.540562 -0.002597
C104  C     C_3   0.566499 0.693325 0.963226 0.010432
C105  C     C_3   0.200704 0.807446 0.493670 -0.151426
C106  C     C_3   0.201211 0.742525 0.985696 -0.120530
C107  C     C_3   0.193029 0.220912 0.509206 -0.156561
C108  C     C_3   0.206158 0.266028 0.012787 -0.119294
C109  C     C_3   0.678442 0.297842 0.505843 -0.132442
C110  C     C_3   0.717660 0.286328 0.003195 -0.153707
C111  C     C_3   0.708686 0.708171 0.506802 -0.149637
C112  C     C_3   0.690650 0.712680 0.994381 -0.152528
C113  C     C_3   0.145678 0.766986 0.558183 0.025628
C114  C     C_3   0.096707 0.750835 0.931939 0.040835
C115  C     C_3   0.129382 0.238801 0.438547 0.031139
C116  C     C_3   0.102862 0.248956 0.066534 0.040784
C117  C     C_3   0.608552 0.256859 0.564419 0.031392
C118  C     C_3   0.637178 0.265429 0.940087 0.026162
C119  C     C_3   0.639375 0.734545 0.440426 0.026460
C120  C     C_3   0.627447 0.738673 0.061952 0.031811
C121  C     C_3   0.016961 0.775907 0.528065 -0.111410
C122  C     C_3   0.039202 0.805650 0.979117 -0.115945
C123  C     C_3   0.006517 0.213403 0.468203 -0.107372
C124  C     C_3   0.055418 0.191654 0.017936 -0.120424
C125  C     C_3   0.487275 0.270383 0.526979 -0.131250
C126  C     C_3   0.525695 0.295601 0.978213 -0.122988
C127  C     C_3   0.516628 0.711851 0.473778 -0.107181
C128  C     C_3   0.502324 0.717183 0.032105 -0.126497
C129  C     C_3   0.032072 0.707075 0.489171 -0.109660
C130  C     C_3   0.967195 0.747930 0.016921 -0.151495
C131  C     C_3   0.982622 0.287208 0.494422 -0.145044
C132  C     C_3   0.974972 0.244515 0.981701 -0.154040
C133  C     C_3   0.505181 0.202232 0.486871 -0.113284
C134  C     C_3   0.502281 0.223136 0.010727 -0.129784
C135  C     C_3   0.507504 0.783915 0.506784 -0.115751
C136  C     C_3   0.493561 0.790711 0.999772 -0.149082
C137  C     C_3   0.160624 0.698988 0.518279 -0.106044
C138  C     C_3   0.023791 0.693129 0.968587 -0.127507
C139  C     C_3   0.105807 0.311831 0.464732 -0.112129
C140  C     C_3   0.021765 0.302040 0.031372 -0.134501
C141  C     C_3   0.626712 0.189908 0.523931 -0.108978
C142  C     C_3   0.614381 0.194417 0.973747 -0.106179
C143  C     C_3   0.629053 0.806236 0.473419 -0.110922
C144  C     C_3   0.618598 0.810957 0.029127 -0.102355
Cr1   Cr    Cr6+3 0.488160 0.884660 0.750000 0.987374
Cr2   Cr    Cr6+3 0.488160 0.115340 0.250000 0.980280
Cr3   Cr    Cr6+3 0.988160 0.384660 0.750000 0.983886
Cr4   Cr    Cr6+3 0.988160 0.615340 0.250000 0.975614
Cr5   Cr    Cr6+3 0.173480 0.883120 0.750000 0.976721
Cr6   Cr    Cr6+3 0.173480 0.116880 0.250000 0.974788
Cr7   Cr    Cr6+3 0.673480 0.383120 0.750000 0.965162
Cr8   Cr    Cr6+3 0.673480 0.616880 0.250000 0.966053
Cr9   Cr    Cr6+3 0.333410 0.727260 0.750000 0.954660
Cr10  Cr    Cr6+3 0.333410 0.272740 0.250000 0.962353
Cr11  Cr    Cr6+3 0.833410 0.227260 0.750000 0.967035
Cr12  Cr    Cr6+3 0.833410 0.772740 0.250000 0.963856
H1    H     H_    0.258922 0.854061 0.494967 0.102443
H2    H     H_    0.294125 0.735568 0.966377 0.120281
H3    H     H_    0.272228 0.188902 0.519270 0.096314
H4    H     H_    0.297497 0.281505 0.030281 0.123613
H5    H     H_    0.738565 0.341041 0.520737 0.095341
H6    H     H_    0.795699 0.321865 0.995972 0.107693
H7    H     H_    0.785011 0.672657 0.507788 0.094232
H8    H     H_    0.765823 0.675686 0.992894 0.097034
H9    H     H_    0.910176 0.958252 0.549344 0.100979
H10   H     H_    0.900821 0.954098 0.956058 0.096533
H11   H     H_    0.909122 0.048062 0.451711 0.101167
H12   H     H_    0.900197 0.039554 0.052236 0.098257
H13   H     H_    0.409486 0.455283 0.550450 0.103237
H14   H     H_    0.409970 0.439765 0.974463 0.104579
H15   H     H_    0.407817 0.544414 0.451952 0.100792
H16   H     H_    0.406522 0.533078 0.063393 0.105474
H17   H     H_    0.944435 0.792438 0.563596 0.108321
H18   H     H_    0.977480 0.845899 0.961765 0.096494
H19   H     H_    0.947952 0.176291 0.440000 0.099390
H20   H     H_    0.990576 0.150624 0.030937 0.102103
H21   H     H_    0.409094 0.287702 0.557949 0.101889
H22   H     H_    0.454428 0.326328 0.952256 0.091825
H23   H     H_    0.449566 0.678673 0.446830 0.099630
H24   H     H_    0.430839 0.687891 0.061669 0.101272
H25   H     H_    0.970911 0.662073 0.483750 0.106577
H26   H     H_    0.878656 0.758139 0.040542 0.125226
H27   H     H_    0.907957 0.321199 0.481353 0.106005
H28   H     H_    0.889226 0.226085 0.958559 0.134308
H29   H     H_    0.440790 0.160311 0.473796 0.101200
H30   H     H_    0.417986 0.192775 0.018808 0.100443
H31   H     H_    0.433464 0.819957 0.512179 0.105925
H32   H     H_    0.417030 0.826245 0.997542 0.104221
H33   H     H_    0.191063 0.649230 0.539818 0.126549
H34   H     H_    0.971547 0.652891 0.940417 0.112723
H35   H     H_    0.120087 0.360225 0.433964 0.136777
H36   H     H_    0.967968 0.340236 0.060698 0.111682
H37   H     H_    0.656216 0.141564 0.549010 0.133332
H38   H     H_    0.618293 0.145341 0.945265 0.141738
H39   H     H_    0.644022 0.856330 0.445885 0.134554
H40   H     H_    0.640329 0.859557 0.056567 0.137202
H41   H     H_    0.286501 0.726019 0.415628 0.117748
H42   H     H_    0.167977 0.636512 0.042500 0.142423
H43   H     H_    0.229055 0.331511 0.562553 0.121744
H44   H     H_    0.154035 0.370113 0.958050 0.141727
H45   H     H_    0.771183 0.214506 0.431375 0.114169
H46   H     H_    0.762924 0.181462 0.063380 0.116662
H47   H     H_    0.759783 0.813448 0.570379 0.114151
H48   H     H_    0.753538 0.813433 0.931107 0.121707
H49   H     H_    0.737373 0.993875 0.442434 0.101328
H50   H     H_    0.731555 0.985112 0.058806 0.101733
H51   H     H_    0.735437 0.005621 0.573740 0.101186
H52   H     H_    0.735262 0.011527 0.928482 0.108541
H53   H     H_    0.234897 0.493995 0.438022 0.101152
H54   H     H_    0.231289 0.482628 0.056507 0.104790
H55   H     H_    0.236362 0.506253 0.568744 0.101069
H56   H     H_    0.237458 0.511268 0.927310 0.105870
H57   H     H_    0.556885 0.996683 0.376556 0.150527
H58   H     H_    0.548722 0.989997 0.123981 0.145278
H59   H     H_    0.548540 0.024434 0.635202 0.133731
H60   H     H_    0.547804 0.023458 0.865475 0.132981
H61   H     H_    0.051937 0.491617 0.374630 0.147641
H62   H     H_    0.047965 0.490250 0.122312 0.147365
H63   H     H_    0.050371 0.522583 0.632893 0.137598
H64   H     H_    0.047753 0.526844 0.863650 0.135627
H65   H     H_    0.094315 0.095713 0.410219 0.171628
H66   H     H_    0.080530 0.081851 0.097484 0.173870
H67   H     H_    0.095843 0.912405 0.586707 0.178279
H68   H     H_    0.084464 0.920049 0.906820 0.178234
H69   H     H_    0.591493 0.592728 0.410157 0.171941
H70   H     H_    0.587815 0.594332 0.090748 0.173487
H71   H     H_    0.595335 0.410240 0.588046 0.184385
H72   H     H_    0.596052 0.413198 0.915564 0.178795
O1    O     O_R   0.575450 0.828820 0.667950 -0.520546
O2    O     O_R   0.575450 0.828820 0.832050 -0.525518
O3    O     O_R   0.575450 0.171180 0.332050 -0.526602
O4    O     O_R   0.575450 0.171180 0.167950 -0.530373
O5    O     O_R   0.075450 0.328820 0.667950 -0.525790
O6    O     O_R   0.075450 0.328820 0.832050 -0.530709
O7    O     O_R   0.075450 0.671180 0.332050 -0.523164
O8    O     O_R   0.075450 0.671180 0.167950 -0.533576
O9    O     O_R   0.416860 0.942890 0.674680 -0.515825
O10   O     O_R   0.416860 0.942890 0.825320 -0.521228
O11   O     O_R   0.416860 0.057110 0.325320 -0.514929
O12   O     O_R   0.416860 0.057110 0.174680 -0.515598
O13   O     O_R   0.916860 0.442890 0.674680 -0.523576
O14   O     O_R   0.916860 0.442890 0.825320 -0.512288
O15   O     O_R   0.916860 0.557110 0.325320 -0.512869
O16   O     O_R   0.916860 0.557110 0.174680 -0.517075
O17   O     O_R   0.213790 0.953680 0.668330 -0.546299
O18   O     O_R   0.213790 0.953680 0.831670 -0.544226
O19   O     O_R   0.213790 0.046320 0.331670 -0.532608
O20   O     O_R   0.213790 0.046320 0.168330 -0.540551
O21   O     O_R   0.713790 0.453680 0.668330 -0.547793
O22   O     O_R   0.713790 0.453680 0.831670 -0.552502
O23   O     O_R   0.713790 0.546320 0.331670 -0.544048
O24   O     O_R   0.713790 0.546320 0.168330 -0.545847
O25   O     O_R   0.121360 0.817890 0.672660 -0.520990
O26   O     O_R   0.121360 0.817890 0.827340 -0.520570
O27   O     O_R   0.121360 0.182110 0.327340 -0.532056
O28   O     O_R   0.121360 0.182110 0.172660 -0.530998
O29   O     O_R   0.621360 0.317890 0.672660 -0.523250
O30   O     O_R   0.621360 0.317890 0.827340 -0.520393
O31   O     O_R   0.621360 0.682110 0.327340 -0.525622
O32   O     O_R   0.621360 0.682110 0.172660 -0.527629
O33   O     O_R   0.206850 0.711370 0.665820 -0.537372
O34   O     O_R   0.206850 0.711370 0.834180 -0.530481
O35   O     O_R   0.206850 0.288630 0.334180 -0.538793
O36   O     O_R   0.206850 0.288630 0.165820 -0.519216
O37   O     O_R   0.706850 0.211370 0.665820 -0.550477
O38   O     O_R   0.706850 0.211370 0.834180 -0.530056
O39   O     O_R   0.706850 0.788630 0.334180 -0.534065
O40   O     O_R   0.706850 0.788630 0.165820 -0.520926
O41   O     O_R   0.457710 0.733190 0.672630 -0.543436
O42   O     O_R   0.457710 0.733190 0.827370 -0.527170
O43   O     O_R   0.457710 0.266810 0.327370 -0.541548
O44   O     O_R   0.457710 0.266810 0.172630 -0.523704
O45   O     O_R   0.957710 0.233190 0.672630 -0.529188
O46   O     O_R   0.957710 0.233190 0.827370 -0.523265
O47   O     O_R   0.957710 0.766810 0.327370 -0.540040
O48   O     O_R   0.957710 0.766810 0.172630 -0.525658
O49   O     O_3   0.331690 0.831680 0.750000 -0.282705
O50   O     O_3   0.331690 0.168320 0.250000 -0.293374
O51   O     O_3   0.831690 0.331680 0.750000 -0.283622
O52   O     O_3   0.831690 0.668320 0.250000 -0.305446
C145  C     C_3   0.038532 0.873911 0.412203 -0.227619
C146  C     C_3   0.900845 0.882513 0.406525 -0.256596
C147  C     C_3   0.866199 0.922259 0.339206 -0.399489
H73   H     H_    0.907581 0.974592 0.339489 0.133825
H74   H     H_    0.897657 0.895247 0.291110 0.178792
H75   H     H_    0.766132 0.926798 0.336265 0.133316
H76   H     H_    0.855818 0.831979 0.408671 0.214046
H77   H     H_    0.862223 0.906916 0.453037 0.126897
H78   H     H_    0.087388 0.920851 0.425092 0.175328
H79   H     H_    0.078047 0.864717 0.358883 0.152867
C148  C     C_3   0.206513 0.852452 0.077184 -0.255774
C149  C     C_3   0.278717 0.821674 0.139541 -0.301909
C150  C     C_3   0.375571 0.871030 0.166833 -0.428728
H80   H     H_    0.442801 0.882341 0.124352 0.153462
H81   H     H_    0.333626 0.919157 0.184929 0.191584
H82   H     H_    0.423423 0.847057 0.212396 0.167537
H83   H     H_    0.216451 0.809107 0.184429 0.170256
H84   H     H_    0.323235 0.773673 0.123284 0.173840
H85   H     H_    0.267176 0.882404 0.041479 0.150863
H86   H     H_    0.137629 0.887855 0.098481 0.171436
C151  C     C_3   0.051875 0.136176 0.592071 -0.219676
C152  C     C_3   0.916652 0.116244 0.603858 -0.245142
C153  C     C_3   0.896428 0.076682 0.673659 -0.400021
H87   H     H_    0.945388 0.027320 0.672610 0.142686
H88   H     H_    0.929351 0.107055 0.719421 0.179196
H89   H     H_    0.798140 0.065723 0.681457 0.120456
H90   H     H_    0.858901 0.161321 0.600421 0.214661
H91   H     H_    0.877042 0.087368 0.560686 0.126567
H92   H     H_    0.104661 0.092729 0.576373 0.162918
H93   H     H_    0.096606 0.149483 0.642934 0.161932
C154  C     C_3   0.230373 0.159519 0.918266 -0.261850
C155  C     C_3   0.302268 0.196939 0.858729 -0.299953
C156  C     C_3   0.391767 0.149909 0.822575 -0.431417
H94   H     H_    0.461861 0.134050 0.860889 0.156668
H95   H     H_    0.344177 0.103908 0.801343 0.155684
H96   H     H_    0.437286 0.177910 0.777897 0.169566
H97   H     H_    0.239775 0.215784 0.817175 0.174639
H98   H     H_    0.352568 0.241712 0.880386 0.174647
H99   H     H_    0.293376 0.131908 0.953339 0.147936
H100  H     H_    0.167231 0.121436 0.894191 0.164697
C157  C     C_3   0.535408 0.370232 0.415636 -0.226925
C158  C     C_3   0.399517 0.382834 0.405696 -0.251883
C159  C     C_3   0.373655 0.422628 0.336979 -0.400591
H101  H     H_    0.418590 0.474010 0.337935 0.136114
H102  H     H_    0.407271 0.394443 0.290143 0.175230
H103  H     H_    0.274431 0.429357 0.330993 0.129947
H104  H     H_    0.350618 0.333544 0.407202 0.216863
H105  H     H_    0.359028 0.408506 0.450897 0.126245
H106  H     H_    0.587968 0.415469 0.429412 0.171394
H107  H     H_    0.579201 0.360572 0.363609 0.144163
C160  C     C_3   0.635546 0.369752 0.099676 -0.238331
C161  C     C_3   0.715950 0.343010 0.161995 -0.322412
C162  C     C_3   0.791398 0.398253 0.197976 -0.419193
H108  H     H_    0.851965 0.424146 0.158683 0.169315
H109  H     H_    0.731116 0.434830 0.224820 0.213714
H110  H     H_    0.849203 0.374240 0.239297 0.140123
H111  H     H_    0.658842 0.319455 0.204487 0.180551
H112  H     H_    0.780041 0.303796 0.142902 0.163213
H113  H     H_    0.687937 0.410574 0.073366 0.178990
H114  H     H_    0.549887 0.390828 0.120792 0.165543
C163  C     C_3   0.554283 0.628731 0.593765 -0.226685
C164  C     C_3   0.415760 0.615482 0.601741 -0.245362
C165  C     C_3   0.380962 0.576873 0.670240 -0.415699
H115  H     H_    0.438120 0.530899 0.677670 0.138665
H116  H     H_    0.389065 0.610832 0.716557 0.176401
H117  H     H_    0.284368 0.560479 0.668706 0.120296
H118  H     H_    0.365856 0.663389 0.597036 0.208881
H119  H     H_    0.376713 0.588491 0.557182 0.128783
H120  H     H_    0.602409 0.582932 0.581498 0.172395
H121  H     H_    0.595800 0.641771 0.645049 0.136287
C166  C     C_3   0.554103 0.634229 0.909988 -0.235320
C167  C     C_3   0.659773 0.635729 0.855886 -0.276378
C168  C     C_3   0.626296 0.598163 0.788684 -0.419159
H122  H     H_    0.708877 0.587540 0.757002 0.153813
H123  H     H_    0.576085 0.549518 0.800526 0.175199
H124  H     H_    0.567668 0.632440 0.757952 0.164028
H125  H     H_    0.687301 0.689010 0.840646 0.183500
H126  H     H_    0.740845 0.612183 0.879967 0.147068
H127  H     H_    0.556047 0.585238 0.934792 0.167377
H128  H     H_    0.462863 0.632498 0.885740 0.166670

loop_
_geom_bond_atom_site_label_1
_geom_bond_atom_site_label_2
_ccdc_geom_bond_type
C6    C32   S    
Cr1   O2    S    
C7    C29   S    
C119  C143  S    
C103  C163  S    
C148  C149  S    
C120  C144  S    
C65   H67   S    
C110  C118  S    
C24   C104  S    
C153  H88   S    
Cr10  O36   S    
C151  C152  S    
C146  C147  S    
C16   C144  S    
C70   H72   S    
C164  H118  S    
C57   C59   A    
C8    O16   A    
C58   C60   A    
C152  H91   S    
C157  H106  S    
C62   C70   A    
C61   C63   A    
C38   H62   S    
C62   C64   A    
Cr10  O35   S    
C23   C103  S    
C48   H56   S    
C49   C51   A    
C34   C42   A    
C84   O28   A    
Cr4   O15   S    
C50   C52   A    
C23   C89   S    
C128  H24   S    
C99   C151  S    
C97   C105  S    
C40   H64   S    
C73   C75   A    
C149  H83   S    
C90   O42   A    
C42   C44   A    
C20   C132  S    
Cr10  O44   S    
C21   C133  S    
C168  H123  S    
C45   C47   A    
C112  H8    S    
C46   C48   A    
C115  C123  S    
C6    O22   A    
C159  H101  S    
C27   C57   A    
C87   O31   A    
C112  C120  S    
C81   O25   A    
C33   H57   S    
C164  C165  S    
C88   O40   A    
C29   C55   A    
C162  H108  S    
C30   C56   A    
C100  C124  S    
C68   H66   S    
C15   C111  S    
C153  H87   S    
C104  C128  S    
C154  H100  S    
C12   C20   S    
C142  H38   S    
C13   C21   S    
C85   C117  S    
Cr11  O37   S    
C63   C71   A    
C113  C137  S    
C36   C44   A    
C33   C51   A    
C80   H16   S    
C37   C45   A    
C130  C138  S    
C36   C50   A    
C39   C47   A    
C162  H110  S    
C40   C48   A    
C20   C94   S    
C34   C52   A    
Cr1   O49   S    
C24   C90   S    
C15   H47   S    
C28   C58   A    
C139  H35   S    
C98   C106  S    
C61   C69   A    
Cr5   O26   S    
C8    C30   S    
C1    O17   A    
C160  H113  S    
C10   C18   S    
C76   H12   S    
Cr12  O48   S    
C2    C28   S    
C32   C62   A    
C129  C137  S    
C126  C134  S    
C157  C158  S    
C7    O23   A    
C92   O4    A    
C84   O36   A    
C10   C138  S    
C85   O29   A    
C16   H48   S    
C14   C142  S    
C81   O33   A    
Cr5   O18   S    
C167  H126  S    
C69   C77   A    
C134  H30   S    
C83   O35   A    
C166  C167  S    
C71   C79   A    
C110  H6    S    
Cr6   O20   S    
C74   C76   A    
C39   H63   S    
C78   C80   A    
C156  H95   S    
Cr3   O13   S    
Cr5   O25   S    
C66   C74   A    
C78   H14   S    
C155  C156  S    
C124  C132  S    
C111  C119  S    
C67   H65   S    
Cr11  O51   S    
C59   C67   A    
C158  H105  S    
C35   C49   A    
C101  C125  S    
C102  C160  S    
C126  H22   S    
Cr5   O49   S    
C35   C43   A    
C133  H29   S    
C24   C136  S    
C135  C143  S    
C146  H76   S    
C84   C116  S    
C136  H32   S    
C147  H75   S    
C9    C137  S    
Cr11  O46   S    
C135  H31   S    
C9    H41   S    
Cr7   O22   S    
Cr2   O3    S    
C121  H17   S    
C100  C108  S    
C83   C115  S    
C161  C162  S    
C73   H9    S    
C104  C112  S    
C1    O9    A    
C122  H18   S    
C45   H53   S    
C91   O3    A    
C159  H102  S    
C87   C119  S    
C150  H80   S    
C97   C145  S    
C163  H121  S    
C93   O45   A    
Cr12  O40   S    
C57   C65   A    
Cr1   O10   S    
C12   H44   S    
C141  H37   S    
C148  H86   S    
C15   C143  S    
C151  H93   S    
C40   C54   A    
C165  H116  S    
C96   O48   A    
C155  H98   S    
C10   C106  S    
C67   C75   A    
Cr8   O24   S    
C166  H128  S    
Cr7   O29   S    
C14   C110  S    
Cr1   O1    S    
C8    O24   A    
C102  C126  S    
C161  H111  S    
C123  H19   S    
C144  H40   S    
C103  C111  S    
C68   C76   A    
Cr4   O7    S    
C127  H23   S    
C14   C22   S    
C72   C80   A    
C164  H119  S    
C36   H60   S    
C11   C107  S    
Cr8   O31   S    
Cr6   O27   S    
C14   H46   S    
C114  C138  S    
C38   C46   A    
C131  C139  S    
C37   C55   A    
Cr3   O6    S    
C38   C56   A    
C147  H73   S    
Cr4   O16   S    
C22   C92   S    
C90   O2    A    
C25   C59   A    
Cr2   O50   S    
C26   C60   A    
C27   C49   A    
C87   O39   A    
C119  C127  S    
C29   C63   A    
C30   C64   A    
C41   C43   A    
C31   C61   A    
C149  H84   S    
Cr9   O42   S    
C37   H61   S    
C154  C155  S    
C168  H122  S    
C109  C117  S    
C11   C19   S    
C127  C135  S    
Cr12  O52   S    
C150  H82   S    
C47   H55   S    
C128  C136  S    
C92   O44   A    
C147  H74   S    
C101  C109  S    
C95   O47   A    
Cr9   O49   S    
C79   H15   S    
C11   C139  S    
C86   O30   A    
C116  C140  S    
C131  H27   S    
C105  H1    S    
C154  H99   S    
C82   O34   A    
C12   C140  S    
C17   C95   S    
C13   C141  S    
C88   C120  S    
C19   C93   S    
C145  H79   S    
C77   C79   A    
C158  C159  S    
C72   H70   S    
C3    O19   A    
C32   C54   A    
C153  H89   S    
C162  H109  S    
C43   H51   S    
C5    O21   A    
C3    C25   S    
C35   H59   S    
C34   H58   S    
C93   O5    A    
C152  H90   S    
C157  H107  S    
Cr4   O52   S    
C83   O27   A    
C117  C141  S    
C160  C161  S    
C134  C142  S    
C107  H3    S    
C20   C100  S    
C143  H39   S    
C19   C99   S    
C4    O12   A    
C86   C118  S    
C124  H20   S    
C22   C134  S    
C102  C110  S    
Cr10  O43   S    
C74   H10   S    
C168  H124  S    
C16   C112  S    
C12   C108  S    
C21   C91   S    
C105  C113  S    
Cr5   O17   S    
C116  C124  S    
C123  C131  S    
C94   O6    A    
C121  C129  S    
C103  C127  S    
C94   O46   A    
C4    C26   S    
C120  C128  S    
C132  C140  S    
C99   C107  S    
Cr2   O12   S    
C133  C141  S    
C23   C135  S    
C33   C41   A    
C108  C116  S    
C2    O18   A    
C136  C144  S    
C46   H54   S    
C132  H28   S    
C156  H94   S    
C39   C53   A    
C42   H50   S    
C11   H43   S    
Cr11  O38   S    
C88   O32   A    
Cr2   O11   S    
C60   C68   A    
C81   C113  S    
C82   O26   A    
C9    C105  S    
C71   H69   S    
C3    O11   A    
C165  H115  S    
C146  H77   S    
C70   C78   A    
C18   C96   S    
Cr11  O45   S    
Cr7   O21   S    
Cr2   O4    S    
C163  C164  S    
C69   H71   S    
C106  C114  S    
C89   O41   A    
C149  C150  S    
C91   O43   A    
C160  H114  S    
C44   H52   S    
C65   C73   A    
Cr7   O51   S    
C4    O20   A    
Cr12  O47   S    
Cr8   O52   S    
C163  H120  S    
C58   C66   A    
Cr1   O9    S    
C97   C121  S    
C148  H85   S    
C21   C101  S    
C15   C23   S    
C13   C109  S    
C16   C24   S    
C167  H125  S    
C167  C168  S    
C138  H34   S    
C95   O7    A    
C10   H42   S    
C166  H127  S    
C53   C55   A    
C19   C131  S    
Cr6   O19   S    
C54   C56   A    
C17   C129  S    
C85   O37   A    
Cr10  O50   S    
C111  H7    S    
C82   C114  S    
C66   H68   S    
C130  H26   S    
C161  H112  S    
C100  C154  S    
C28   C50   A    
C2    O10   A    
C156  H96   S    
Cr3   O14   S    
C145  C146  S    
C106  H2    S    
Cr4   O8    S    
Cr6   O50   S    
C26   C52   A    
Cr8   O32   S    
C104  C166  S    
Cr6   O28   S    
C158  H104  S    
C115  C139  S    
C96   O8    A    
C113  C121  S    
C31   C53   A    
Cr9   O34   S    
C107  C115  S    
C137  H33   S    
Cr3   O5    S    
C9    C17   S    
C125  H21   S    
C140  H36   S    
Cr9   O33   S    
C99   C123  S    
C125  C133  S    
C129  H25   S    
C152  C153  S    
Cr9   O41   S    
C101  C157  S    
C118  C142  S    
Cr3   O51   S    
C108  H4    S    
C118  C126  S    
C25   C51   A    
C22   C102  S    
C159  H103  S    
C5    O13   A    
C98   C148  S    
C150  H81   S    
C109  H5    S    
Cr12  O39   S    
C17   C97   S    
C13   H45   S    
C64   C72   A    
C41   H49   S    
C18   C130  S    
C151  H92   S    
C114  C122  S    
C98   C122  S    
C77   H13   S    
C165  H117  S    
C7    O15   A    
C1    C27   S    
C86   O38   A    
C155  H97   S    
C6    O14   A    
C75   H11   S    
C18   C98   S    
C89   O1    A    
C117  C125  S    
C122  C130  S    
Cr8   O23   S    
Cr7   O30   S    
C145  H78   S    
C5    C31   S    
