data_mof_unit_41859.cif
_audit_creation_date              2013-03-05T17:03:54-0500
_audit_creation_method            fapswitch 2.2
_symmetry_space_group_name_H-M    P1
_symmetry_Int_Tables_number       1
_space_group_crystal_system       triclinic
_cell_length_a                    10.739591
_cell_length_b                    16.175546
_cell_length_c                    16.941932
_cell_angle_alpha                 87.847367
_cell_angle_beta                  92.941334
_cell_angle_gamma                 94.201164
_cell_volume                      2929.66745802

loop_
_atom_site_label
_atom_site_type_symbol
_atom_site_description
_atom_site_fract_x
_atom_site_fract_y
_atom_site_fract_z
_atom_type_partial_charge
O1    O     O_R   0.494530 0.422540 0.612660 -0.572449
O2    O     O_R   0.505470 0.577460 0.387340 -0.613450
O3    O     O_R   0.504350 0.561840 0.618900 -0.565122
O4    O     O_R   0.495650 0.438160 0.381100 -0.586799
C1    C     C_R   0.501158 0.489329 0.652620 0.921901
C2    C     C_R   0.510000 0.510513 0.347796 0.929960
O5    O     O_R   0.678330 0.430350 0.496870 -0.642672
O6    O     O_R   0.321670 0.569650 0.503130 -0.566980
O7    O     O_R   0.688150 0.569660 0.503110 -0.624717
O8    O     O_R   0.311850 0.430340 0.496890 -0.611701
C3    C     C_R   0.740217 0.501888 0.495931 0.843707
C4    C     C_R   0.259697 0.499488 0.493181 0.890539
Zn1   Zn    Zn3+2 0.493440 0.406980 0.495830 0.984107
Zn2   Zn    Zn3+2 0.506560 0.593020 0.504170 1.018431
H1    H     H_    0.827384 0.896462 0.494296 0.245544
H2    H     H_    0.162230 0.122637 0.401739 0.228688
C5    C     C_R   0.803631 0.783982 0.429523 0.279340
C6    C     C_R   0.128994 0.205206 0.492621 0.314970
C7    C     C_R   0.832495 0.700811 0.428698 -0.241346
C8    C     C_R   0.102854 0.285978 0.508803 -0.275422
H3    H     H_    0.801626 0.663555 0.378588 0.193933
H4    H     H_    0.087794 0.302037 0.568794 0.190924
C9    C     C_R   0.903838 0.665399 0.491216 -0.080848
C10   C     C_R   0.094914 0.346538 0.448064 -0.070459
C11   C     C_R   0.949265 0.714610 0.555564 0.183160
C12   C     C_R   0.115681 0.327312 0.369421 0.239701
C13   C     C_R   0.920436 0.798492 0.556554 0.186211
C14   C     C_R   0.135378 0.244493 0.351466 0.187861
C15   C     C_R   0.848661 0.832138 0.493398 -0.346847
C16   C     C_R   0.143490 0.185083 0.414046 -0.334153
C17   C     C_R   0.075012 0.576638 0.478526 -0.146249
C18   C     C_R   0.922473 0.431154 0.468378 -0.235088
H5    H     H_    0.134011 0.633961 0.480165 0.196974
H6    H     H_    0.863602 0.374338 0.460703 0.156894
C19   C     C_R   0.126767 0.499938 0.478721 -0.095674
C20   C     C_R   0.871579 0.505987 0.482461 -0.077421
C21   C     C_R   0.049744 0.427262 0.466265 0.101092
C22   C     C_R   0.947885 0.581175 0.482533 0.110269
C23   C     C_R   0.499261 0.484450 0.737998 -0.229488
C24   C     C_R   0.531596 0.515107 0.263301 -0.236224
C25   C     C_R   0.552526 0.551346 0.782056 0.479704
C26   C     C_R   0.526794 0.442449 0.219077 0.537277
C27   C     C_R   0.531935 0.552690 0.861598 -0.316635
C28   C     C_R   0.524842 0.449623 0.137563 -0.302047
C29   C     C_R   0.471321 0.483944 0.900452 0.145549
C30   C     C_R   0.535517 0.528080 0.099449 0.159097
C31   C     C_R   0.418965 0.416939 0.856911 0.498814
C32   C     C_R   0.557142 0.599643 0.143205 0.504510
C33   C     C_R   0.434988 0.416777 0.775612 -0.379686
C34   C     C_R   0.559494 0.592193 0.225665 -0.438753
N1    N     N_2   0.468450 0.478283 0.983596 -0.143868
N2    N     N_2   0.530371 0.536436 0.016693 -0.145779
H7    H     H_    0.515935 0.393545 0.104093 0.204567
H8    H     H_    0.568938 0.606724 0.893308 0.205106
H9    H     H_    0.394896 0.364830 0.741934 0.204095
H10   H     H_    0.582221 0.646262 0.260028 0.223588
N3    N     N_R   0.515300 0.716920 0.509720 -0.155987
N4    N     N_R   0.484700 0.283080 0.490280 -0.165655
C35   C     C_R   0.434715 0.760092 0.461688 0.474290
C36   C     C_R   0.528450 0.237335 0.553943 0.461118
C37   C     C_R   0.427056 0.846858 0.471460 0.273454
C38   C     C_R   0.517366 0.149567 0.554420 0.250694
C39   C     C_R   0.511907 0.889494 0.525414 0.100189
C40   C     C_R   0.480180 0.108316 0.483275 0.079681
C41   C     C_R   0.588610 0.841564 0.576833 0.120030
C42   C     C_R   0.445718 0.158259 0.415977 0.131478
C43   C     C_R   0.588486 0.755321 0.567068 -0.164965
C44   C     C_R   0.443736 0.244990 0.422760 -0.256239
N5    N     N_2   0.514191 0.977763 0.535007 -0.052083
N6    N     N_2   0.479032 0.019597 0.475384 0.003065
H11   H     H_    0.647321 0.718335 0.605656 0.212208
H12   H     H_    0.411430 0.282603 0.372927 0.257285
O9    O     O_3   0.577016 0.277462 0.620353 -0.622290
C45   C     C_3   0.708762 0.277408 0.623793 0.144609
H13   H     H_    0.748222 0.295687 0.565588 0.131580
H14   H     H_    0.738193 0.214758 0.642203 0.196650
C46   C     C_3   0.762007 0.339156 0.685185 -0.332262
H15   H     H_    0.727950 0.401160 0.669896 0.222738
H16   H     H_    0.728975 0.318754 0.744426 0.227307
C47   C     C_3   0.904485 0.347013 0.688513 -0.941245
H17   H     H_    0.942408 0.285500 0.700908 0.290339
H18   H     H_    0.939279 0.389375 0.736069 0.261755
H19   H     H_    0.938314 0.373787 0.631622 0.270363
O10   O     O_3   0.345708 0.715460 0.415051 -0.613577
C48   C     C_3   0.357143 0.736907 0.333975 0.122522
H20   H     H_    0.440666 0.711119 0.312556 0.160657
H21   H     H_    0.367933 0.804805 0.321622 0.169435
C49   C     C_3   0.239754 0.702985 0.286864 -0.473375
H22   H     H_    0.155047 0.716513 0.317485 0.236387
H23   H     H_    0.235767 0.734192 0.227294 0.187242
C50   C     C_3   0.235823 0.609656 0.277065 -0.643706
H24   H     H_    0.308244 0.594457 0.236886 0.231037
H25   H     H_    0.143324 0.587802 0.250297 0.274784
H26   H     H_    0.249864 0.576844 0.335109 0.277541
O11   O     O_3   0.555016 0.106440 0.622603 -0.594847
C51   C     C_3   0.450516 0.082672 0.668178 0.158167
H27   H     H_    0.473699 0.026457 0.704068 0.196865
H28   H     H_    0.364721 0.064312 0.631365 0.180916
C52   C     C_3   0.424568 0.150941 0.724369 -0.355988
H29   H     H_    0.513518 0.174633 0.754802 0.255848
H30   H     H_    0.383592 0.203042 0.690027 0.246328
C53   C     C_3   0.333333 0.118748 0.786471 -0.830321
H31   H     H_    0.244120 0.093521 0.757639 0.309438
H32   H     H_    0.313495 0.170300 0.824340 0.271566
H33   H     H_    0.374310 0.069263 0.824532 0.262716
O12   O     O_3   0.337116 0.889883 0.429100 -0.584177
C54   C     C_3   0.216855 0.867621 0.457160 0.170229
H34   H     H_    0.196175 0.911713 0.502616 0.212977
H35   H     H_    0.207700 0.804606 0.486251 0.125066
C55   C     C_3   0.119755 0.868998 0.387441 -0.387869
H36   H     H_    0.163354 0.855948 0.331788 0.244233
H37   H     H_    0.044994 0.819475 0.397099 0.182941
C56   C     C_3   0.061958 0.951865 0.375143 -0.682751
H38   H     H_    0.025656 0.972212 0.430878 0.272079
H39   H     H_    0.983262 0.946016 0.330104 0.266037
H40   H     H_    0.133263 0.998416 0.352739 0.304742
N7    N     N_R   0.664919 0.878671 0.640325 0.234555
O13   O     O_R   0.694371 0.834369 0.703326 -0.334889
O14   O     O_R   0.709096 0.955636 0.634994 -0.294474
N8    N     N_R   0.415581 0.123000 0.339775 0.246730
O15   O     O_R   0.424864 0.169410 0.275628 -0.332790
O16   O     O_R   0.377966 0.045184 0.333204 -0.309504
N9    N     N_R   0.732426 0.820383 0.364610 0.201979
O17   O     O_R   0.694660 0.894661 0.368865 -0.388607
O18   O     O_R   0.708818 0.780935 0.299433 -0.441850
N10   N     N_R   0.137260 0.143166 0.555443 0.217552
O19   O     O_R   0.161857 0.067915 0.540593 -0.419451
O20   O     O_R   0.118422 0.160991 0.627949 -0.413780
N11   N     N_R   0.031389 0.681119 0.616493 0.211902
O21   O     O_R   0.008509 0.606205 0.645417 -0.450889
O22   O     O_R   0.137641 0.721077 0.635526 -0.369830
N12   N     N_R   0.119397 0.392048 0.309207 0.221248
O23   O     O_R   0.222827 0.411835 0.274058 -0.365202
O24   O     O_R   0.023549 0.435807 0.294024 -0.438180
N13   N     N_R   0.962830 0.850161 0.621281 0.261561
O25   O     O_R   0.984267 0.929762 0.609401 -0.303590
O26   O     O_R   0.967267 0.819734 0.693485 -0.305570
N14   N     N_R   0.141186 0.218467 0.270971 0.251313
O27   O     O_R   0.152491 0.140886 0.256947 -0.340343
O28   O     O_R   0.120979 0.268889 0.210822 -0.319105
O29   O     O_3   0.520243 0.363792 0.254173 -0.584019
C57   C     C_3   0.642650 0.340850 0.275904 0.116140
H41   H     H_    0.637234 0.301803 0.331020 0.176451
H42   H     H_    0.710629 0.394500 0.290229 0.122544
C58   C     C_3   0.692120 0.289867 0.211442 -0.373231
H43   H     H_    0.619182 0.241563 0.192148 0.283380
H44   H     H_    0.715268 0.331124 0.159556 0.216403
C59   C     C_3   0.808940 0.247797 0.241321 -0.797297
H45   H     H_    0.882524 0.294848 0.261908 0.288815
H46   H     H_    0.845002 0.213536 0.192751 0.291965
H47   H     H_    0.786885 0.203160 0.290957 0.256685
O30   O     O_3   0.619926 0.618263 0.747534 -0.611519
C60   C     C_3   0.747877 0.602084 0.747580 0.141201
H48   H     H_    0.791720 0.645418 0.702990 0.214909
H49   H     H_    0.761408 0.538226 0.728626 0.101890
C61   C     C_3   0.815054 0.617883 0.828614 -0.405888
H50   H     H_    0.791553 0.678804 0.849774 0.268640
H51   H     H_    0.783922 0.568581 0.872096 0.208312
C62   C     C_3   0.956599 0.617538 0.825058 -0.761910
H52   H     H_    0.982320 0.558436 0.801155 0.264458
H53   H     H_    0.000593 0.623710 0.885506 0.246395
H54   H     H_    0.993222 0.670576 0.787480 0.325989
O31   O     O_3   0.360008 0.349026 0.895208 -0.627203
C63   C     C_3   0.228858 0.349507 0.881242 0.070081
H55   H     H_    0.188918 0.284521 0.888575 0.187084
H56   H     H_    0.200831 0.370389 0.819760 0.131171
C64   C     C_3   0.172288 0.402368 0.941697 -0.326304
H57   H     H_    0.202817 0.381615 0.002473 0.270885
H58   H     H_    0.205788 0.468487 0.932531 0.216208
C65   C     C_3   0.029748 0.395436 0.933951 -0.903525
H59   H     H_    0.997090 0.417657 0.874228 0.250487
H60   H     H_    0.992067 0.434250 0.978547 0.277739
H61   H     H_    0.993144 0.330094 0.944111 0.278715
O32   O     O_3   0.579338 0.675668 0.103945 -0.609340
C66   C     C_3   0.488885 0.730191 0.122605 0.077251
H62   H     H_    0.511788 0.755471 0.182099 0.177655
H63   H     H_    0.392881 0.698515 0.120990 0.125918
C67   C     C_3   0.490244 0.802642 0.062163 -0.304134
H64   H     H_    0.585240 0.834990 0.062658 0.254711
H65   H     H_    0.467284 0.778700 0.002100 0.235335
C68   C     C_3   0.395743 0.864395 0.080658 -0.875737
H66   H     H_    0.299703 0.833694 0.079103 0.259564
H67   H     H_    0.398965 0.916326 0.035882 0.280528
H68   H     H_    0.418147 0.890037 0.140064 0.285927

loop_
_geom_bond_atom_site_label_1
_geom_bond_atom_site_label_2
_geom_bond_distance
_ccdc_geom_bond_type
C42   C44   1.413705 A    
C39   C41   1.416950 A    
N10   O19   1.300647 A    
C13   C15   1.402974 A    
C5    C15   1.402185 A    
O9    C45   1.413169 S    
O11   C51   1.416656 S    
C61   C62   1.524846 S    
C59   H47   1.111011 S    
C11   N11   1.439271 S    
C67   H64   1.111732 S    
N13   O25   1.301258 A    
C64   H58   1.110980 S    
C25   O30   1.385203 S    
C46   H15   1.109624 S    
O5    C3    1.291536 A    
C63   H56   1.116226 S    
C45   H14   1.112312 S    
O1    C1    1.292015 A    
C18   C20   1.397473 A    
C61   H50   1.111552 S    
C7    H3    1.083568 S    
C59   H46   1.110246 S    
N11   O21   1.301165 A    
N7    O14   1.300986 A    
C48   H20   1.099952 S    
N3    C35   1.368370 A    
C65   H59   1.109384 S    
C29   N1    1.409926 S    
H2    C16   1.074330 S    
C51   C52   1.534500 S    
C30   N2    1.402126 S    
C36   O9    1.379939 S    
C53   H33   1.110806 S    
C36   C38   1.415711 A    
C29   C31   1.401156 A    
O4    Zn1   1.990586 S    
C37   C39   1.418222 A    
O32   C66   1.414010 S    
C38   C40   1.424617 A    
C53   H31   1.110298 S    
C55   H36   1.107950 S    
O29   C57   1.418789 S    
C28   H7    1.083449 S    
C5    N9    1.439430 S    
O31   C63   1.416739 S    
C28   C30   1.401935 A    
N12   O23   1.300924 A    
C41   C43   1.410854 A    
C45   C46   1.529620 S    
C51   H28   1.113997 S    
O6    Zn2   1.993219 S    
C54   H34   1.110454 S    
C17   H5    1.084468 S    
C6    C16   1.401259 A    
C40   N6    1.445377 S    
C66   C67   1.526794 S    
C43   H11   1.080834 S    
C44   H12   1.079639 S    
C56   H40   1.105151 S    
C31   O31   1.383971 S    
C32   C34   1.396803 A    
C42   N8    1.442968 S    
C38   O11   1.384700 S    
C25   C27   1.378003 A    
C57   C58   1.531813 S    
O2    C2    1.299787 A    
C26   C28   1.380730 A    
N3    C43   1.357580 A    
C47   H19   1.109083 S    
C58   H44   1.110834 S    
N8    O16   1.300519 A    
H1    C15   1.082320 S    
C64   C65   1.525955 S    
C32   O32   1.386865 S    
C48   H21   1.109074 S    
C62   H54   1.109626 S    
C30   C32   1.396723 A    
C35   C37   1.428188 A    
C45   H13   1.114468 S    
N1    N2    1.245459 D    
C8    C10   1.397598 A    
N9    O17   1.301595 A    
C14   N14   1.447970 S    
C59   H45   1.108574 S    
C66   H63   1.116725 S    
C68   H67   1.110341 S    
C50   H24   1.106192 S    
Zn1   N4    2.004983 S    
C68   H66   1.110989 S    
C34   H10   1.075086 S    
C4    C19   1.436538 S    
C40   C42   1.421584 A    
C7    C9    1.404437 A    
O7    Zn2   2.014563 S    
C3    C20   1.436990 S    
C50   H25   1.109887 S    
O7    C3    1.279074 A    
C27   H8    1.083029 S    
C62   H52   1.110628 S    
C61   H51   1.110200 S    
C49   C50   1.522214 S    
O6    C4    1.285137 A    
C51   H27   1.111150 S    
C26   O29   1.382625 S    
C62   H53   1.110451 S    
C10   C21   1.474381 S    
C46   H16   1.112032 S    
C18   C21   1.375240 A    
O10   C48   1.413304 S    
C60   C61   1.538917 S    
C53   H32   1.110236 S    
C37   O12   1.386442 S    
C27   C29   1.405889 A    
C55   C56   1.520879 S    
O3    Zn2   1.990583 S    
O8    C4    1.285161 A    
C47   H18   1.109671 S    
C23   C33   1.401012 A    
C49   H23   1.111612 S    
C1    C23   1.446768 S    
C11   C13   1.414540 A    
C54   C55   1.535633 S    
C2    C24   1.460171 S    
O4    C2    1.282462 A    
C60   H49   1.114864 S    
C58   H43   1.110948 S    
C64   H57   1.111723 S    
C58   C59   1.525574 S    
C12   N12   1.434083 S    
N8    O15   1.301322 A    
C56   H38   1.109901 S    
C48   C49   1.534866 S    
N4    C44   1.357675 A    
N13   O26   1.301212 A    
Zn2   N3    2.004982 S    
C63   H55   1.110861 S    
N10   O20   1.301403 A    
C68   H68   1.111186 S    
C19   C21   1.403214 A    
C63   C64   1.534619 S    
C10   C12   1.411905 A    
C8    H4    1.081420 S    
C47   H17   1.111272 S    
O3    C1    1.284137 A    
O8    Zn1   2.014562 S    
C67   H65   1.111806 S    
N14   O28   1.300593 A    
C31   C33   1.396924 A    
C9    C22   1.489330 S    
C12   C14   1.417985 A    
C35   O10   1.386888 S    
C17   C22   1.377885 A    
C13   N13   1.438823 S    
C20   C22   1.415884 A    
C39   N5    1.441353 S    
C66   H62   1.111052 S    
C33   H9    1.083874 S    
C52   H29   1.111719 S    
C6    N10   1.439051 S    
C50   H26   1.108495 S    
C46   C47   1.524433 S    
C54   H35   1.115394 S    
C65   H60   1.110417 S    
C24   C34   1.398667 A    
C17   C19   1.395977 A    
C24   C26   1.413723 A    
C5    C7    1.403268 A    
C14   C16   1.407631 A    
C6    C8    1.396273 A    
C9    C11   1.419101 A    
N5    N6    1.252108 D    
O2    Zn2   2.003956 S    
C55   H37   1.105680 S    
C67   C68   1.526659 S    
N9    O18   1.300489 A    
N14   O27   1.301400 A    
O5    Zn1   1.993219 S    
C52   C53   1.525805 S    
O1    Zn1   2.003952 S    
C49   H22   1.109387 S    
C23   C25   1.407634 A    
N12   O24   1.301020 A    
O12   C54   1.416260 S    
C41   N7    1.440463 S    
C57   H41   1.109115 S    
O30   C60   1.417502 S    
N11   O22   1.301416 A    
C60   H48   1.110001 S    
N7    O13   1.301514 A    
N4    C36   1.367699 A    
C52   H30   1.110699 S    
C57   H42   1.117949 S    
C18   H6    1.084730 S    
C56   H39   1.110420 S    
C65   H61   1.110709 S    
