data_mof_unit_33251.cif
_audit_creation_date              2012-12-10T17:05:39-0500
_audit_creation_method            fapswitch 2.2
_symmetry_space_group_name_H-M    P1
_symmetry_Int_Tables_number       1
_space_group_crystal_system       triclinic
_cell_length_a                    15.863764
_cell_length_b                    11.122359
_cell_length_c                    10.112378
_cell_angle_alpha                 112.75333
_cell_angle_beta                  98.194483
_cell_angle_gamma                 93.315336
_cell_volume                      1616.0809866

loop_
_atom_site_label
_atom_site_type_symbol
_atom_type_description
_atom_site_fract_x
_atom_site_fract_y
_atom_site_fract_z
_atom_type_partial_charge
C1    C     C_R   0.495827 0.254342 0.439250 0.818400
C2    C     C_3   0.942960 0.358519 0.466657 0.489029
C3    C     C_3   0.918069 0.503134 0.510317 0.091885
C4    C     C_3   0.972044 0.601879 0.665564 0.305388
C5    C     C_3   0.071098 0.590053 0.659781 0.063032
C6    C     C_1   0.825127 0.500513 0.505771 0.060030
C7    C     C_1   0.175939 0.499982 0.499484 0.009061
C8    C     C_1   0.251409 0.499720 0.499826 -0.101501
C9    C     C_2   0.486046 0.113373 0.405075 -0.282632
C10   C     C_2   0.522863 0.061933 0.497901 0.096752
C11   C     C_2   0.511132 0.886532 0.592479 -0.396473
C12   C     C_R   0.340864 0.499757 0.500140 0.834312
C13   C     C_2   0.484589 0.931749 0.488222 0.287704
C14   C     C_2   0.513540 0.494543 0.070128 0.204462
C15   C     C_2   0.491365 0.481592 0.909465 0.358881
C16   C     C_R   0.503263 0.745681 0.560328 0.861071
C17   C     C_R   0.659235 0.499487 0.499741 0.781739
C18   C     C_3   0.040631 0.360361 0.464918 -0.383712
C19   C     C_3   0.040424 0.561887 0.397247 -0.110563
C20   C     C_3   0.941683 0.549200 0.390777 -0.514186
C21   C     C_1   0.749033 0.498967 0.501027 -0.156952
C22   C     C_3   0.084036 0.501309 0.502666 0.084556
Cu1   Cu    Cu3+1 0.514650 0.521810 0.644910 1.054342
Cu2   Cu    Cu3+1 0.485350 0.478190 0.355090 0.963686
H1    H     H_    0.072025 0.323123 0.544462 0.235870
H2    H     H_    0.551341 0.949573 0.695168 0.147166
H3    H     H_    0.437348 0.055630 0.311343 0.180509
H4    H     H_    0.052255 0.289458 0.359445 0.179749
H5    H     H_    0.062628 0.669337 0.450179 0.142298
H6    H     H_    0.908324 0.480908 0.280533 0.237380
H7    H     H_    0.917904 0.644636 0.404484 0.176509
H8    H     H_    0.105991 0.688814 0.686908 0.114395
N1    N     N_2   0.463320 0.445430 0.137380 -0.172579
N2    N     N_2   0.536720 0.554500 0.862620 -0.092166
O1    O     O_R   0.507820 0.332330 0.577400 -0.550845
O2    O     O_R   0.483070 0.295500 0.332660 -0.602258
O3    O     O_R   0.391820 0.518430 0.622420 -0.495174
O4    O     O_R   0.367070 0.481600 0.377680 -0.588575
O5    O     O_R   0.516930 0.704500 0.667340 -0.524886
O6    O     O_R   0.492180 0.667670 0.422600 -0.542039
O7    O     O_R   0.632930 0.518400 0.622320 -0.557345
O8    O     O_R   0.608180 0.481570 0.377580 -0.603763
Br1   Br    Br    0.878026 0.237037 0.275875 -0.566609
Br2   Br    Br    0.914081 0.270874 0.590762 -0.491356
C23   C     C_3   0.959849 0.750415 0.706128 -0.412270
C24   C     C_3   0.868488 0.788113 0.723543 -0.330832
C25   C     C_3   0.871278 0.922712 0.846978 -0.754199
H9    H     H_    0.901737 0.921546 0.952391 0.286608
H10   H     H_    0.908351 0.999426 0.826274 0.253429
H11   H     H_    0.804921 0.946717 0.856122 0.248315
H12   H     H_    0.834999 0.789769 0.620023 0.198627
H13   H     H_    0.829102 0.717294 0.749170 0.265109
H14   H     H_    0.004104 0.807353 0.811388 0.236947
H15   H     H_    0.982686 0.786886 0.628136 0.162347
Br3   Br    Br    0.390574 0.830953 0.328893 -0.458865
C26   C     C_3   0.604971 0.132303 0.607918 -0.400998
C27   C     C_3   0.681373 0.054075 0.573884 -0.372230
C28   C     C_3   0.757837 0.116544 0.697524 -0.759645
H16   H     H_    0.773219 0.221817 0.719449 0.298586
H17   H     H_    0.742889 0.109531 0.798395 0.241578
H18   H     H_    0.814328 0.064980 0.666868 0.274267
H19   H     H_    0.666117 0.950401 0.558282 0.213240
H20   H     H_    0.699319 0.053883 0.471429 0.262219
H21   H     H_    0.626006 0.228820 0.607722 0.225863
H22   H     H_    0.593360 0.151694 0.719643 0.199734
Br4   Br    Br    0.395535 0.360422 0.768108 -0.514025
C29   C     C_3   0.604606 0.557946 0.147797 -0.330869
C30   C     C_3   0.668689 0.455527 0.125367 -0.361812
C31   C     C_3   0.701663 0.420874 0.981941 -0.792483
H23   H     H_    0.648311 0.373687 0.888107 0.246335
H24   H     H_    0.732876 0.510204 0.975975 0.280690
H25   H     H_    0.749950 0.351396 0.975285 0.258901
H26   H     H_    0.725077 0.497039 0.215116 0.225698
H27   H     H_    0.639174 0.363673 0.128329 0.254665
H28   H     H_    0.631075 0.630668 0.111172 0.212325
H29   H     H_    0.605146 0.620307 0.263301 0.214376
Br5   Br    Br    0.535831 0.736675 0.972285 -0.407705
C32   C     C_3   0.394099 0.339559 0.044818 -0.132332
C33   C     C_3   0.357814 0.238114 0.098155 -0.330979
C34   C     C_3   0.281054 0.148793 0.986773 -0.879202
H30   H     H_    0.228440 0.207083 0.973962 0.264126
H31   H     H_    0.300039 0.096892 0.879204 0.281376
H32   H     H_    0.256714 0.074181 0.024562 0.265779
H33   H     H_    0.406309 0.171620 0.104931 0.240669
H34   H     H_    0.334303 0.280851 0.201125 0.257450
H35   H     H_    0.339113 0.385049 0.010632 0.224169
H36   H     H_    0.422638 0.270651 0.955711 0.179247
C35   C     C_3   0.067022 0.522589 0.244735 -0.319880
C36   C     C_3   0.061048 0.374778 0.151758 -0.390763
C37   C     C_3   0.073761 0.347946 0.996879 -0.698177
H37   H     H_    0.023251 0.386788 0.942531 0.321887
H38   H     H_    0.138091 0.394017 0.998570 0.280755
H39   H     H_    0.069261 0.240325 0.933217 0.234671
H40   H     H_    0.112410 0.332188 0.199494 0.222006
H41   H     H_    0.997351 0.324992 0.145318 0.269183
H42   H     H_    0.026416 0.568625 0.182939 0.241248
H43   H     H_    0.134261 0.566864 0.259894 0.214063
Br6   Br    Br    0.135638 0.541315 0.808794 -0.461666
Br7   Br    Br    0.937280 0.567754 0.829653 -0.492147

loop_
_geom_bond_atom_site_label_1
_geom_bond_atom_site_label_2
_ccdc_geom_bond_type
C32   H36   S    
C35   H42   S    
C2    C18   S    
Cu2   O8    S    
C19   C20   S    
C3    C6    S    
C14   N1    D    
C37   H37   S    
C7    C8    T    
C25   H10   S    
C20   H6    S    
C23   C24   S    
C1    O1    A    
Cu2   O2    S    
N2    Br5   S    
C33   H33   S    
N1    C32   S    
C11   C13   D    
C28   H17   S    
C26   H22   S    
C24   H13   S    
C12   O3    A    
C26   C27   S    
C36   H40   S    
C31   H24   S    
C17   O8    A    
C5    C22   S    
C2    Br2   S    
C30   C31   S    
Cu2   O4    S    
C14   C29   S    
C26   H21   S    
C10   C26   S    
C9    C10   D    
C15   N2    D    
C35   H43   S    
C5    H8    S    
C32   H35   S    
C28   H18   S    
C23   H14   S    
C18   H1    S    
C34   H32   S    
C27   H20   S    
C25   H11   S    
C4    C23   S    
C29   C30   S    
C27   H19   S    
C19   C22   S    
C18   H4    S    
C34   H31   S    
C19   C35   S    
C32   C33   S    
C4    C5    S    
C11   H2    S    
C28   H16   S    
Cu1   O3    S    
C6    C21   T    
C24   H12   S    
C17   C21   S    
C36   H41   S    
C31   H25   S    
C11   C16   S    
C37   H38   S    
C25   H9    S    
C2    Br1   S    
C8    C12   S    
Cu1   N2    S    
C1    C9    S    
C3    C20   S    
C5    Br6   S    
C16   O6    A    
C23   H15   S    
Cu1   O1    S    
C29   H28   S    
C3    C4    S    
C19   H5    S    
C33   H34   S    
C9    H3    S    
C37   H39   S    
C24   C25   S    
Cu1   Cu2   S    
C18   C22   S    
C34   H30   S    
C10   C13   S    
C7    C22   S    
Cu2   N1    S    
Cu1   O7    S    
C2    C3    S    
C30   H26   S    
C15   Br4   S    
C27   C28   S    
Cu1   O5    S    
Cu2   O6    S    
C12   O4    A    
C31   H23   S    
C17   O7    A    
C16   O5    A    
C33   C34   S    
C35   C36   S    
C4    Br7   S    
C14   C15   S    
C29   H29   S    
C36   C37   S    
C30   H27   S    
C1    O2    A    
C13   Br3   S    
C20   H7    S    
