data_mof_unit_6907.cif
_audit_creation_date              2012-10-26T21:01:01-0400
_audit_creation_method            fapswitch 2.2
_symmetry_space_group_name_H-M    P1
_symmetry_Int_Tables_number       1
_space_group_crystal_system       triclinic
_cell_length_a                    10.927827
_cell_length_b                    10.83854
_cell_length_c                    9.625702
_cell_angle_alpha                 90.521412
_cell_angle_beta                  88.902364
_cell_angle_gamma                 91.941606
_cell_volume                      1139.1800363

loop_
_atom_site_label
_atom_site_type_symbol
_atom_type_description
_atom_site_fract_x
_atom_site_fract_y
_atom_site_fract_z
_atom_type_partial_charge
C1    C     C_R   0.501412 0.262797 0.499646 0.531135
C2    C     C_R   0.419122 0.425336 0.071836 0.132172
C3    C     C_R   0.418411 0.429806 0.923961 0.015417
C4    C     C_R   0.265281 0.491933 0.501639 0.565469
C5    C     C_R   0.572063 0.583072 0.926019 0.169485
C6    C     C_3   0.708451 0.602923 0.916680 0.439726
C7    C     C_3   0.707928 0.605974 0.076266 0.261588
C8    C     C_R   0.497431 0.737308 0.500185 0.566356
C9    C     C_R   0.734048 0.499203 0.498472 0.524409
C10   C     C_2   0.932931 0.438013 0.408037 0.030193
C11   C     C_2   0.865685 0.509929 0.491987 -0.056367
C12   C     C_R   0.507585 0.129799 0.497633 -0.020852
C13   C     C_2   0.063888 0.472890 0.395478 0.249914
C14   C     C_2   0.133351 0.461639 0.507975 0.246499
C15   C     C_R   0.545317 0.065414 0.613141 0.019696
C16   C     C_3   0.882781 0.315705 0.348913 -0.256735
C17   C     C_3   0.975991 0.244839 0.261691 -0.434243
C18   C     C_3   0.323760 0.336769 0.136411 -0.245224
C19   C     C_3   0.326574 0.206291 0.073527 -0.498133
C20   C     C_3   0.750125 0.727281 0.151597 -0.231003
C21   C     C_3   0.688126 0.845503 0.108073 -0.417955
C22   C     C_R   0.476725 0.064009 0.377013 -0.168453
C23   C     C_R   0.467878 0.934892 0.377023 0.207252
C24   C     C_R   0.499399 0.871088 0.498170 0.045667
C25   C     C_R   0.542420 0.938091 0.612935 -0.030681
C26   C     C_3   0.499613 0.932904 0.761290 -0.273612
C27   C     C_3   0.502991 0.072940 0.761251 -0.257983
C28   C     C_R   0.571252 0.584246 0.072743 0.165581
Cu1   Cu    Cu3+1 0.499990 0.499980 0.640670 0.967897
Cu2   Cu    Cu3+1 0.500010 0.500020 0.359330 1.008514
H1    H     H_    0.574421 0.114630 0.829535 0.157333
H2    H     H_    0.933125 0.156253 0.225362 0.142913
H3    H     H_    0.851302 0.256223 0.436951 0.154615
H4    H     H_    0.802399 0.329985 0.283640 0.218602
H5    H     H_    0.280871 0.202165 0.971599 0.136627
H6    H     H_    0.422279 0.176354 0.059717 0.153599
H7    H     H_    0.275398 0.140426 0.142781 0.140014
H8    H     H_    0.331878 0.326450 0.248168 0.211699
H9    H     H_    0.231771 0.373209 0.118572 0.164648
H10   H     H_    0.857406 0.524248 0.857392 0.340247
H11   H     H_    0.724457 0.705378 0.753070 0.346936
H12   H     H_    0.353698 0.373768 0.865324 0.116385
H13   H     H_    0.853881 0.515865 0.111238 0.304444
H14   H     H_    0.736034 0.887687 0.016749 0.189010
H15   H     H_    0.590533 0.827783 0.083482 0.173945
H16   H     H_    0.693549 0.914362 0.194069 0.139031
H17   H     H_    0.733004 0.714930 0.264779 0.167856
H18   H     H_    0.850731 0.741167 0.136666 0.140512
H19   H     H_    0.044388 0.528804 0.207039 0.308913
H20   H     H_    0.142039 0.400436 0.698747 0.330247
H21   H     H_    0.401732 0.929858 0.189996 0.308937
H22   H     H_    0.908386 0.586460 0.549148 0.107350
H23   H     H_    0.451812 0.112894 0.285596 0.123710
H24   H     H_    0.405622 0.891366 0.773801 0.151337
H25   H     H_    0.569035 0.893864 0.829515 0.163606
H26   H     H_    0.410883 0.112704 0.773181 0.138582
H27   H     H_    0.005814 0.299214 0.169143 0.162957
H28   H     H_    0.056892 0.223828 0.324393 0.160191
N1    N     N_R   0.500780 0.500930 0.147930 -0.208045
N2    N     N_R   0.500780 0.500890 0.852020 -0.243664
O1    O     O_R   0.500000 0.319640 0.618810 -0.497921
O2    O     O_3   0.744793 0.714445 0.852640 -0.762537
O3    O     O_3   0.764814 0.503065 0.129406 -0.682267
O4    O     O_3   0.111446 0.524243 0.274275 -0.717707
O5    O     O_3   0.078930 0.414261 0.628703 -0.746514
O6    O     O_3   0.420924 0.870856 0.264024 -0.683555
O7    O     O_R   0.500010 0.319680 0.381230 -0.534039
O8    O     O_R   0.321940 0.499980 0.618760 -0.536652
O9    O     O_R   0.321950 0.500020 0.381180 -0.468050
O10   O     O_R   0.499990 0.680320 0.618770 -0.529336
O11   O     O_R   0.500000 0.680360 0.381190 -0.444522
O12   O     O_R   0.678050 0.499980 0.618820 -0.448739
O13   O     O_R   0.678060 0.500020 0.381240 -0.476675
O14   O     O_3   0.768812 0.500817 0.860669 -0.629747

loop_
_geom_bond_atom_site_label_1
_geom_bond_atom_site_label_2
_ccdc_geom_bond_type
C23   C24   A    
C9    O12   A    
C3    H12   S    
C6    O14   S    
C6    C7    S    
C16   H3    S    
C2    C18   S    
C21   H14   S    
C19   H7    S    
C27   H26   S    
C15   C27   S    
Cu2   O7    S    
C12   C15   A    
C17   H28   S    
C18   H9    S    
Cu1   O12   S    
C16   H4    S    
C3    N2    A    
C6    O2    S    
Cu2   O13   S    
Cu2   O11   S    
C18   H8    S    
C5    C28   A    
H13   O3    S    
C10   C13   S    
H19   O4    S    
C19   H5    S    
C13   C14   D    
C26   H25   S    
C9    C11   S    
C7    O3    S    
C26   C27   S    
Cu1   Cu2   S    
C1    C12   S    
C9    O13   A    
H11   O2    S    
C26   H24   S    
C23   O6    S    
C4    O9    A    
C1    O7    A    
C14   O5    S    
H10   O14   S    
C2    C3    A    
C22   H23   S    
C21   H15   S    
C19   H6    S    
C22   C23   A    
C4    C14   S    
C5    C6    S    
H20   O5    S    
Cu1   O1    S    
C15   C25   A    
C20   H17   S    
C13   O4    S    
C10   C11   D    
C27   H1    S    
Cu1   O8    S    
C12   C22   A    
Cu2   O9    S    
C24   C25   A    
C21   H16   S    
Cu2   N1    S    
C28   N1    A    
C25   C26   S    
C4    O8    A    
C17   H2    S    
C2    N1    A    
C18   C19   S    
C8    O11   A    
C10   C16   S    
C11   H22   S    
C20   H18   S    
C5    N2    A    
C8    C24   S    
C20   C21   S    
Cu1   O10   S    
Cu1   N2    S    
C8    O10   A    
C7    C20   S    
C7    C28   S    
C17   H27   S    
C16   C17   S    
H21   O6    S    
C1    O1    A    
