data_mof_unit_17221.cif
_audit_creation_date              2012-12-10T16:50:07-0500
_audit_creation_method            fapswitch 2.2
_symmetry_space_group_name_H-M    P1
_symmetry_Int_Tables_number       1
_space_group_crystal_system       triclinic
_cell_length_a                    23.492383
_cell_length_b                    8.738849
_cell_length_c                    7.494067
_cell_angle_alpha                 102.982961
_cell_angle_beta                  95.192264
_cell_angle_gamma                 93.520566
_cell_volume                      1487.71881266

loop_
_atom_site_label
_atom_site_type_symbol
_atom_type_description
_atom_site_fract_x
_atom_site_fract_y
_atom_site_fract_z
_atom_type_partial_charge
C1    C     C_R   0.497234 0.200417 0.454092 0.840244
C2    C     C_R   0.502766 0.799583 0.545908 0.840245
C3    C     C_R   0.235118 0.530683 0.352230 0.016037
C4    C     C_R   0.764880 0.469297 0.647770 0.016033
C5    C     C_R   0.294512 0.529308 0.350812 -0.228701
C6    C     C_R   0.705486 0.470674 0.649185 -0.228702
C7    C     C_R   0.328634 0.501487 0.502478 -0.040216
C8    C     C_R   0.671365 0.498509 0.497523 -0.040215
C9    C     C_R   0.302632 0.474800 0.655426 -0.188219
C10   C     C_R   0.697369 0.525205 0.344581 -0.188221
C11   C     C_R   0.243360 0.473096 0.655530 -0.082031
C12   C     C_R   0.756641 0.526905 0.344480 -0.082027
C13   C     C_R   0.209475 0.501257 0.504877 0.295278
C14   C     C_R   0.790525 0.498731 0.495130 0.295278
C15   C     C_2   0.488918 0.033761 0.432997 -0.241938
C16   C     C_2   0.511082 0.966239 0.567003 -0.241938
C17   C     C_R   0.391083 0.500232 0.500829 0.811676
C18   C     C_R   0.608917 0.499767 0.499171 0.811675
C19   C     C_R   0.884330 0.639467 0.557628 0.591167
C20   C     C_R   0.115670 0.360521 0.442385 0.591170
C21   C     C_R   0.874806 0.362277 0.428209 0.615565
C22   C     C_R   0.125194 0.637710 0.571804 0.615565
C23   C     C_R   0.934538 0.358960 0.429762 -0.109379
C24   C     C_R   0.065462 0.641027 0.570252 -0.109377
C25   C     C_R   0.969826 0.500858 0.498210 -0.091118
C26   C     C_R   0.030174 0.499129 0.501804 -0.091117
C27   C     C_R   0.944791 0.644187 0.562989 -0.098877
C28   C     C_R   0.055209 0.355800 0.437026 -0.098877
C29   C     C_R   0.959501 0.217337 0.365585 0.589734
C30   C     C_R   0.040498 0.782650 0.634430 0.589734
C31   C     C_R   0.018953 0.214523 0.368840 -0.177564
C32   C     C_R   0.981047 0.785464 0.631175 -0.177564
Cu1   Cu    Cu3+1 0.506340 0.517380 0.684380 0.982280
Cu2   Cu    Cu3+1 0.493660 0.482620 0.315620 0.982280
H1    H     H_    0.314086 0.551758 0.232561 0.163320
H2    H     H_    0.685911 0.448216 0.767431 0.163322
H3    H     H_    0.327942 0.453398 0.774044 0.165508
H4    H     H_    0.672060 0.546618 0.225967 0.165508
H5    H     H_    0.223643 0.449594 0.772632 0.163918
H6    H     H_    0.776360 0.550415 0.227383 0.163917
N1    N     N_R   0.851453 0.500382 0.492323 -0.486088
N2    N     N_R   0.148547 0.499607 0.507688 -0.486088
N3    N     N_2   0.484110 0.456420 0.038520 -0.211933
N4    N     N_2   0.515890 0.543580 0.961480 -0.211934
O1    O     O_R   0.504120 0.286130 0.619770 -0.590440
O2    O     O_R   0.495880 0.713870 0.380230 -0.590440
O3    O     O_R   0.493410 0.256770 0.308360 -0.584117
O4    O     O_R   0.506590 0.743230 0.691640 -0.584116
O5    O     O_R   0.423230 0.514630 0.655730 -0.594218
O6    O     O_R   0.576770 0.485370 0.344270 -0.594217
O7    O     O_R   0.412530 0.485280 0.344320 -0.595939
O8    O     O_R   0.587470 0.514720 0.655680 -0.595939
O9    O     O_2   0.858085 0.771545 0.617587 -0.491711
O10   O     O_2   0.141915 0.228443 0.382425 -0.491711
O11   O     O_2   0.839935 0.228826 0.364166 -0.421786
O12   O     O_2   0.160065 0.771162 0.635845 -0.421786
F1    F     F_    0.926186 0.079633 0.299061 -0.614134
F2    F     F_    0.073814 0.920354 0.700955 -0.614133
C33   C     C_1   0.040555 0.063114 0.299882 0.502552
N5    N     N_1   0.057501 0.941709 0.244485 -0.196740
C34   C     C_1   0.959445 0.936873 0.700133 0.502552
N6    N     N_1   0.942499 0.058278 0.755531 -0.196740
C35   C     C_1   0.200802 0.563798 0.197868 0.281757
N7    N     N_1   0.173021 0.590819 0.074865 -0.242839
C36   C     C_1   0.799195 0.436171 0.802130 0.281756
N8    N     N_1   0.826973 0.409141 0.925132 -0.242829
C37   C     C_1   0.450666 0.949158 0.272591 0.311067
N9    N     N_1   0.420258 0.882361 0.144954 -0.256435
C38   C     C_1   0.549334 0.050842 0.727408 0.311066
N10   N     N_1   0.579742 0.117639 0.855046 -0.256436
C39   C     C_1   0.444590 0.342796 0.926955 0.557252
N11   N     N_1   0.411388 0.247053 0.835987 -0.342938
C40   C     C_1   0.555410 0.657204 0.073045 0.557254
N12   N     N_1   0.588612 0.752948 0.164013 -0.342940

loop_
_geom_bond_atom_site_label_1
_geom_bond_atom_site_label_2
_ccdc_geom_bond_type
Cu1   O1    S    
C40   N12   T    
C17   O7    A    
C18   O8    A    
C2    O2    A    
Cu1   O8    S    
Cu2   O7    S    
C6    C8    A    
C23   C29   A    
C24   C26   A    
C32   C34   S    
C4    C36   S    
Cu1   O5    S    
C15   C16   D    
C30   F2    S    
C31   C33   S    
C7    C17   S    
Cu2   O2    S    
C2    C16   S    
C3    C13   A    
C19   O9    S    
C33   N5    T    
C38   N10   T    
C13   N2    S    
Cu2   O6    S    
Cu2   N3    S    
C37   N9    T    
C4    C6    A    
C17   O5    A    
C5    C7    A    
C1    O3    A    
C22   O12   S    
C20   C28   A    
C2    O4    A    
C25   C26   A    
C8    C18   S    
C12   H6    S    
N3    N4    D    
C15   C37   S    
C9    H3    S    
Cu1   Cu2   S    
C11   H5    S    
C9    C11   A    
C10   C12   A    
C14   N1    S    
C1    C15   S    
C20   O10   S    
C12   C14   A    
C21   C23   A    
C21   N1    A    
C19   C27   A    
C18   O6    A    
C21   O11   S    
N4    C40   S    
C7    C9    A    
N3    C39   S    
C27   C32   A    
Cu1   N4    S    
C28   C31   A    
C16   C38   S    
C29   F1    S    
C3    C5    A    
C20   N2    A    
C3    C35   S    
C25   C27   A    
C26   C28   A    
C10   H4    S    
C39   N11   T    
C29   C31   A    
C30   C32   A    
C11   C13   A    
C1    O1    A    
C22   N2    A    
C5    H1    S    
C6    H2    S    
C22   C24   A    
C23   C25   A    
C4    C14   A    
C34   N6    T    
C24   C30   A    
C35   N7    T    
C8    C10   A    
C36   N8    T    
Cu1   O4    S    
Cu2   O3    S    
C19   N1    A    
