data_mof_unit_26137.cif
_audit_creation_date              2012-12-11T20:06:52-0500
_audit_creation_method            fapswitch 2.2
_symmetry_space_group_name_H-M    P1
_symmetry_Int_Tables_number       1
_space_group_crystal_system       triclinic
_cell_length_a                    8.31398
_cell_length_b                    16.080321
_cell_length_c                    18.99438
_cell_angle_alpha                 112.731418
_cell_angle_beta                  92.142166
_cell_angle_gamma                 83.238336
_cell_volume                      2325.76099635

loop_
_atom_site_label
_atom_site_type_symbol
_atom_type_description
_atom_site_fract_x
_atom_site_fract_y
_atom_site_fract_z
_atom_type_partial_charge
Ba1   Ba    Ba6+2 0.333520 0.539550 0.472180 1.725189
Ba2   Ba    Ba6+2 0.856270 0.460520 0.527840 1.694522
C1    C     C_3   0.016984 0.843169 0.301152 0.262993
C2    C     C_3   0.989332 0.755456 0.309391 0.444909
C3    C     C_3   0.041454 0.323611 0.284199 0.326751
C4    C     C_3   0.011739 0.294541 0.198910 -0.408437
C5    C     C_3   0.691759 0.284220 0.688237 0.363407
C6    C     C_3   0.710971 0.261872 0.759669 0.193721
C7    C     C_3   0.166811 0.226472 0.643489 0.649651
C8    C     C_3   0.129934 0.133446 0.638128 -0.326318
C9    C     C_R   0.516579 0.452354 0.036785 -0.031785
C10   C     C_R   0.449723 0.402001 0.072592 -0.141546
C11   C     C_R   0.311912 0.419482 0.933572 -0.089140
C12   C     C_3   0.541107 0.718266 0.310624 0.436607
C13   C     C_R   0.456483 0.455188 0.965889 0.049727
C14   C     C_R   0.258479 0.418581 0.863273 -0.087296
C15   C     C_R   0.344968 0.454119 0.821412 -0.036631
C16   C     C_R   0.484389 0.497014 0.854055 -0.049262
C17   C     C_R   0.539573 0.497714 0.927072 0.024261
C18   C     C_R   0.293830 0.448690 0.748266 0.028417
C19   C     C_R   0.385410 0.481691 0.706334 -0.299690
C20   C     C_R   0.516497 0.530799 0.738235 0.065542
C21   C     C_R   0.564763 0.541488 0.815210 -0.029592
C22   C     C_R   0.653763 0.496123 0.070637 0.015792
C23   C     C_3   0.535442 0.741545 0.239784 0.198448
C24   C     C_R   0.709117 0.497433 0.143650 -0.066377
C25   C     C_R   0.627219 0.454806 0.183433 -0.055320
C26   C     C_R   0.505080 0.400532 0.143142 0.437952
C27   C     C_R   0.685734 0.596102 0.856953 0.183073
C28   C     C_R   0.741727 0.593362 0.926579 -0.112127
C29   C     C_R   0.676343 0.541616 0.961230 -0.006375
C30   C     C_R   0.737641 0.537716 0.031404 0.038912
C31   C     C_R   0.884579 0.571216 0.062349 -0.083214
C32   C     C_R   0.850517 0.538882 0.175416 -0.038022
C33   C     C_R   0.939388 0.571605 0.132294 -0.078409
C34   C     C_3   0.631793 0.761030 0.699333 0.764916
C35   C     C_R   0.901000 0.545538 0.248951 -0.032155
C36   C     C_R   0.809483 0.512858 0.290940 -0.279988
C37   C     C_R   0.675684 0.466200 0.260317 0.065603
C38   C     C_2   0.397340 0.234395 0.476848 -0.244567
C39   C     C_R   0.808473 0.754308 0.507920 0.102379
C40   C     C_2   0.242386 0.110081 0.398554 -0.124984
C41   C     C_2   0.260221 0.198762 0.426324 0.062761
C42   C     C_2   0.523263 0.178667 0.485349 0.046628
C43   C     C_3   0.525685 0.077203 0.440412 -0.130456
C44   C     C_3   0.356240 0.045127 0.421167 -0.012226
C45   C     C_3   0.526034 0.853431 0.726364 -0.087617
C46   C     C_2   0.641349 0.018325 0.469721 0.375868
C47   C     C_2   0.588496 0.974129 0.510590 0.004737
C48   C     C_R   0.835344 0.939405 0.575539 0.034126
C49   C     C_R   0.700590 0.908928 0.530496 -0.091357
C50   C     C_R   0.950979 0.878851 0.592303 0.285804
C51   C     C_R   0.937417 0.785391 0.559133 0.055930
C52   C     C_R   0.681497 0.816039 0.500864 0.015530
C53   C     C_3   0.563902 0.249690 0.315629 0.689074
C54   C     C_3   0.641324 0.150041 0.286942 0.336157
C55   C     C_3   0.150825 0.666903 0.710073 0.352257
C56   C     C_3   0.183143 0.700917 0.795499 -0.396101
H1    H     H_    0.956528 0.771030 0.369802 -0.096702
H2    H     H_    0.521046 0.884743 0.789753 0.060776
H3    H     H_    0.400376 0.842287 0.705818 0.131021
H4    H     H_    0.586111 0.281942 0.377997 -0.023189
H5    H     H_    0.584898 0.115492 0.318708 0.025280
H6    H     H_    0.265622 0.634795 0.678619 -0.022170
H7    H     H_    0.062518 0.616293 0.695681 0.068519
H8    H     H_    0.120710 0.872908 0.337430 0.066214
H9    H     H_    0.284394 0.743785 0.809855 0.133824
H10   H     H_    0.215132 0.643131 0.813326 0.049621
H11   H     H_    0.073570 0.742186 0.827876 0.126172
H12   H     H_    0.888303 0.727560 0.271201 -0.059143
H13   H     H_    0.906730 0.891753 0.321290 0.041579
H14   H     H_    0.926924 0.356688 0.315601 -0.009217
H15   H     H_    0.133187 0.372493 0.300824 0.088106
H16   H     H_    0.906783 0.254407 0.182280 0.139414
H17   H     H_    0.986698 0.354690 0.183671 0.066429
H18   H     H_    0.120261 0.252169 0.166411 0.121366
H19   H     H_    0.637047 0.701360 0.200187 0.000285
H20   H     H_    0.771615 0.336737 0.693584 0.042383
H21   H     H_    0.565722 0.313446 0.685417 0.007194
H22   H     H_    0.839743 0.263999 0.778994 0.049464
H23   H     H_    0.635924 0.314571 0.806699 0.038015
H24   H     H_    0.130518 0.232100 0.588483 0.069703
H25   H     H_    0.203940 0.079220 0.591834 0.105706
H26   H     H_    0.000792 0.124862 0.625097 0.134481
H27   H     H_    0.495354 0.651303 0.295684 0.048929
H28   H     H_    0.158579 0.125629 0.692976 0.096350
H29   H     H_    0.347095 0.474148 0.649321 0.065932
H30   H     H_    0.147208 0.389300 0.842597 0.106271
H31   H     H_    0.052874 0.598664 0.151967 0.124505
H32   H     H_    0.850916 0.517261 0.346558 0.075879
H33   H     H_    0.233933 0.393143 0.962038 0.069007
H34   H     H_    0.358000 0.358649 0.044723 0.056516
H35   H     H_    0.832655 0.637511 0.954653 0.068969
H36   H     H_    0.669405 0.712995 0.328315 -0.185330
H37   H     H_    0.963169 0.595799 0.032751 0.081634
H38   H     H_    0.141646 0.084614 0.361515 0.108356
H39   H     H_    0.397963 0.307349 0.504875 0.057411
H40   H     H_    0.460243 0.979129 0.523137 0.046631
H41   H     H_    0.550821 0.814536 0.256777 0.085853
O1    O     O_2   0.402610 0.439360 0.314250 -0.413961
O2    O     O_3   0.087961 0.741015 0.692389 -0.552761
O3    O     O_3   0.445734 0.785787 0.369424 -0.603021
O4    O     O_2   0.787080 0.560670 0.685800 -0.446335
O5    O     O_3   0.541120 0.553770 0.595290 -0.506250
O6    O     O_3   0.080800 0.396070 0.612520 -0.482285
O7    O     O_3   0.559011 0.704689 0.726847 -0.667630
O8    O     O_3   0.164600 0.390590 0.443970 -0.487181
O9    O     O_3   0.682580 0.347920 0.567870 -0.504881
O10   O     O_2   0.859901 0.191311 0.495897 -0.464249
O11   O     O_3   0.732608 0.205520 0.622832 -0.586900
O12   O     O_3   0.648560 0.446300 0.404730 -0.491864
O13   O     O_3   0.025080 0.609480 0.556050 -0.524766
O14   O     O_2   0.948320 0.280590 0.426090 -0.426750
O15   O     O_3   0.097095 0.246415 0.299074 -0.600157
O16   O     O_2   0.955604 0.464910 0.750945 -0.510852
O17   O     O_3   0.079277 0.294937 0.705241 -0.642458
O18   O     O_3   0.108870 0.604000 0.387500 -0.503437
O19   O     O_2   0.236966 0.524995 0.248809 -0.481997
O20   O     O_3   0.629376 0.295390 0.276195 -0.624848
O21   O     O_3   0.130643 0.694305 0.288045 -0.553382
O22   O     O_2   0.241370 0.719440 0.573960 -0.457278
O23   O     O_3   0.507090 0.652150 0.432150 -0.422611
O24   O     O_2   0.341624 0.813747 0.506158 -0.455690
P1    P     P_3+3 0.582960 0.413890 0.320860 1.076042
P2    P     P_3+3 0.071690 0.707860 0.593450 1.082923
P3    P     P_3+3 0.492444 0.769381 0.454098 1.041810
P4    P     P_3+3 0.606720 0.586180 0.679160 1.003463
P5    P     P_3+3 0.699306 0.230423 0.541159 1.007131
P6    P     P_3+3 0.091711 0.591764 0.292384 0.957758
P7    P     P_3+3 0.123006 0.277563 0.397427 1.037044
P8    P     P_3+3 0.103373 0.402100 0.705320 0.934952
N1    N     N_3   0.587344 0.915310 0.696850 -0.507958
H42   H     H_    0.694583 0.936315 0.725343 0.202735
H43   H     H_    0.503698 0.973339 0.711411 0.206954
O25   O     O_3   0.398693 0.251052 0.302563 -0.793416
H44   H     H_    0.380666 0.238635 0.247579 0.325237
N2    N     N_3   0.613564 0.102003 0.204903 -0.489372
H45   H     H_    0.683581 0.038771 0.186853 0.197191
H46   H     H_    0.492806 0.087710 0.197389 0.157041
O26   O     O_3   0.808031 0.145958 0.302485 -0.729002
H47   H     H_    0.862057 0.158604 0.262491 0.337753
O27   O     O_3   0.041010 0.827140 0.223973 -0.702986
H48   H     H_    0.149191 0.846672 0.219923 0.348021
O28   O     O_3   0.659561 0.176653 0.746078 -0.702906
H49   H     H_    0.756061 0.130871 0.726745 0.316017
O29   O     O_3   0.333589 0.231225 0.653268 -0.785162
H50   H     H_    0.359145 0.232364 0.705101 0.325109
O30   O     O_3   0.446045 0.341813 0.170270 -0.709635
H51   H     H_    0.357950 0.311304 0.137104 0.280922
N3    N     N_3   0.747455 0.660377 0.833214 -0.449120
H52   H     H_    0.718741 0.725236 0.875566 0.147679
H53   H     H_    0.873909 0.646590 0.829434 0.185554
O31   O     O_3   0.076072 0.909948 0.641775 -0.703800
H54   H     H_    0.062004 0.977177 0.662340 0.291152
O32   O     O_3   0.789913 0.664076 0.470936 -0.746665
H55   H     H_    0.894875 0.628603 0.460386 0.330429
O33   O     O_3   0.804092 0.005815 0.451071 -0.745725
H56   H     H_    0.816672 0.032632 0.412961 0.318916
O34   O     O_3   0.387194 0.724136 0.202267 -0.690783
H57   H     H_    0.393163 0.657259 0.173523 0.307001
O35   O     O_3   0.787398 0.773186 0.729535 -0.724328
H58   H     H_    0.777070 0.798054 0.785974 0.290475
N4    N     N_3   0.640339 0.724677 0.616567 -0.475358
H59   H     H_    0.726149 0.667864 0.597529 0.205370
H60   H     H_    0.528528 0.705887 0.593748 0.198384

loop_
_geom_bond_atom_site_label_1
_geom_bond_atom_site_label_2
_ccdc_geom_bond_type
C53   C54   S    
C19   H29   S    
O33   H56   S    
C3    O15   S    
C32   C35   A    
Ba2   O8    S    
N4    H59   S    
C17   C29   A    
C2    H12   S    
O35   H58   S    
C55   C56   S    
C5    C6    S    
O6    P8    S    
C53   O20   S    
O20   P1    S    
C42   C43   S    
C13   C17   A    
C52   P3    S    
Ba2   O13   S    
C24   C25   A    
C35   C36   A    
C10   C26   A    
C40   H38   S    
C21   C27   A    
N4    H60   S    
C22   C24   A    
C16   C17   A    
C28   H35   S    
Ba1   O13   S    
C3    C4    S    
C54   O26   S    
Ba2   O14   S    
C12   O3    S    
O5    P4    S    
C53   H4    S    
C9    C22   A    
C47   H40   S    
C15   C18   A    
C34   C45   S    
C32   C33   A    
C40   C44   S    
C8    H26   S    
C6    H23   S    
Ba1   O23   S    
C45   H2    S    
C9    C13   A    
C23   H41   S    
C38   C41   S    
C8    H28   S    
C29   C30   A    
C25   C37   A    
N1    H42   S    
C47   C49   S    
C23   O34   S    
C34   N4    S    
C48   C50   A    
O18   P6    S    
C7    C8    S    
C7    H24   S    
Ba2   P4    S    
C27   N3    S    
C19   C20   A    
C11   H33   S    
O15   P7    S    
C1    O27   S    
O8    P7    S    
C31   H37   S    
Ba1   O1    S    
C24   C32   A    
C4    H16   S    
Ba2   O12   S    
C26   O30   S    
O14   P7    D    
C34   O7    S    
C16   C21   A    
O25   H44   S    
O26   H47   S    
C38   H39   S    
C14   C15   A    
O24   P3    D    
O16   P8    D    
C48   C49   A    
C50   O31   S    
C43   C44   S    
O7    P4    S    
C8    H25   S    
O21   P6    S    
O1    P1    D    
O23   P3    S    
C1    H13   S    
C22   C30   A    
O22   P2    D    
C27   C28   A    
N2    H46   S    
O10   P5    D    
O2    P2    S    
O34   H57   S    
Ba2   O5    S    
C28   C29   A    
C6    H22   S    
C15   C16   A    
C54   H5    S    
C6    O28   S    
Ba1   O18   S    
C7    O29   S    
O9    P5    S    
Ba1   O5    S    
C39   C51   A    
O13   P2    S    
C51   P2    S    
Ba1   O8    S    
C5    H20   S    
C33   H31   S    
C56   H10   S    
C46   C47   D    
C11   C13   A    
C34   O35   S    
C23   H19   S    
C1    H8    S    
C40   C41   D    
C18   P8    S    
C1    C2    S    
O32   H55   S    
O4    P4    D    
C50   C51   A    
C55   H6    S    
C5    H21   S    
O29   H50   S    
N2    H45   S    
C43   C46   S    
C42   P5    S    
O12   P1    S    
C20   C21   A    
C7    O17   S    
C10   H34   S    
C41   P7    S    
C12   H27   S    
C55   H7    S    
O28   H49   S    
O3    P3    S    
C45   H3    S    
C9    C10   A    
C56   H11   S    
C4    H18   S    
C3    H14   S    
C55   O2    S    
C46   O33   S    
C36   H32   S    
Ba2   O6    S    
N3    H52   S    
C5    O11   S    
C45   N1    S    
Ba1   P2    S    
C49   C52   A    
C30   C31   A    
Ba1   P1    S    
O19   P6    D    
Ba1   O12   S    
C54   N2    S    
C20   P4    S    
C36   C37   A    
O17   P8    S    
Ba2   O4    S    
C53   O25   S    
Ba1   Ba2   S    
C2    H1    S    
Ba2   O9    S    
C31   C33   A    
C35   P6    S    
N3    H53   S    
O30   H51   S    
C12   C23   S    
C3    H15   S    
Ba1   O22   S    
C39   C52   A    
C37   P1    S    
C56   H9    S    
C38   C42   D    
C18   C19   A    
N1    H43   S    
C11   C14   A    
C25   C26   A    
C14   H30   S    
O27   H48   S    
C2    O21   S    
O31   H54   S    
C12   H36   S    
O11   P5    S    
C39   O32   S    
C4    H17   S    
