data_mof_unit_40239.cif
_audit_creation_date              2012-12-10T18:13:47-0500
_audit_creation_method            fapswitch 2.2
_symmetry_space_group_name_H-M    P1
_symmetry_Int_Tables_number       1
_space_group_crystal_system       triclinic
_cell_length_a                    10.787474
_cell_length_b                    9.488367
_cell_length_c                    23.520828
_cell_angle_alpha                 89.940789
_cell_angle_beta                  88.590038
_cell_angle_gamma                 89.982731
_cell_volume                      2406.75610042

loop_
_atom_site_label
_atom_site_type_symbol
_atom_type_description
_atom_site_fract_x
_atom_site_fract_y
_atom_site_fract_z
_atom_type_partial_charge
C1    C     C_R   0.259948 0.499974 0.499669 0.779751
C2    C     C_R   0.289971 0.607165 0.973306 -0.154973
C3    C     C_R   0.290789 0.607028 0.032615 -0.159844
C4    C     C_R   0.393504 0.554267 0.061446 -0.014781
C5    C     C_R   0.496099 0.501156 0.030065 -0.016568
C6    C     C_R   0.599558 0.448013 0.058536 -0.015040
C7    C     C_R   0.701416 0.395318 0.026821 -0.159908
C8    C     C_R   0.700511 0.395206 0.967517 -0.153141
C9    C     C_R   0.396307 0.552768 0.121049 0.533539
C10   C     C_R   0.598438 0.449343 0.118192 0.533673
C11   C     C_R   0.500667 0.628315 0.238963 -0.100883
C12   C     C_R   0.499987 0.500072 0.391057 0.796348
C13   C     C_R   0.501235 0.628238 0.298230 -0.226672
C14   C     C_R   0.499758 0.500285 0.328438 -0.038466
C15   C     C_R   0.497878 0.372562 0.298223 -0.227436
C16   C     C_R   0.497229 0.372953 0.238956 -0.101150
C17   C     C_R   0.498570 0.500756 0.209105 0.356149
C18   C     C_R   0.486439 0.373258 0.761490 -0.082099
C19   C     C_R   0.487006 0.372870 0.702232 -0.219785
C20   C     C_R   0.493849 0.500218 0.671751 0.000077
C21   C     C_R   0.500022 0.627969 0.701810 -0.156963
C22   C     C_R   0.499254 0.628162 0.761077 -0.083613
C23   C     C_R   0.739088 0.499951 0.505102 0.905974
C24   C     C_R   0.492617 0.500841 0.791109 0.350208
C25   C     C_3   0.074244 0.614526 0.543964 -0.425009
C26   C     C_3   0.073289 0.354389 0.522600 -0.409716
C27   C     C_3   0.931882 0.628755 0.541629 0.319388
C28   C     C_3   0.930746 0.354428 0.529104 0.302291
C29   C     C_3   0.069652 0.528937 0.442513 -0.389240
C30   C     C_3   0.121993 0.499802 0.501903 0.022102
C31   C     C_3   0.877386 0.499779 0.507979 -0.100948
C32   C     C_3   0.926494 0.517650 0.445174 -0.554239
C33   C     C_3   0.599539 0.082762 0.536829 -0.148359
C34   C     C_3   0.600520 0.916447 0.536195 -0.162428
C35   C     C_3   0.378166 0.084190 0.523151 0.156934
C36   C     C_3   0.378459 0.915444 0.523504 0.157982
C37   C     C_3   0.520842 0.083399 0.443274 -0.276591
C38   C     C_3   0.519882 0.916818 0.443202 -0.276346
C39   C     C_R   0.496399 0.499961 0.609028 0.882342
C40   C     C_R   0.594827 0.449023 0.879098 0.543302
C41   C     C_R   0.392985 0.553180 0.881930 0.538169
C42   C     C_R   0.391812 0.554448 0.941590 -0.017040
C43   C     C_R   0.495225 0.501163 0.970067 -0.016422
C44   C     C_R   0.597765 0.447872 0.938692 -0.020477
Cu1   Cu    Cu3+1 0.499860 0.642410 0.500030 0.921917
Cu2   Cu    Cu3+1 0.499860 0.357590 0.500030 0.925617
H1    H     H_    0.209318 0.648626 0.952436 0.194580
H2    H     H_    0.483269 0.272836 0.680443 0.144813
H3    H     H_    0.507133 0.727679 0.679657 0.145334
H4    H     H_    0.504925 0.727158 0.783729 0.142995
H5    H     H_    0.115470 0.718894 0.533234 0.158549
H6    H     H_    0.101931 0.270917 0.491698 0.148680
H7    H     H_    0.105486 0.585945 0.587074 0.218669
H8    H     H_    0.117354 0.327733 0.563357 0.204871
H9    H     H_    0.913618 0.723883 0.515302 0.104431
H10   H     H_    0.896188 0.270954 0.500257 0.083257
H11   H     H_    0.097586 0.636217 0.427925 0.180485
H12   H     H_    0.108066 0.451997 0.411029 0.178467
H13   H     H_    0.886326 0.613602 0.425453 0.188452
H14   H     H_    0.897029 0.426528 0.418935 0.189074
H15   H     H_    0.589276 0.119950 0.581304 0.178764
H16   H     H_    0.593645 0.875514 0.580316 0.178566
H17   H     H_    0.210737 0.648394 0.055753 0.191691
H18   H     H_    0.691673 0.120963 0.521335 0.181945
H19   H     H_    0.692130 0.880607 0.519069 0.183886
H20   H     H_    0.447676 0.121558 0.414532 0.149898
H21   H     H_    0.445552 0.879877 0.414860 0.149407
H22   H     H_    0.610697 0.121904 0.424933 0.161319
H23   H     H_    0.608793 0.877193 0.424282 0.161582
H24   H     H_    0.305409 0.116310 0.492937 0.114090
H25   H     H_    0.305085 0.882704 0.493745 0.114213
H26   H     H_    0.782108 0.353947 0.047687 0.191350
H27   H     H_    0.780529 0.353756 0.944379 0.195383
H28   H     H_    0.502167 0.727516 0.216153 0.142019
H29   H     H_    0.502927 0.728289 0.320289 0.146360
H30   H     H_    0.496708 0.272339 0.320279 0.146229
H31   H     H_    0.495260 0.273929 0.216152 0.142034
H32   H     H_    0.481411 0.274395 0.784472 0.144945
N1    N     N_R   0.493459 0.501005 0.852063 -0.473324
N2    N     N_R   0.497766 0.500989 0.148108 -0.469613
N3    N     N_3   0.500250 0.143650 0.501250 -0.141575
N4    N     N_3   0.500250 0.856350 0.501250 -0.142363
O1    O     O_R   0.317570 0.620260 0.500030 -0.605373
O2    O     O_R   0.317570 0.379740 0.500030 -0.605604
O3    O     O_R   0.499840 0.620290 0.417900 -0.594870
O4    O     O_R   0.499840 0.379710 0.417900 -0.595882
O5    O     O_R   0.682190 0.620260 0.500010 -0.588150
O6    O     O_R   0.682190 0.379740 0.500010 -0.574995
O7    O     O_R   0.499920 0.620230 0.582140 -0.582385
O8    O     O_R   0.499920 0.379770 0.582140 -0.572066
O9    O     O_2   0.692756 0.399636 0.848357 -0.505049
O10   O     O_2   0.294258 0.602628 0.853948 -0.515173
O11   O     O_2   0.298095 0.601521 0.151766 -0.537347
O12   O     O_2   0.697476 0.400510 0.146120 -0.536614
S1    S     S_3+6 0.865016 0.676609 0.610424 0.031399
O13   O     O_2   0.747345 0.598148 0.622966 -0.272955
O14   O     O_2   0.953261 0.650910 0.657809 -0.215684
O15   O     O_3   0.833408 0.849890 0.609232 -0.548079
H33   H     H_    0.790475 0.869448 0.646100 0.376901
S2    S     S_3+6 0.886991 0.294644 0.599777 0.015589
O16   O     O_2   0.916529 0.140141 0.602963 -0.295753
O17   O     O_2   0.960305 0.369774 0.643914 -0.212624
O18   O     O_3   0.735537 0.315861 0.614294 -0.516751
H34   H     H_    0.721800 0.271177 0.651991 0.371197
C45   C     C_3   0.332604 0.146837 0.581320 -0.765741
H35   H     H_    0.393286 0.116685 0.616550 0.207851
H36   H     H_    0.320594 0.260597 0.582588 0.256972
H37   H     H_    0.236640 0.111940 0.591378 0.217449
C46   C     C_3   0.334632 0.852510 0.582032 -0.763548
H38   H     H_    0.398473 0.878815 0.616559 0.208985
H39   H     H_    0.240389 0.890135 0.593776 0.214328
H40   H     H_    0.318854 0.739079 0.582667 0.256883

loop_
_geom_bond_atom_site_label_1
_geom_bond_atom_site_label_2
_ccdc_geom_bond_type
C41   C42   A    
C27   S1    S    
S1    O13   D    
C21   H3    S    
C35   N3    S    
S1    O15   S    
C7    C8    A    
Cu1   Cu2   S    
C1    O2    A    
C45   H36   S    
C29   C30   S    
C12   O3    A    
C18   C24   A    
Cu1   O5    S    
C25   H7    S    
C18   C19   A    
C29   C32   S    
C46   H39   S    
C5    C6    A    
C27   H9    S    
Cu1   N4    S    
C10   O12   S    
C15   C16   A    
C37   H22   S    
C34   H16   S    
C16   H31   S    
C8    H27   S    
C19   C20   A    
C35   H24   S    
C36   N4    S    
C16   C17   A    
Cu1   O7    S    
C39   O8    A    
C36   H25   S    
C22   H4    S    
C28   S2    S    
C15   H30   S    
C5    C43   A    
C38   H23   S    
C23   O5    A    
C21   C22   A    
C38   N4    S    
C37   N3    S    
Cu1   O1    S    
C26   H8    S    
C34   H19   S    
Cu2   O6    S    
C28   H10   S    
C45   H37   S    
C27   C31   S    
C13   H29   S    
C46   H40   S    
C7    H26   S    
C20   C39   S    
C10   N2    A    
C19   H2    S    
C17   N2    S    
C9    N2    A    
C23   C31   S    
Cu1   O3    S    
C43   C44   A    
C25   H5    S    
C41   N1    A    
C37   C38   S    
C35   C45   S    
C26   H6    S    
Cu2   N3    S    
C24   N1    S    
C31   C32   S    
C18   H32   S    
C37   H20   S    
C20   C21   A    
S2    O17   D    
C33   C34   S    
C40   N1    A    
C29   H12   S    
Cu2   O2    S    
C29   H11   S    
C26   C30   S    
C23   O6    A    
C22   C24   A    
C1    O1    A    
C42   C43   A    
C32   H14   S    
C3    C4    A    
C9    O11   S    
C36   C46   S    
C25   C30   S    
C11   C17   A    
C28   C31   S    
C8    C44   A    
C12   C14   S    
C4    C5    A    
C11   H28   S    
C6    C10   A    
S1    O14   D    
C6    C7    A    
Cu2   O8    S    
C3    H17   S    
C2    H1    S    
C25   C27   S    
C45   H35   S    
C26   C28   S    
C12   O4    A    
C2    C3    A    
C46   H38   S    
C11   C13   A    
C2    C42   A    
C33   H18   S    
C1    C30   S    
S2    O18   S    
C40   O9    S    
C40   C44   A    
C41   O10   S    
C38   H21   S    
C33   H15   S    
O15   H33   S    
O18   H34   S    
C14   C15   A    
S2    O16   D    
C35   C36   S    
C34   N4    S    
C32   H13   S    
C4    C9    A    
C13   C14   A    
C33   N3    S    
C39   O7    A    
Cu2   O4    S    
