data_mof_unit_20006.cif
_audit_creation_date              2013-03-05T15:43:47-0500
_audit_creation_method            fapswitch 2.2
_symmetry_space_group_name_H-M    P1
_symmetry_Int_Tables_number       1
_space_group_crystal_system       triclinic
_cell_length_a                    18.354082
_cell_length_b                    18.676052
_cell_length_c                    18.615786
_cell_angle_alpha                 109.019549
_cell_angle_beta                  108.451599
_cell_angle_gamma                 108.359551
_cell_volume                      5062.59739099

loop_
_atom_site_label
_atom_site_type_symbol
_atom_site_description
_atom_site_fract_x
_atom_site_fract_y
_atom_site_fract_z
_atom_type_partial_charge
O1    O     O_R   0.591640 0.539900 0.448300 -0.592393
O2    O     O_R   0.408360 0.460100 0.551700 -0.594467
O3    O     O_R   0.591610 0.643330 0.551720 -0.576070
O4    O     O_R   0.408390 0.356670 0.448280 -0.556111
C1    C     C_R   0.616462 0.618477 0.494208 0.978117
C2    C     C_R   0.380563 0.381392 0.502263 0.939765
O5    O     O_R   0.408410 0.448290 0.356670 -0.586573
O6    O     O_R   0.591590 0.551710 0.643330 -0.637001
O7    O     O_R   0.408380 0.551730 0.460100 -0.615549
O8    O     O_R   0.591620 0.448270 0.539900 -0.563710
C3    C     C_R   0.375771 0.497876 0.381971 0.933992
C4    C     C_R   0.620642 0.500056 0.619126 0.966178
Zn1   Zn    Zn3+2 0.500020 0.430940 0.430940 1.226174
Zn2   Zn    Zn3+2 0.499980 0.569060 0.569060 1.165852
C5    C     C_R   0.341185 0.649232 0.408490 -0.097531
C6    C     C_R   0.584938 0.437310 0.732827 -0.213549
H1    H     H_    0.357204 0.647252 0.468452 0.235081
H2    H     H_    0.541904 0.460468 0.705896 0.207564
C7    C     C_R   0.353496 0.728019 0.410924 0.293278
C8    C     C_R   0.557774 0.384174 0.767376 0.260104
C9    C     C_R   0.333720 0.732846 0.333745 0.234394
C10   C     C_R   0.608395 0.345832 0.794149 0.186611
C11   C     C_R   0.290664 0.656706 0.254909 0.124234
C12   C     C_R   0.687675 0.365739 0.790347 0.107357
C13   C     C_R   0.259896 0.575847 0.254190 -0.014652
C14   C     C_R   0.722334 0.433736 0.772154 -0.006741
C15   C     C_R   0.301387 0.573793 0.329584 -0.011955
C16   C     C_R   0.664482 0.457664 0.730008 -0.058410
C17   C     C_R   0.301426 0.496000 0.322034 -0.175271
C18   C     C_R   0.686954 0.499102 0.683790 -0.185596
C19   C     C_R   0.235779 0.417467 0.250825 0.240141
C20   C     C_R   0.770928 0.531679 0.692592 0.251571
C21   C     C_R   0.174629 0.418420 0.183851 0.038905
C22   C     C_R   0.835676 0.529116 0.754320 0.117747
C23   C     C_R   0.188471 0.497446 0.184003 -0.137651
C24   C     C_R   0.812103 0.481452 0.796146 -0.133640
C25   C     C_R   0.744131 0.589304 0.430707 0.214766
C26   C     C_R   0.222431 0.390862 0.502214 0.184619
C27   C     C_R   0.823312 0.585181 0.452231 0.203151
C28   C     C_R   0.138764 0.376877 0.451206 0.166677
C29   C     C_R   0.902172 0.660700 0.511866 0.213337
C30   C     C_R   0.069338 0.293418 0.403546 0.185521
C31   C     C_R   0.901195 0.739607 0.532484 -0.265656
C32   C     C_R   0.082922 0.227508 0.415286 -0.211534
H3    H     H_    0.962463 0.796749 0.573403 0.241772
H4    H     H_    0.028262 0.164806 0.376407 0.266569
C33   C     C_R   0.822249 0.743820 0.505480 -0.028360
C34   C     C_R   0.166612 0.240895 0.466603 -0.015069
C35   C     C_R   0.745892 0.669389 0.471720 -0.050258
C36   C     C_R   0.237357 0.319027 0.496280 -0.046183
C37   C     C_R   0.675388 0.679435 0.480634 -0.159658
C38   C     C_R   0.317698 0.318671 0.509223 -0.175395
C39   C     C_R   0.668934 0.754396 0.489371 0.245518
C40   C     C_R   0.330093 0.247925 0.509914 0.283183
C41   C     C_R   0.736940 0.822235 0.497148 0.094217
C42   C     C_R   0.266262 0.182490 0.508367 0.113046
C43   C     C_R   0.815008 0.817825 0.507735 -0.095319
C44   C     C_R   0.183837 0.179248 0.487964 -0.103333
O9    O     O_R   0.948260 0.539910 0.091610 -0.575285
O10   O     O_R   0.051740 0.460090 0.908390 -0.593489
O11   O     O_R   0.051720 0.643340 0.091610 -0.608461
O12   O     O_R   0.948280 0.356660 0.908390 -0.623060
C45   C     C_R   0.997701 0.618751 0.118895 0.918570
C46   C     C_R   0.001418 0.381776 0.880084 0.915002
O13   O     O_R   0.039880 0.448280 0.091630 -0.579483
O14   O     O_R   0.960120 0.551720 0.908370 -0.589879
O15   O     O_R   0.143330 0.551710 0.091620 -0.624065
O16   O     O_R   0.856670 0.448290 0.908380 -0.634255
C47   C     C_R   0.120706 0.498448 0.118764 0.950719
C48   C     C_R   0.880096 0.493414 0.873324 0.927037
Zn3   Zn    Zn3+2 0.930920 0.430950 0.000010 1.060707
Zn4   Zn    Zn3+2 0.069080 0.569050 0.999990 1.049372
O17   O     O_R   0.948270 0.091630 0.539910 -0.601670
O18   O     O_R   0.051730 0.908370 0.460090 -0.654694
O19   O     O_R   0.051700 0.091600 0.643340 -0.587183
O20   O     O_R   0.948300 0.908400 0.356660 -0.580988
C49   C     C_R   0.994858 0.116371 0.620094 0.892334
C50   C     C_R   0.007509 0.885847 0.380320 0.881949
O21   O     O_R   0.856660 0.908400 0.448280 -0.595410
O22   O     O_R   0.143340 0.091600 0.551720 -0.628293
O23   O     O_R   0.960090 0.908380 0.551710 -0.607410
O24   O     O_R   0.039910 0.091620 0.448290 -0.598946
C51   C     C_R   0.880241 0.881456 0.502718 0.900360
C52   C     C_R   0.119710 0.117518 0.496099 0.910043
Zn5   Zn    Zn3+2 0.930940 0.000030 0.430950 1.097962
Zn6   Zn    Zn3+2 0.069060 0.999970 0.569050 1.090248
C53   C     C_R   0.905396 0.709190 0.076138 -0.230479
C54   C     C_R   0.136048 0.329599 0.915527 -0.224804
H5    H     H_    0.885169 0.646603 0.026158 0.151013
H6    H     H_    0.157603 0.395926 0.957908 0.165061
C55   C     C_R   0.877677 0.764142 0.053483 0.131622
C56   C     C_R   0.190790 0.292976 0.934256 0.141751
C57   C     C_R   0.911007 0.848200 0.116781 0.211045
C58   C     C_R   0.159164 0.204864 0.882637 0.183979
C59   C     C_R   0.963851 0.873902 0.203697 0.232592
C60   C     C_R   0.079533 0.158851 0.805907 0.238041
C61   C     C_R   0.981015 0.813367 0.228017 -0.054973
C62   C     C_R   0.040615 0.205160 0.775389 -0.058008
C63   C     C_R   0.959715 0.734536 0.162461 -0.013752
C64   C     C_R   0.059701 0.284793 0.836214 -0.032732
C65   C     C_R   0.994538 0.682865 0.184060 -0.189124
C66   C     C_R   0.005200 0.320317 0.813837 -0.161850
C67   C     C_R   0.044707 0.704542 0.269306 0.285961
C68   C     C_R   0.949391 0.293004 0.728319 0.240131
C69   C     C_R   0.058345 0.777798 0.335240 0.092985
C70   C     C_R   0.943621 0.223774 0.663705 0.071060
C71   C     C_R   0.019791 0.828418 0.314791 -0.193344
C72   C     C_R   0.988681 0.178799 0.686829 -0.161332
N1    N     N_R   0.226902 0.338126 0.251053 0.212867
O25   O     O_R   0.229818 0.328859 0.318031 -0.410996
O26   O     O_R   0.214710 0.274558 0.184562 -0.341739
N2    N     N_R   0.791929 0.573605 0.644194 0.184624
O27   O     O_R   0.774506 0.636255 0.645675 -0.433554
O28   O     O_R   0.831217 0.551048 0.600819 -0.349133
N3    N     N_R   0.982935 0.658883 0.550919 0.228445
O29   O     O_R   0.986080 0.586915 0.533563 -0.225191
O30   O     O_R   0.051773 0.728897 0.613222 -0.360320
N4    N     N_R   0.984570 0.275037 0.344677 0.250881
O31   O     O_R   0.976323 0.319961 0.304778 -0.280297
O32   O     O_R   0.915720 0.207929 0.323894 -0.338478
N5    N     N_2   0.725296 0.892162 0.489755 -0.291556
H7    H     H_    0.662442 0.877289 0.451599 0.280587
C73   C     C_3   0.768955 0.971089 0.569288 -0.568321
H8    H     H_    0.746451 0.961329 0.615748 0.277454
H9    H     H_    0.755049 0.020656 0.556458 0.222820
H10   H     H_    0.839908 0.994849 0.597562 0.233439
N6    N     N_2   0.287971 0.122339 0.529144 -0.279558
H11   H     H_    0.291786 0.125291 0.586536 0.282227
C74   C     C_3   0.250218 0.037011 0.459444 -0.502104
H12   H     H_    0.285734 0.003144 0.480072 0.252375
H13   H     H_    0.254977 0.039377 0.402207 0.293816
H14   H     H_    0.181428 0.000335 0.442010 0.201513
N7    N     N_R   0.083053 0.652448 0.289044 0.193651
O33   O     O_R   0.164162 0.687631 0.344980 -0.373518
O34   O     O_R   0.034737 0.570914 0.258261 -0.330381
N8    N     N_R   0.909450 0.343546 0.707527 0.187604
O35   O     O_R   0.828690 0.307657 0.650541 -0.417993
O36   O     O_R   0.957208 0.425060 0.737886 -0.377989
N9    N     N_2   0.823225 0.739508 0.966389 -0.255327
H15   H     H_    0.851905 0.773266 0.940265 0.263213
C75   C     C_3   0.762313 0.650342 0.907715 -0.683824
H16   H     H_    0.714468 0.644701 0.849132 0.264222
H17   H     H_    0.726689 0.621650 0.937788 0.260736
H18   H     H_    0.797300 0.615417 0.888751 0.194015
N10   N     N_2   0.279704 0.345915 0.997929 -0.265221
H19   H     H_    0.320490 0.319037 0.994409 0.294244
C76   C     C_3   0.296864 0.394803 0.084777 -0.682919
H20   H     H_    0.367916 0.435920 0.126520 0.262417
H21   H     H_    0.273075 0.350861 0.109468 0.280060
H22   H     H_    0.265953 0.437128 0.087651 0.209916
N11   N     N_R   0.893935 0.908730 0.091913 0.239228
O37   O     O_R   0.814472 0.891983 0.047135 -0.303451
O38   O     O_R   0.957868 0.977030 0.107248 -0.276841
N12   N     N_R   0.207065 0.162670 0.909154 0.235466
O39   O     O_R   0.241656 0.131905 0.864004 -0.283868
O40   O     O_R   0.228981 0.168410 0.985243 -0.297169
N13   N     N_R   0.007220 0.963178 0.264201 0.228774
O41   O     O_R   0.963746 0.006296 0.267817 -0.325829
O42   O     O_R   0.091503 0.003986 0.305232 -0.419061
N14   N     N_R   0.031704 0.066995 0.767316 0.229490
O43   O     O_R   0.948524 0.030805 0.741225 -0.408241
O44   O     O_R   0.070666 0.019559 0.763178 -0.285900
N15   N     N_2   0.114522 0.801233 0.421255 -0.263905
H23   H     H_    0.158372 0.865081 0.461185 0.255987
C77   C     C_3   0.076469 0.756108 0.460606 -0.476894
H24   H     H_    0.127450 0.776368 0.525135 0.270697
H25   H     H_    0.048917 0.685913 0.421497 0.274047
H26   H     H_    0.024149 0.770555 0.467322 0.197022
N16   N     N_2   0.896899 0.202267 0.575953 -0.288395
H27   H     H_    0.832672 0.188466 0.554880 0.277609
C78   C     C_3   0.942787 0.255659 0.547125 -0.521021
H28   H     H_    0.951333 0.321555 0.578433 0.274242
H29   H     H_    0.904930 0.228225 0.476529 0.260208
H30   H     H_    0.007444 0.258216 0.561819 0.211589
N17   N     N_R   0.387119 0.802224 0.491647 0.261952
O45   O     O_R   0.430761 0.804980 0.563742 -0.291496
O46   O     O_R   0.365620 0.862760 0.494225 -0.291731
N18   N     N_R   0.474978 0.363499 0.766801 0.231796
O47   O     O_R   0.443153 0.416964 0.769508 -0.336989
O48   O     O_R   0.426416 0.287740 0.753394 -0.307723
N19   N     N_R   0.360834 0.814552 0.335481 0.225454
O49   O     O_R   0.303898 0.832520 0.293372 -0.350055
O50   O     O_R   0.441609 0.872965 0.383233 -0.297529
N20   N     N_R   0.581312 0.289293 0.827876 0.230343
O51   O     O_R   0.557698 0.208240 0.785944 -0.326068
O52   O     O_R   0.573947 0.317776 0.897602 -0.290104
N21   N     N_2   0.297347 0.662206 0.182354 -0.269137
H31   H     H_    0.299236 0.715431 0.176032 0.276888
C79   C     C_3   0.352741 0.631397 0.156180 -0.671174
H32   H     H_    0.411870 0.686264 0.170719 0.255551
H33   H     H_    0.316987 0.587631 0.085919 0.246899
H34   H     H_    0.373515 0.596305 0.189645 0.240554
N22   N     N_2   0.724978 0.309467 0.791201 -0.274734
H35   H     H_    0.726027 0.289539 0.836910 0.263989
C80   C     C_3   0.692784 0.239494 0.707359 -0.537030
H36   H     H_    0.736483 0.209577 0.710783 0.232423
H37   H     H_    0.689909 0.262589 0.659107 0.279562
H38   H     H_    0.626539 0.190222 0.685716 0.264519
N23   N     N_2   0.101470 0.340680 0.114220 -0.326275
H39   H     H_    0.116657 0.297882 0.078999 0.264439
C81   C     C_3   0.034364 0.301486 0.134365 -0.458983
H40   H     H_    0.056594 0.274411 0.176770 0.265798
H41   H     H_    0.975930 0.248860 0.074007 0.226443
H42   H     H_    0.015972 0.349120 0.166595 0.270471
N24   N     N_2   0.924404 0.576842 0.776703 -0.242438
H43   H     H_    0.938817 0.560491 0.726428 0.318872
C82   C     C_3   0.961720 0.668510 0.828738 -0.605465
H44   H     H_    0.933786 0.696795 0.790556 0.265904
H45   H     H_    0.032938 0.698398 0.852015 0.255876
H46   H     H_    0.949731 0.683325 0.885479 0.221778
N25   N     N_R   0.590113 0.757993 0.482167 0.203420
O53   O     O_R   0.592063 0.823098 0.538271 -0.325608
O54   O     O_R   0.516088 0.696657 0.417666 -0.444893
N26   N     N_R   0.406804 0.241356 0.511645 0.233702
O55   O     O_R   0.483519 0.306132 0.563296 -0.421640
O56   O     O_R   0.399829 0.170951 0.458411 -0.305908
N27   N     N_R   0.666764 0.519370 0.354789 0.234442
O57   O     O_R   0.615299 0.534919 0.302645 -0.361368
O58   O     O_R   0.645904 0.440336 0.338155 -0.283333
N28   N     N_R   0.283722 0.474517 0.573785 0.236432
O59   O     O_R   0.298913 0.543052 0.564622 -0.306388
O60   O     O_R   0.323570 0.482413 0.649676 -0.309435
N29   N     N_R   0.823856 0.506413 0.409199 0.272080
O61   O     O_R   0.798607 0.444991 0.428298 -0.215769
O62   O     O_R   0.857587 0.499271 0.357026 -0.282250
N30   N     N_R   0.123413 0.447715 0.452137 0.272786
O63   O     O_R   0.069087 0.462474 0.478003 -0.242285
O64   O     O_R   0.155009 0.490523 0.416977 -0.291438

loop_
_geom_bond_atom_site_label_1
_geom_bond_atom_site_label_2
_geom_bond_distance
_ccdc_geom_bond_type
C6    C16   1.410887 A    
C18   C20   1.398903 A    
C78   H28   1.109890 S    
C41   N5    1.429861 S    
N13   O41   1.301219 A    
C80   H37   1.110187 S    
C53   C55   1.401856 A    
C25   C35   1.424998 A    
C15   C17   1.413583 A    
C29   C31   1.404156 A    
C81   H40   1.109753 S    
C76   H20   1.110376 S    
C25   N27   1.441457 S    
O22   C52   1.291966 A    
C82   H45   1.110007 S    
C68   C70   1.396130 A    
N18   O47   1.301554 A    
C10   N20   1.433636 S    
C73   H8    1.110543 S    
C27   C29   1.411718 A    
O11   C45   1.279011 A    
N24   H43   1.029796 S    
C5    C7    1.399572 A    
C69   C71   1.422983 A    
C77   H24   1.109468 S    
O1    C1    1.267445 A    
N29   O62   1.301013 A    
O20   C50   1.287894 A    
C6    C8    1.397971 A    
N15   C77   1.445733 S    
C12   C14   1.428228 A    
C74   H12   1.109970 S    
C75   H17   1.111114 S    
N10   H19   1.031012 S    
C21   C23   1.415416 A    
N26   O56   1.300664 A    
C73   H9    1.110619 S    
C33   C43   1.418130 A    
C21   N23   1.426413 S    
N3    O29   1.300748 A    
C62   C72   1.431604 A    
N20   O51   1.300384 A    
C5    H1    1.076941 S    
O15   Zn4   2.009546 S    
N16   H27   1.029517 S    
C42   N6    1.427584 S    
O4    Zn1   2.005617 S    
C79   H33   1.109704 S    
N4    O31   1.301359 A    
N2    O27   1.300909 A    
O12   C46   1.283398 A    
O23   C51   1.274065 A    
O14   Zn4   2.021511 S    
N29   O61   1.300882 A    
C24   C48   1.466853 S    
N22   C80   1.446829 S    
C60   C62   1.426016 A    
C82   H46   1.111637 S    
C36   C38   1.419444 A    
N11   O37   1.301126 A    
C69   N15   1.425647 S    
C61   C71   1.430107 A    
C28   C30   1.404345 A    
C20   N2    1.436277 S    
N12   O40   1.301076 A    
O23   Zn6   2.026468 S    
C45   C65   1.431909 S    
C58   C60   1.414983 A    
C74   H14   1.104317 S    
C4    C18   1.425102 S    
O16   C48   1.276232 A    
N19   O50   1.301196 A    
N23   H39   1.030018 S    
C77   H25   1.109790 S    
N11   O38   1.301250 A    
C81   H41   1.110002 S    
C27   N29   1.432526 S    
O2    C2    1.271465 A    
C30   C32   1.399755 A    
C29   N3    1.446574 S    
N2    O28   1.299106 A    
N28   O59   1.301040 A    
C61   C63   1.405002 A    
C38   C40   1.412878 A    
O5    C3    1.296973 A    
N4    O32   1.301577 A    
C39   C41   1.397844 A    
C22   N24   1.426238 S    
C25   C27   1.414416 A    
C78   H30   1.111616 S    
C40   C42   1.385854 A    
N5    C73   1.445500 S    
N10   C76   1.442604 S    
C82   H44   1.109849 S    
C26   N28   1.438370 S    
C76   H22   1.106223 S    
N17   O46   1.301478 A    
C43   C51   1.449590 S    
C75   H18   1.104414 S    
N26   O55   1.297071 A    
C30   N4    1.441698 S    
C73   H10   1.104403 S    
C8    N18   1.440806 S    
C32   H4    1.072147 S    
C35   C37   1.416289 A    
N27   O57   1.301909 A    
N19   O49   1.301155 A    
C50   C71   1.470676 S    
C37   C39   1.403089 A    
C20   C22   1.393671 A    
N13   O42   1.298923 A    
C79   H34   1.111848 S    
C9    N19   1.434044 S    
O7    Zn2   2.028858 S    
N6    C74   1.445961 S    
C7    C9    1.406784 A    
C44   C52   1.452285 S    
C55   C57   1.400090 A    
O7    C3    1.265492 A    
O19   Zn6   2.005619 S    
C5    C15   1.414165 A    
N25   O53   1.300659 A    
O5    Zn1   2.001847 S    
O6    C4    1.269160 A    
C19   C21   1.398477 A    
C19   N1    1.440380 S    
C67   C69   1.391502 A    
C41   C43   1.415934 A    
C54   C56   1.401947 A    
O18   Zn6   2.032043 S    
C66   C68   1.397551 A    
C31   H3    1.074994 S    
O17   Zn5   2.032043 S    
N5    H7    1.031190 S    
C54   C64   1.410728 A    
O3    Zn2   2.005617 S    
O8    C4    1.281715 A    
C13   C23   1.424525 A    
C55   N9    1.427460 S    
O11   Zn4   2.003908 S    
C6    H2    1.080791 S    
C60   N14   1.441709 S    
C33   C35   1.391837 A    
C46   C66   1.422996 S    
N30   O63   1.300999 A    
C77   H26   1.108053 S    
O24   C52   1.272510 A    
C9    C11   1.413556 A    
N7    O33   1.299532 A    
C70   N16   1.426147 S    
N25   O54   1.300112 A    
O9    C45   1.276153 A    
C57   N11   1.436260 S    
O4    C2    1.286459 A    
O1    Zn1   2.035898 S    
C8    C10   1.408206 A    
N6    H11   1.030154 S    
O21   Zn5   2.014893 S    
N8    O36   1.300124 A    
N7    O34   1.300932 A    
C64   C66   1.395996 A    
N16   C78   1.448288 S    
C14   C24   1.434607 A    
C40   N26   1.442614 S    
N3    O30   1.301722 A    
O6    Zn2   2.001847 S    
C39   N25   1.435176 S    
C68   N8    1.439670 S    
C76   H21   1.105702 S    
C56   N10   1.428637 S    
C59   N13   1.433375 S    
C14   C16   1.393870 A    
C49   C72   1.464216 S    
C54   H6    1.081721 S    
N8    O35   1.298872 A    
O3    C1    1.299372 A    
O8    Zn1   2.028857 S    
N18   O48   1.301228 A    
N9    H15   1.031460 S    
C59   C61   1.431813 A    
C34   C44   1.425400 A    
C26   C36   1.428713 A    
N27   O58   1.300844 A    
O24   Zn5   2.026469 S    
O22   Zn6   2.014893 S    
N20   O52   1.300906 A    
C65   C67   1.396979 A    
N28   O60   1.301849 A    
O10   C46   1.268278 A    
C2    C38   1.436081 S    
N14   O43   1.300043 A    
C80   H38   1.109446 S    
N1    O26   1.300447 A    
C67   N7    1.441374 S    
C16   C18   1.402452 A    
C17   C19   1.403078 A    
N17   O45   1.301539 A    
O13   Zn3   2.021511 S    
C75   H16   1.110039 S    
C3    C17   1.445252 S    
C26   C28   1.410915 A    
C58   N12   1.432779 S    
N9    C75   1.443849 S    
C56   C58   1.408120 A    
O14   C48   1.300589 A    
C70   C72   1.422231 A    
C12   N22   1.425034 S    
O16   Zn3   2.009546 S    
O13   C47   1.294349 A    
C34   C36   1.395469 A    
C81   H42   1.111220 S    
C22   C24   1.417117 A    
C42   C44   1.414275 A    
O12   Zn3   2.003908 S    
C10   C12   1.414963 A    
C11   C13   1.429828 A    
O10   Zn4   2.033915 S    
C28   N30   1.432799 S    
C79   H32   1.110762 S    
O2    Zn2   2.035898 S    
C62   C64   1.392770 A    
C7    N17   1.441002 S    
N21   C79   1.449674 S    
N15   H23   1.030132 S    
C11   N21   1.427324 S    
C80   H36   1.110268 S    
O21   C51   1.288195 A    
C53   C63   1.411792 A    
C78   H29   1.109618 S    
N12   O39   1.300970 A    
N21   H31   1.029694 S    
C23   C47   1.447607 S    
C57   C59   1.412856 A    
N22   H35   1.031261 S    
O18   C50   1.286741 A    
O19   C49   1.280032 A    
O9    Zn3   2.033915 S    
N23   C81   1.448031 S    
C53   H5    1.081166 S    
O17   C49   1.290889 A    
C1    C37   1.454128 S    
O15   C47   1.271798 A    
N1    O25   1.300642 A    
N24   C82   1.448738 S    
C31   C33   1.412432 A    
O20   Zn5   2.005619 S    
C63   C65   1.407183 A    
N30   O64   1.301227 A    
C32   C34   1.417073 A    
N14   O44   1.300646 A    
C74   H13   1.109993 S    
C13   C15   1.388581 A    
