data_mof_unit_52986.cif
_audit_creation_date              2012-12-10T18:18:16-0500
_audit_creation_method            fapswitch 2.2
_symmetry_space_group_name_H-M    P1
_symmetry_Int_Tables_number       1
_space_group_crystal_system       triclinic
_cell_length_a                    14.198021
_cell_length_b                    14.875293
_cell_length_c                    15.477884
_cell_angle_alpha                 87.984833
_cell_angle_beta                  67.557206
_cell_angle_gamma                 89.491192
_cell_volume                      3019.43514394

loop_
_atom_site_label
_atom_site_type_symbol
_atom_type_description
_atom_site_fract_x
_atom_site_fract_y
_atom_site_fract_z
_atom_type_partial_charge
C1    C     C_R   0.499869 0.672757 0.499729 0.866907
C2    C     C_R   0.499915 0.768071 0.499924 -0.035016
C3    C     C_R   0.487895 0.189960 0.425866 -0.253796
C4    C     C_R   0.511093 0.810145 0.574233 -0.245729
C5    C     C_R   0.483404 0.096468 0.426099 0.010021
C6    C     C_R   0.512680 0.903689 0.575252 0.008370
C7    C     C_R   0.495687 0.046860 0.501206 0.011561
C8    C     C_R   0.499123 0.953234 0.500694 0.008881
C9    C     C_R   0.504760 0.091131 0.576927 0.056945
C10   C     C_R   0.489242 0.908955 0.425313 0.059123
C11   C     C_R   0.470681 0.050887 0.352332 0.430148
C12   C     C_R   0.500162 0.327269 0.499939 0.875896
C13   C     C_R   0.524131 0.949326 0.649585 0.430514
C14   C     C_R   0.476260 0.957609 0.351897 -0.228458
C15   C     C_R   0.516960 0.042501 0.650702 -0.229070
C16   C     C_R   0.436071 0.498489 0.676174 0.855420
C17   C     C_R   0.563889 0.498333 0.323940 0.835802
C18   C     C_R   0.176461 0.444709 0.563818 0.252855
C19   C     C_R   0.819854 0.563813 0.446644 0.236679
C20   C     C_R   0.222855 0.560277 0.443922 0.247554
C21   C     C_R   0.777027 0.436402 0.552430 0.253207
C22   C     C_R   0.124855 0.556785 0.440077 -0.026342
C23   C     C_R   0.379137 0.433873 0.107294 -0.246632
C24   C     C_R   0.874573 0.439610 0.558588 -0.059452
C25   C     C_R   0.050460 0.497382 0.499701 -0.004257
C26   C     C_R   0.949721 0.498600 0.498742 0.006391
C27   C     C_R   0.075636 0.439349 0.562198 -0.088586
C28   C     C_R   0.923858 0.559678 0.438968 -0.081644
C29   C     C_R   0.100691 0.612399 0.376529 -0.261001
C30   C     C_R   0.899326 0.383194 0.621248 -0.238830
C31   C     C_R   0.003024 0.614380 0.374665 0.222510
C32   C     C_R   0.997971 0.379867 0.621614 0.232548
C33   C     C_R   0.397154 0.486144 0.778044 -0.063064
C34   C     C_R   0.619541 0.436138 0.897633 -0.242068
C35   C     C_R   0.602462 0.485153 0.223091 -0.058178
C36   C     C_R   0.262772 0.452875 0.928252 -0.198604
C37   C     C_R   0.736397 0.453119 0.074753 -0.200247
C38   C     C_R   0.294116 0.470875 0.832249 -0.197982
C39   C     C_R   0.705339 0.469911 0.169705 -0.196622
C40   C     C_R   0.468079 0.481750 0.820089 -0.241109
C41   C     C_R   0.531228 0.480485 0.181629 -0.241341
C42   C     C_R   0.439899 0.457316 0.914370 0.078845
C43   C     C_R   0.558859 0.455482 0.089321 0.080580
C44   C     C_R   0.334576 0.448135 0.971238 0.093822
C45   C     C_R   0.303865 0.434081 0.068891 0.197753
C46   C     C_R   0.664006 0.446425 0.033078 0.103022
C47   C     C_R   0.514775 0.446643 0.953311 0.017284
C48   C     C_R   0.483822 0.445452 0.050860 0.015661
C49   C     C_3   0.165991 0.397858 0.224875 -0.780863
C50   C     C_3   0.849485 0.502507 0.830034 -0.805695
C51   C     C_3   0.234532 0.322216 0.644518 -0.621708
C52   C     C_3   0.778636 0.639204 0.320723 -0.620516
C53   C     C_3   0.259270 0.719944 0.438872 -0.778143
C54   C     C_3   0.736854 0.278528 0.558059 -0.743928
C55   C     C_3   0.029005 0.629141 0.212087 -0.817139
C56   C     C_R   0.693445 0.433556 0.936574 0.196694
C57   C     C_3   0.028967 0.222901 0.640585 -0.797703
C58   C     C_R   0.503717 0.184019 0.576809 -0.252381
C59   C     C_R   0.490916 0.816064 0.425121 -0.251011
C60   C     C_R   0.499034 0.231981 0.500234 -0.046793
H1    H     H_    0.158816 0.654481 0.325486 0.182808
H2    H     H_    0.645914 0.425743 0.823488 0.144973
H3    H     H_    0.507291 0.219382 0.635628 0.136752
H4    H     H_    0.485236 0.780729 0.367132 0.128788
H5    H     H_    0.485355 0.231422 0.367902 0.147769
H6    H     H_    0.515564 0.768595 0.631361 0.144360
H7    H     H_    0.467653 0.922880 0.294870 0.172217
H8    H     H_    0.524729 0.077241 0.708097 0.172865
H9    H     H_    0.151682 0.473581 0.114727 0.216518
H10   H     H_    0.082303 0.386387 0.255203 0.242497
H11   H     H_    0.183967 0.451644 0.264217 0.241624
H12   H     H_    0.842580 0.338622 0.670125 0.163284
H13   H     H_    0.203639 0.333969 0.232469 0.251441
H14   H     H_    0.838789 0.380180 0.903418 0.212891
H15   H     H_    0.851082 0.550981 0.882485 0.242691
H16   H     H_    0.811126 0.533666 0.785918 0.256886
H17   H     H_    0.929166 0.486776 0.784316 0.232182
H18   H     H_    0.138897 0.429344 0.707328 0.193106
H19   H     H_    0.180918 0.279994 0.702637 0.215360
H20   H     H_    0.304837 0.326037 0.659263 0.228009
H21   H     H_    0.250058 0.288796 0.577368 0.240396
H22   H     H_    0.807057 0.702254 0.427578 0.209968
H23   H     H_    0.453567 0.499182 0.221876 0.155209
H24   H     H_    0.825815 0.693984 0.274312 0.215188
H25   H     H_    0.699685 0.652611 0.326427 0.228928
H26   H     H_    0.805278 0.573865 0.287734 0.222041
H27   H     H_    0.365164 0.622110 0.371042 0.271607
H28   H     H_    0.266766 0.720015 0.507634 0.268090
H29   H     H_    0.179276 0.736652 0.450022 0.238027
H30   H     H_    0.308438 0.773524 0.392142 0.232564
H31   H     H_    0.684784 0.364186 0.670344 0.195337
H32   H     H_    0.680890 0.226896 0.599997 0.228098
H33   H     H_    0.812304 0.257687 0.557335 0.218337
H34   H     H_    0.546080 0.499825 0.778388 0.157774
H35   H     H_    0.740599 0.279875 0.485053 0.262494
H36   H     H_    0.012833 0.733778 0.300925 0.223412
H37   H     H_    0.008318 0.671808 0.161770 0.239865
H38   H     H_    0.996492 0.560812 0.215467 0.247824
H39   H     H_    0.113443 0.625007 0.186168 0.243152
H40   H     H_    0.967284 0.311772 0.747212 0.228252
H41   H     H_    0.051200 0.174493 0.685609 0.239619
H42   H     H_    0.089147 0.223294 0.568970 0.251927
H43   H     H_    0.955760 0.199932 0.638158 0.237898
H44   H     H_    0.410888 0.147910 0.303835 0.326103
H45   H     H_    0.761705 0.471113 0.200825 0.145855
H46   H     H_    0.586059 0.853593 0.697508 0.326591
H47   H     H_    0.237973 0.472765 0.800727 0.158203
H48   H     H_    0.182292 0.441828 0.967623 0.140278
H49   H     H_    0.817143 0.446047 0.034973 0.140205
H50   H     H_    0.355842 0.422015 0.181551 0.160986
N1    N     N_R   0.249980 0.499930 0.499960 -0.140488
N2    N     N_2   0.018140 0.311743 0.678599 -0.315222
N3    N     N_R   0.750020 0.500070 0.500040 -0.128475
N4    N     N_2   0.197625 0.425021 0.127061 -0.308723
N5    N     N_2   0.796961 0.420829 0.876251 -0.322103
N6    N     N_2   0.193897 0.411913 0.644181 -0.268765
N7    N     N_2   0.783592 0.641452 0.412425 -0.256906
N8    N     N_2   0.288436 0.633394 0.396130 -0.315907
N9    N     N_2   0.707136 0.365917 0.598679 -0.256973
N10   N     N_2   0.988451 0.668266 0.303348 -0.308371
O1    O     O_R   0.419720 0.632140 0.499980 -0.622786
O2    O     O_3   0.542229 0.906289 0.722120 -0.761177
O3    O     O_R   0.580280 0.367860 0.500020 -0.583547
O4    O     O_R   0.580270 0.632160 0.499970 -0.593373
O5    O     O_R   0.419730 0.367840 0.500030 -0.614338
O6    O     O_R   0.373870 0.499980 0.632250 -0.592297
O7    O     O_R   0.626130 0.500020 0.367750 -0.609696
O8    O     O_R   0.534420 0.500000 0.632240 -0.611889
O9    O     O_R   0.465580 0.500000 0.367760 -0.642379
O10   O     O_3   0.452836 0.094069 0.279722 -0.760341
Zn1   Zn    Zn3+2 0.392800 0.499980 0.500010 0.939851
Zn2   Zn    Zn3+2 0.607200 0.500020 0.499990 0.961572

loop_
_geom_bond_atom_site_label_1
_geom_bond_atom_site_label_2
_ccdc_geom_bond_type
C4    H6    S    
C11   O10   S    
C34   C56   A    
C23   C45   A    
N3    Zn2   S    
O3    Zn2   S    
C36   H48   S    
C2    C4    A    
C20   N8    S    
C7    C8    A    
C57   H42   S    
C59   H4    S    
H14   N5    S    
C52   H25   S    
C22   C29   A    
C24   C26   A    
C9    C58   A    
C8    C10   A    
C11   C14   A    
C57   N2    S    
C19   N3    A    
C58   C60   A    
C41   H23   S    
C34   H2    S    
O4    Zn2   S    
C7    C9    A    
C50   N5    S    
C38   H47   S    
C52   H24   S    
O7    Zn2   S    
C54   H33   S    
C51   H20   S    
C45   N4    S    
C22   C25   A    
C14   H7    S    
C43   C48   A    
C51   H21   S    
C37   H49   S    
C3    C60   A    
C40   C42   A    
C49   N4    S    
H44   O10   S    
C54   N9    S    
C41   C43   A    
C55   H37   S    
C3    H5    S    
C42   C44   A    
O1    Zn1   S    
O8    Zn2   S    
C24   C30   A    
C55   N10   S    
C57   H43   S    
C29   H1    S    
H9    N4    S    
C33   C40   A    
C17   O9    A    
C18   N1    A    
H27   N8    S    
C21   N3    A    
C10   C14   A    
C18   N6    S    
C5    C7    A    
C2    C59   A    
C17   O7    A    
C6    C8    A    
C12   O5    A    
C25   C26   A    
C35   C39   A    
C54   H32   S    
C50   H16   S    
C16   C33   S    
C20   N1    A    
O5    Zn1   S    
C47   C48   A    
H46   O2    S    
C19   C28   A    
C16   O8    A    
C54   H35   S    
N1    Zn1   S    
C20   C22   A    
H40   N2    S    
C49   H10   S    
C13   C15   A    
C53   H29   S    
H31   N9    S    
C36   C44   A    
C4    C6    A    
C55   H39   S    
C50   H17   S    
C44   C45   A    
C58   H3    S    
C39   H45   S    
C23   H50   S    
C23   C48   A    
C32   N2    S    
C1    O1    A    
C27   C32   A    
C53   N8    S    
H36   N10   S    
C28   C31   A    
H18   N6    S    
C18   C27   A    
C51   N6    S    
C40   H34   S    
C3    C5    A    
C30   H12   S    
C5    C11   A    
C25   C27   A    
C57   H41   S    
C26   C28   A    
C33   C38   A    
C52   H26   S    
C10   C59   A    
C9    C15   A    
C1    O4    A    
C29   C31   A    
C50   H15   S    
C52   N7    S    
C6    C13   A    
C30   C32   A    
C13   O2    S    
C12   O3    A    
O6    Zn1   S    
C15   H8    S    
C1    C2    S    
C55   H38   S    
C36   C38   A    
C56   N5    S    
C53   H28   S    
C49   H13   S    
C42   C47   A    
C35   C41   A    
C43   C46   A    
C51   H19   S    
C31   N10   S    
C12   C60   S    
C37   C39   A    
C19   N7    S    
C21   N9    S    
C49   H11   S    
C21   C24   A    
C46   C56   A    
C53   H30   S    
C34   C47   A    
C17   C35   S    
H22   N7    S    
C37   C46   A    
C16   O6    A    
O9    Zn1   S    
