data_mof_unit_35810.cif
_audit_creation_date              2012-12-10T20:39:09-0500
_audit_creation_method            fapswitch 2.2
_symmetry_space_group_name_H-M    P1
_symmetry_Int_Tables_number       1
_space_group_crystal_system       triclinic
_cell_length_a                    19.182588
_cell_length_b                    10.787266
_cell_length_c                    9.905366
_cell_angle_alpha                 88.311982
_cell_angle_beta                  87.436292
_cell_angle_gamma                 91.367889
_cell_volume                      2046.10295985

loop_
_atom_site_label
_atom_site_type_symbol
_atom_type_description
_atom_site_fract_x
_atom_site_fract_y
_atom_site_fract_z
_atom_type_partial_charge
C1    C     C_R   0.500841 0.259771 0.501766 0.875104
C2    C     C_R   0.289438 0.509399 0.500066 -0.059613
C3    C     C_R   0.929722 0.484943 0.452161 0.276171
C4    C     C_R   0.069607 0.491835 0.464234 0.268588
C5    C     C_R   0.818028 0.431408 0.574711 -0.162363
C6    C     C_R   0.745985 0.438626 0.588380 -0.203952
C7    C     C_R   0.709768 0.499521 0.487709 -0.024286
C8    C     C_R   0.745834 0.555014 0.374488 -0.196296
C9    C     C_R   0.818012 0.550287 0.362390 -0.165376
C10   C     C_R   0.854174 0.487510 0.461864 0.094133
C11   C     C_R   0.467671 0.056722 0.609799 0.078503
C12   C     C_R   0.365427 0.502939 0.501658 0.850863
C13   C     C_R   0.500595 0.126782 0.503311 -0.081621
C14   C     C_R   0.527374 0.067458 0.388833 -0.223983
C15   C     C_R   0.523116 0.939729 0.382505 -0.246562
C16   C     C_R   0.495774 0.870505 0.494727 -0.107601
C17   C     C_R   0.466676 0.929066 0.606160 0.086730
C18   C     C_3   0.484541 0.912165 0.750797 -0.084778
C19   C     C_3   0.483915 0.051797 0.756264 -0.543465
C20   C     C_R   0.451742 0.432372 0.077345 0.120949
C21   C     C_R   0.545529 0.573538 0.065506 -0.141264
C22   C     C_R   0.546384 0.571843 0.921618 -0.125242
C23   C     C_R   0.499840 0.739432 0.498224 0.874548
C24   C     C_R   0.447246 0.441297 0.935995 0.135319
C25   C     C_3   0.425873 0.307995 0.931529 -0.172762
C26   C     C_3   0.439800 0.294316 0.082794 0.368854
C27   C     C_R   0.634289 0.500754 0.496868 0.855927
C28   C     C_R   0.247034 0.468976 0.611319 -0.257309
C29   C     C_R   0.174442 0.462461 0.603929 0.135962
C30   C     C_R   0.144515 0.499804 0.481421 0.062677
C31   C     C_R   0.187067 0.546431 0.372427 -0.198167
C32   C     C_R   0.258877 0.550774 0.381414 -0.186900
H1    H     H_    0.270320 0.440390 0.702973 0.164308
H2    H     H_    0.545717 0.895293 0.294714 0.162907
H3    H     H_    0.537440 0.873987 0.762450 0.168263
H4    H     H_    0.439106 0.081654 0.819649 0.194993
H5    H     H_    0.535527 0.094657 0.776879 0.198765
H6    H     H_    0.583076 0.631295 0.114481 0.135418
H7    H     H_    0.584841 0.627770 0.862572 0.145622
H8    H     H_    0.465227 0.263903 0.866280 0.157083
H9    H     H_    0.164771 0.576539 0.278695 0.149511
H10   H     H_    0.290577 0.585411 0.294582 0.159225
H11   H     H_    0.845581 0.384003 0.653340 0.144884
H12   H     H_    0.718530 0.394689 0.675751 0.149447
H13   H     H_    0.718211 0.602625 0.296064 0.142521
H14   H     H_    0.845466 0.594284 0.275077 0.143114
H15   H     H_    0.554688 0.119337 0.307350 0.196580
N1    N     N_R   0.036553 0.587357 0.405033 -0.175021
N2    N     N_R   0.967503 0.583964 0.399120 -0.176447
N3    N     N_R   0.963062 0.387549 0.506302 -0.180899
N4    N     N_R   0.031988 0.390647 0.511066 -0.184093
N5    N     N_R   0.499530 0.499140 0.142800 -0.112497
N6    N     N_R   0.499530 0.499180 0.857150 -0.122074
O1    O     O_R   0.500010 0.316790 0.614690 -0.627352
O2    O     O_R   0.500000 0.316760 0.385350 -0.603171
O3    O     O_R   0.398140 0.500000 0.614710 -0.624248
O4    O     O_R   0.398130 0.499970 0.385370 -0.636505
O5    O     O_R   0.500000 0.683240 0.614650 -0.633496
O6    O     O_R   0.499990 0.683210 0.385310 -0.621622
O7    O     O_R   0.601870 0.500030 0.614630 -0.620236
O8    O     O_R   0.601860 0.500000 0.385290 -0.623047
Zn1   Zn    Zn3+2 0.500000 0.500020 0.653130 0.923202
Zn2   Zn    Zn3+2 0.500000 0.499980 0.346870 0.933689
C33   C     C_3   0.426850 0.844928 0.840643 -0.360023
C34   C     C_3   0.444251 0.850147 0.990081 -0.364719
C35   C     C_3   0.390125 0.778982 0.081235 -0.864653
H16   H     H_    0.337359 0.816511 0.068070 0.254723
H17   H     H_    0.389886 0.679591 0.056603 0.260260
H18   H     H_    0.403473 0.787670 0.188551 0.266702
H19   H     H_    0.496421 0.811033 0.005079 0.221943
H20   H     H_    0.446146 0.947672 0.021007 0.217486
H21   H     H_    0.375379 0.887481 0.825428 0.195167
H22   H     H_    0.422616 0.746384 0.812065 0.233793
C36   C     C_3   0.350888 0.285786 0.882716 -0.354030
C37   C     C_3   0.287365 0.340831 0.960407 -0.310929
C38   C     C_3   0.291027 0.480495 0.981394 -0.865391
H23   H     H_    0.315863 0.531497 0.892206 0.264775
H24   H     H_    0.237520 0.515384 0.999277 0.231537
H25   H     H_    0.320007 0.499841 0.072770 0.251443
H26   H     H_    0.241351 0.321188 0.901126 0.195022
H27   H     H_    0.274793 0.291545 0.058137 0.247250
H28   H     H_    0.351447 0.317869 0.775593 0.201759
H29   H     H_    0.340767 0.184353 0.880048 0.150779
N7    N     N_2   0.380436 0.257515 0.173220 -0.293720
H30   H     H_    0.380367 0.298351 0.265839 0.260160
C39   C     C_3   0.360861 0.126943 0.185040 -0.861748
H31   H     H_    0.308521 0.116164 0.237084 0.245088
H32   H     H_    0.398637 0.075817 0.245931 0.262828
H33   H     H_    0.358134 0.086042 0.084163 0.247241
C40   C     C_3   0.131467 0.418654 0.729074 -0.429357
C41   C     C_3   0.126452 0.276234 0.739471 -0.332391
C42   C     C_3   0.087094 0.231683 0.869862 -0.873460
H34   H     H_    0.114164 0.264989 0.959258 0.255402
H35   H     H_    0.033010 0.266408 0.872561 0.270407
H36   H     H_    0.084607 0.128703 0.874987 0.250774
H37   H     H_    0.179434 0.236827 0.736174 0.206087
H38   H     H_    0.099095 0.239088 0.652450 0.245780
H39   H     H_    0.155841 0.455106 0.819953 0.198123
H40   H     H_    0.078546 0.458089 0.730902 0.213363
N8    N     N_2   0.501351 0.220275 0.108033 -0.296907
H41   H     H_    0.493390 0.127944 0.088814 0.218449
C43   C     C_3   0.571103 0.262912 0.062212 -0.827738
H42   H     H_    0.607573 0.184713 0.068889 0.220706
H43   H     H_    0.590631 0.335188 0.129077 0.279143
H44   H     H_    0.572661 0.297320 0.955569 0.237264

loop_
_geom_bond_atom_site_label_1
_geom_bond_atom_site_label_2
_ccdc_geom_bond_type
O5    Zn1   S    
C23   O5    A    
C35   H17   S    
C24   C25   S    
C6    C7    A    
C38   H25   S    
C36   H29   S    
C1    O1    A    
C2    C12   S    
C3    N2    A    
C7    C8    A    
C23   O6    A    
C11   C19   S    
C2    C32   A    
C28   C29   A    
C38   H24   S    
C18   C19   S    
C27   O7    A    
C25   H8    S    
C4    N1    A    
C5    C6    A    
C39   H32   S    
C35   H18   S    
C15   C16   A    
C7    C27   S    
C43   H44   S    
O7    Zn1   S    
C25   C36   S    
O8    Zn2   S    
C8    H13   S    
C42   H34   S    
C27   O8    A    
C41   H37   S    
C21   H6    S    
C20   C24   A    
C16   C17   A    
O2    Zn2   S    
C33   H22   S    
C19   H5    S    
C18   H3    S    
C15   H2    S    
C35   H16   S    
C5    H11   S    
C9    H14   S    
C6    H12   S    
C21   C22   A    
C36   H28   S    
N8    C43   S    
C29   C40   S    
C3    N3    A    
O4    Zn2   S    
C22   N6    A    
C38   H23   S    
C36   C37   S    
C4    N4    A    
N7    H30   S    
C41   C42   S    
C39   H31   S    
C37   H27   S    
O1    Zn1   S    
N3    N4    A    
C24   N6    A    
C34   H20   S    
N5    Zn2   S    
C42   H36   S    
C37   C38   S    
C29   C30   A    
N6    Zn1   S    
C31   C32   A    
C42   H35   S    
C17   C18   S    
C8    C9    A    
C41   H38   S    
C43   H43   S    
C12   O3    A    
C12   O4    A    
N1    N2    A    
C28   H1    S    
C16   C23   S    
O3    Zn1   S    
C1    C13   S    
C40   H40   S    
C9    C10   A    
C11   C17   A    
C26   N7    S    
C31   H9    S    
N7    C39   S    
C39   H33   S    
C14   H15   S    
O6    Zn2   S    
C19   H4    S    
C33   C34   S    
C25   C26   S    
C5    C10   A    
C20   N5    A    
C3    C10   S    
C11   C13   A    
C18   C33   S    
C40   C41   S    
C30   C31   A    
C20   C26   S    
C22   H7    S    
N8    H41   S    
C33   H21   S    
C1    O2    A    
C43   H42   S    
C37   H26   S    
C34   C35   S    
C32   H10   S    
C14   C15   A    
C2    C28   A    
C13   C14   A    
C40   H39   S    
C21   N5    A    
C4    C30   S    
C34   H19   S    
C26   N8    S    
