data_mof_unit_6955.cif
_audit_creation_date              2012-12-10T18:12:29-0500
_audit_creation_method            fapswitch 2.2
_symmetry_space_group_name_H-M    P1
_symmetry_Int_Tables_number       1
_space_group_crystal_system       triclinic
_cell_length_a                    9.411189
_cell_length_b                    10.729888
_cell_length_c                    17.294536
_cell_angle_alpha                 90.130115
_cell_angle_beta                  85.787306
_cell_angle_gamma                 90.004012
_cell_volume                      1741.69667833

loop_
_atom_site_label
_atom_site_type_symbol
_atom_type_description
_atom_site_fract_x
_atom_site_fract_y
_atom_site_fract_z
_atom_type_partial_charge
C1    C     C_R   0.499826 0.740225 0.500177 0.756246
C2    C     C_R   0.342754 0.497433 0.778211 -0.203896
C3    C     C_R   0.439356 0.464846 0.140478 -0.201646
C4    C     C_R   0.429035 0.445517 0.220403 -0.014859
C5    C     C_R   0.644634 0.569401 0.228963 -0.256254
C6    C     C_R   0.656168 0.587533 0.148772 0.024123
C7    C     C_R   0.550747 0.535452 0.104333 0.067861
C8    C     C_2   0.447327 0.562895 0.979562 -0.221894
C9    C     C_2   0.562023 0.542756 0.019430 -0.140719
C10   C     C_R   0.531298 0.501330 0.265263 -0.136873
C11   C     C_3   0.344061 0.928591 0.502055 -0.374576
C12   C     C_R   0.481204 0.503819 0.649934 0.790090
C13   C     C_3   0.343974 0.071243 0.502264 -0.374571
C14   C     C_3   0.568986 0.928301 0.572639 -0.375358
C15   C     C_3   0.583340 0.927763 0.426309 -0.386499
C16   C     C_3   0.499111 0.878154 0.500304 0.164306
C17   C     C_3   0.498960 0.121788 0.500313 0.154392
C18   C     C_3   0.569078 0.072194 0.572586 -0.388560
C19   C     C_3   0.583147 0.071616 0.426283 -0.365015
C20   C     C_3   0.914970 0.370843 0.500897 -0.185118
C21   C     C_3   0.082262 0.369060 0.501591 -0.191151
C22   C     C_3   0.926759 0.559996 0.428075 -0.182072
C23   C     C_R   0.499717 0.259755 0.500182 0.797758
C24   C     C_3   0.907823 0.567271 0.566230 -0.191765
C25   C     C_3   0.094280 0.557684 0.428287 -0.168983
C26   C     C_3   0.075183 0.565939 0.566413 -0.189512
C27   C     C_R   0.518915 0.497638 0.350024 0.865348
C28   C     C_R   0.471078 0.520138 0.734001 -0.028612
C29   C     C_R   0.589469 0.564888 0.770192 -0.216558
C30   C     C_R   0.581145 0.583709 0.849724 -0.137717
C31   C     C_R   0.454931 0.555502 0.894615 0.179137
C32   C     C_R   0.334886 0.515073 0.858255 -0.158080
Cu1   Cu    Cu3+1 0.357600 0.500140 0.499960 0.911963
Cu2   Cu    Cu3+1 0.642400 0.499860 0.500040 0.901516
H1    H     H_    0.688253 0.587011 0.736959 0.138113
H2    H     H_    0.280774 0.894412 0.554713 0.159747
H3    H     H_    0.291057 0.894486 0.450529 0.164534
H4    H     H_    0.290445 0.105122 0.451041 0.169068
H5    H     H_    0.281049 0.105435 0.555131 0.155297
H6    H     H_    0.509703 0.893694 0.626406 0.153389
H7    H     H_    0.510067 0.107308 0.626398 0.152757
H8    H     H_    0.695251 0.893503 0.423576 0.165965
H9    H     H_    0.534628 0.892641 0.373713 0.158348
H10   H     H_    0.534292 0.106075 0.373701 0.194573
H11   H     H_    0.694981 0.106061 0.423450 0.161306
H12   H     H_    0.680546 0.893949 0.572993 0.160874
H13   H     H_    0.680713 0.106434 0.572769 0.161219
H14   H     H_    0.883335 0.316753 0.449942 0.146088
H15   H     H_    0.867957 0.322081 0.553432 0.138644
H16   H     H_    0.112802 0.320162 0.554566 0.132801
H17   H     H_    0.127570 0.313911 0.451149 0.150238
H18   H     H_    0.895940 0.511339 0.375037 0.168290
H19   H     H_    0.137338 0.507288 0.375501 0.174452
H20   H     H_    0.868935 0.665182 0.566951 0.135114
H21   H     H_    0.721852 0.612794 0.264021 0.182238
H22   H     H_    0.862971 0.523799 0.620900 0.143441
H23   H     H_    0.104522 0.522809 0.621373 0.142213
H24   H     H_    0.115684 0.663306 0.566641 0.138193
H25   H     H_    0.889114 0.657869 0.423917 0.136425
H26   H     H_    0.136458 0.654424 0.423545 0.136096
H27   H     H_    0.665893 0.525794 0.989854 0.161828
H28   H     H_    0.236266 0.494168 0.892037 0.131623
H29   H     H_    0.363549 0.419312 0.105492 0.169913
H30   H     H_    0.249498 0.464550 0.751154 0.137237
H31   H     H_    0.343436 0.576138 0.010304 0.159248
H32   H     H_    0.673596 0.620585 0.875616 0.147578
N1    N     N_3   0.856560 0.499750 0.498270 -0.119605
N2    N     N_3   0.143860 0.496700 0.498910 -0.120143
O1    O     O_R   0.379740 0.682430 0.499960 -0.601299
O2    O     O_R   0.620260 0.682190 0.500020 -0.598054
O3    O     O_R   0.365800 0.500150 0.613560 -0.597053
O4    O     O_R   0.606310 0.499910 0.613620 -0.596028
O5    O     O_R   0.379740 0.317810 0.499980 -0.582733
O6    O     O_R   0.620260 0.317570 0.500040 -0.601874
O7    O     O_R   0.393690 0.500090 0.386380 -0.572846
O8    O     O_R   0.634200 0.499850 0.386440 -0.594178
C33   C     C_2   0.776608 0.664519 0.114609 0.821008
O9    O     O_2   0.767122 0.719767 0.053437 -0.605661
O10   O     O_R   0.900652 0.676429 0.153925 -0.767347
H33   H     H_    0.974659 0.731585 0.125492 0.337731
C34   C     C_2   0.316038 0.360588 0.253785 0.826543
O11   O     O_2   0.199459 0.358473 0.226832 -0.603538
O12   O     O_R   0.344217 0.279503 0.313938 -0.785358
H34   H     H_    0.259636 0.224670 0.330257 0.311128

loop_
_geom_bond_atom_site_label_1
_geom_bond_atom_site_label_2
_ccdc_geom_bond_type
C10   C27   S    
C14   C18   S    
C20   N1    S    
C18   H13   S    
C34   O11   D    
C14   H12   S    
C33   O9    D    
C15   C19   S    
C29   C30   A    
C12   C28   S    
C9    H27   S    
C28   C29   A    
C24   C26   S    
C3    C7    A    
C5    C6    A    
C24   H20   S    
C15   C16   S    
C2    C32   A    
C11   H3    S    
C24   N1    S    
Cu1   O7    S    
C4    C34   S    
O12   H34   S    
C8    C9    D    
C22   C25   S    
C25   H26   S    
Cu2   O2    S    
Cu1   O1    S    
C12   O4    A    
C8    H31   S    
C25   N2    S    
C23   O5    A    
C27   O7    A    
C21   H16   S    
C34   O12   S    
C2    H30   S    
Cu1   Cu2   S    
C33   O10   S    
C18   H7    S    
C22   H25   S    
C6    C33   S    
C1    O1    A    
C20   H15   S    
C11   C16   S    
C31   C32   A    
C17   C18   S    
C1    C16   S    
C17   C23   S    
C26   H24   S    
C13   H4    S    
C30   H32   S    
Cu2   O6    S    
Cu1   O5    S    
C12   O3    A    
C21   N2    S    
C14   C16   S    
C23   O6    A    
C4    C10   A    
C27   O8    A    
Cu2   O4    S    
C21   H17   S    
C19   H10   S    
C22   H18   S    
C7    C9    S    
C11   H2    S    
C20   H14   S    
C8    C31   S    
C5    H21   S    
C15   H8    S    
C25   H19   S    
Cu2   N1    S    
C19   H11   S    
C6    C7    A    
C3    H29   S    
C24   H22   S    
C29   H1    S    
C1    O2    A    
C13   C17   S    
C26   N2    S    
C15   H9    S    
C5    C10   A    
C11   C13   S    
C30   C31   A    
C17   C19   S    
C26   H23   S    
C22   N1    S    
C13   H5    S    
Cu1   O3    S    
C14   H6    S    
O10   H33   S    
C20   C21   S    
C2    C28   A    
C32   H28   S    
C3    C4    A    
Cu1   N2    S    
Cu2   O8    S    
