data_mof_unit_68140.cif
_audit_creation_date              2012-12-11T16:11:44-0500
_audit_creation_method            fapswitch 2.2
_symmetry_space_group_name_H-M    P1
_symmetry_Int_Tables_number       1
_space_group_crystal_system       triclinic
_cell_length_a                    6.952724
_cell_length_b                    14.23962
_cell_length_c                    15.896862
_cell_angle_alpha                 89.775706
_cell_angle_beta                  89.680757
_cell_angle_gamma                 89.587541
_cell_volume                      1573.77824983

loop_
_atom_site_label
_atom_site_type_symbol
_atom_type_description
_atom_site_fract_x
_atom_site_fract_y
_atom_site_fract_z
_atom_type_partial_charge
O1    O     O_R   0.638960 0.835150 0.161940 -0.528888
O2    O     O_R   0.361040 0.164850 0.838060 -0.528887
O3    O     O_R   0.309170 0.846340 0.337470 -0.506190
O4    O     O_R   0.690830 0.153660 0.662530 -0.506190
O5    O     O_R   0.138810 0.664830 0.338070 -0.532321
O6    O     O_R   0.861190 0.335170 0.661930 -0.532321
C1    C     C_R   0.477273 0.870571 0.364697 0.937546
C2    C     C_R   0.522727 0.129429 0.635303 0.937547
O7    O     O_R   0.309250 0.846350 0.162570 -0.546568
O8    O     O_R   0.690750 0.153650 0.837430 -0.546568
O9    O     O_R   0.138880 0.664840 0.161920 -0.550800
O10   O     O_R   0.861120 0.335160 0.838080 -0.550800
C3    C     C_R   0.477948 0.868498 0.133697 0.828657
C4    C     C_R   0.522052 0.131502 0.866302 0.828656
O11   O     O_R   0.638880 0.835150 0.338090 -0.523377
O12   O     O_R   0.361120 0.164850 0.661910 -0.523377
O13   O     O_3   0.472380 0.690440 0.250000 -0.397550
O14   O     O_3   0.527620 0.309560 0.750000 -0.397550
V1    V     V_3+5 0.197550 0.761040 0.250010 1.699943
V2    V     V_3+5 0.802450 0.238960 0.749990 1.699942
O15   O     O_R   0.809160 0.653640 0.162540 -0.541535
O16   O     O_R   0.190840 0.346360 0.837460 -0.541535
C5    C     C_R   0.978256 0.633882 0.131679 0.802973
C6    C     C_R   0.021744 0.366118 0.868321 0.802974
O17   O     O_R   0.809090 0.653640 0.337440 -0.551348
O18   O     O_R   0.190910 0.346360 0.662560 -0.551347
C7    C     C_R   0.978117 0.631168 0.366320 0.799783
C8    C     C_R   0.021883 0.368832 0.633680 0.799783
V3    V     V_3+5 0.697540 0.738950 0.250000 1.652580
V4    V     V_3+5 0.302460 0.261050 0.750000 1.652581
O19   O     O_3   0.972580 0.809550 0.250010 -0.345904
O20   O     O_3   0.027420 0.190450 0.749990 -0.345904
C9    C     C_3   0.178284 0.523381 0.475384 -0.100617
C10   C     C_3   0.821716 0.476619 0.524616 -0.100617
C11   C     C_3   0.093748 0.538783 0.564664 -0.076869
C12   C     C_3   0.906252 0.461217 0.435336 -0.076869
H1    H     H_    0.171790 0.570720 0.617935 0.201258
H2    H     H_    0.828210 0.429280 0.382065 0.201257
H3    H     H_    0.325734 0.542825 0.454920 0.158017
H4    H     H_    0.674266 0.457175 0.545080 0.158017
C13   C     C_3   0.010559 0.438964 0.562840 -0.068576
C14   C     C_3   0.989441 0.561036 0.437160 -0.068576
C15   C     C_3   0.094997 0.422763 0.474345 -0.093032
C16   C     C_3   0.905003 0.577237 0.525655 -0.093033
H5    H     H_    0.173052 0.358608 0.453495 0.204506
H6    H     H_    0.826948 0.641392 0.546505 0.204505
C17   C     C_3   0.841891 0.445437 0.002952 -0.235696
C18   C     C_3   0.158109 0.554563 0.997047 -0.235695
C19   C     C_3   0.990702 0.457394 0.073837 0.546325
C20   C     C_3   0.009298 0.542606 0.926163 0.546324
H7    H     H_    0.713275 0.399766 0.006244 0.182221
H8    H     H_    0.286725 0.600234 0.993756 0.182221
C21   C     C_3   0.989661 0.564067 0.060661 -0.196352
C22   C     C_3   0.010339 0.435933 0.939339 -0.196352
C23   C     C_3   0.840913 0.553723 0.989204 -0.226238
C24   C     C_3   0.159087 0.446277 0.010796 -0.226237
H9    H     H_    0.711294 0.598385 0.979664 0.198087
H10   H     H_    0.288706 0.401615 0.020336 0.198087
C25   C     C_3   0.675530 0.981305 0.469141 0.301184
C26   C     C_3   0.324470 0.018694 0.530859 0.301185
C27   C     C_3   0.581201 0.079695 0.474425 0.326268
C28   C     C_3   0.418799 0.920304 0.525575 0.326268
C29   C     C_3   0.514297 0.058730 0.565275 -0.459525
C30   C     C_3   0.485703 0.941269 0.434726 -0.459525
C31   C     C_3   0.608484 0.959869 0.560239 0.297278
C32   C     C_3   0.391516 0.040131 0.439761 0.297277
C33   C     C_3   0.596269 0.921953 0.979895 0.321868
C34   C     C_3   0.403731 0.078046 0.020105 0.321865
C35   C     C_3   0.423479 0.962777 0.931528 0.373291
C36   C     C_3   0.576521 0.037222 0.068471 0.373289
C37   C     C_3   0.511688 0.061294 0.936624 -0.298677
C38   C     C_3   0.488312 0.938706 0.063375 -0.298676
C39   C     C_3   0.686963 0.020885 0.985024 -0.269788
C40   C     C_3   0.313037 0.979114 0.014976 -0.269787
H11   H     H_    0.840236 0.037887 0.972872 0.213559
H12   H     H_    0.159764 0.962113 0.027127 0.213559
S1    S     S_3+6 0.318496 0.913527 0.840001 0.146132
O21   O     O_2   0.106310 0.934260 0.839555 -0.253097
O22   O     O_2   0.408734 0.956366 0.763001 -0.310673
O23   O     O_3   0.353960 0.796576 0.839849 -0.417520
H13   H     H_    0.472173 0.786210 0.805974 0.407780
S2    S     S_3+6 0.681504 0.086472 0.159999 0.146131
O24   O     O_2   0.591264 0.043635 0.236999 -0.310671
O25   O     O_2   0.893690 0.065739 0.160445 -0.253098
O26   O     O_3   0.646044 0.203424 0.160150 -0.417522
H14   H     H_    0.527827 0.213790 0.194022 0.407780
Cl1   Cl    Cl    0.728061 0.817877 0.956331 -0.559631
Cl2   Cl    Cl    0.271938 0.182122 0.043668 -0.559629
S3    S     S_3+6 0.977494 0.403466 0.175149 0.020805
O27   O     O_2   0.126582 0.446035 0.231236 -0.372669
O28   O     O_2   0.780934 0.420070 0.212149 -0.339027
O29   O     O_3   0.018042 0.287538 0.166606 -0.402873
H15   H     H_    0.073443 0.268019 0.221267 0.409957
S4    S     S_3+6 0.022506 0.596534 0.824851 0.020806
O30   O     O_2   0.219066 0.579929 0.787851 -0.339024
O31   O     O_2   0.873417 0.553966 0.768765 -0.372671
O32   O     O_3   0.981961 0.712462 0.833394 -0.402873
H16   H     H_    0.926546 0.731980 0.778736 0.409955
S5    S     S_3+6 0.689468 0.188044 0.443086 0.096136
O33   O     O_2   0.543320 0.265875 0.450514 -0.361725
O34   O     O_2   0.857198 0.208667 0.498973 -0.320809
O35   O     O_3   0.767199 0.180779 0.343244 -0.385991
H17   H     H_    0.814357 0.244506 0.329516 0.394016
S6    S     S_3+6 0.310531 0.811956 0.556914 0.096135
O36   O     O_2   0.142803 0.791332 0.501027 -0.320810
O37   O     O_2   0.456679 0.734125 0.549488 -0.361723
O38   O     O_3   0.232797 0.819222 0.656756 -0.385992
H18   H     H_    0.185634 0.755496 0.670484 0.394019
Cl3   Cl    Cl    0.901957 0.956517 0.421188 -0.373501
Cl4   Cl    Cl    0.098043 0.043483 0.578812 -0.373501
Cl5   Cl    Cl    0.747042 0.902655 0.639656 -0.372805
Cl6   Cl    Cl    0.252957 0.097345 0.360344 -0.372801

loop_
_geom_bond_atom_site_label_1
_geom_bond_atom_site_label_2
_ccdc_geom_bond_type
C29   C31   S    
O13   V3    S    
C4    C37   S    
C21   C23   S    
C12   C14   S    
O4    C2    A    
V1    O19   S    
S6    O37   D    
O32   H16   S    
C17   C19   S    
S1    O21   D    
O9    V1    S    
C25   C30   S    
C9    H3    S    
C40   H12   S    
C26   C29   S    
C10   H4    S    
C9    C14   S    
C11   H1    S    
O3    C1    A    
C9    C11   S    
C34   C40   S    
C8    C13   S    
C26   C28   S    
C33   C38   S    
C35   C37   S    
O7    C3    A    
C31   Cl5   S    
C28   C30   S    
C25   Cl3   S    
O5    C7    A    
C35   S1    S    
C27   C32   S    
O7    V1    S    
O6    C8    A    
O8    V2    S    
O38   H18   S    
O3    V1    S    
C33   C39   S    
S3    O28   D    
C10   C12   S    
C18   C20   S    
C26   C32   S    
C2    O12   A    
C13   C15   S    
C27   S5    S    
C10   C13   S    
C14   C16   S    
O2    C4    A    
S6    O36   D    
C16   H6    S    
O11   V3    S    
C28   S6    S    
S1    O22   D    
O17   V3    S    
C18   C21   S    
C22   C24   S    
C25   C27   S    
C9    C15   S    
C10   C16   S    
C38   C40   S    
O8    C4    A    
C37   C39   S    
C20   S4    S    
C17   H7    S    
C1    O11   A    
S4    O32   S    
O26   H14   S    
O15   V3    S    
C33   C35   S    
C30   C32   S    
C6    C22   S    
S5    O33   D    
O10   V2    S    
C36   C39   S    
O1    V3    S    
C35   C40   S    
C20   C22   S    
S3    O29   S    
S4    O31   D    
C11   C16   S    
C15   H5    S    
C11   C13   S    
C17   C22   S    
O14   V4    S    
S5    O34   D    
O18   V4    S    
S4    O30   D    
S2    O25   D    
C23   H9    S    
C34   Cl2   S    
O16   C6    A    
O1    C3    A    
C39   H11   S    
C12   H2    S    
C19   C24   S    
C17   C23   S    
V2    O20   S    
S1    O23   S    
C18   C24   S    
O16   V4    S    
C28   C31   S    
O18   C8    A    
C27   C29   S    
C19   S3    S    
O23   H13   S    
O5    V1    S    
C3    C38   S    
O17   C7    A    
S2    O26   S    
O6    V2    S    
O10   C6    A    
C33   Cl1   S    
C20   C23   S    
O2    V4    S    
O15   C5    A    
V3    O19   S    
C25   C31   S    
V4    O20   S    
C7    C14   S    
C34   C37   S    
C19   C21   S    
C5    C21   S    
O9    C5    A    
O29   H15   S    
O13   V1    S    
C24   H10   S    
O14   V2    S    
O35   H17   S    
C36   S2    S    
C1    C30   S    
C26   Cl4   S    
C2    C29   S    
O4    V2    S    
C18   H8    S    
S5    O35   S    
C34   C36   S    
S2    O24   D    
C12   C15   S    
C36   C38   S    
C32   Cl6   S    
S3    O27   D    
O12   V4    S    
S6    O38   S    
