data_mof_unit_33131.cif
_audit_creation_date              2012-12-10T17:32:56-0500
_audit_creation_method            fapswitch 2.2
_symmetry_space_group_name_H-M    P1
_symmetry_Int_Tables_number       1
_space_group_crystal_system       triclinic
_cell_length_a                    12.343977
_cell_length_b                    13.231995
_cell_length_c                    14.231463
_cell_angle_alpha                 93.773962
_cell_angle_beta                  107.483496
_cell_angle_gamma                 117.028967
_cell_volume                      1918.12940043

loop_
_atom_site_label
_atom_site_type_symbol
_atom_type_description
_atom_site_fract_x
_atom_site_fract_y
_atom_site_fract_z
_atom_type_partial_charge
C1    C     C_R   0.650255 0.714893 0.506831 0.834417
C2    C     C_R   0.879476 0.542627 0.923195 0.081883
C3    C     C_R   0.847524 0.584276 0.999798 0.094936
C4    C     C_R   0.990419 0.526298 0.950074 0.045491
C5    C     C_R   0.059531 0.539398 0.053675 0.077805
C6    C     C_R   0.027964 0.584551 0.127994 -0.201826
C7    C     C_R   0.924809 0.606936 0.101457 -0.170217
C8    C     C_R   0.035516 0.498968 0.876876 -0.201783
C9    C     C_R   0.138862 0.476331 0.903063 0.253476
C10   C     C_R   0.201578 0.480311 0.004440 0.088030
C11   C     C_R   0.159947 0.509326 0.079913 0.046644
C12   C     C_R   0.619412 0.518308 0.687024 0.837256
C13   C     C_R   0.304826 0.455419 0.032331 -0.082231
C14   C     C_R   0.364493 0.456560 0.132670 -0.164783
C15   C     C_R   0.217117 0.503425 0.179270 -0.194288
C16   C     C_R   0.186402 0.952337 0.427619 -0.180851
C17   C     C_R   0.249981 0.158328 0.461762 -0.179335
C18   C     C_R   0.718803 0.930839 0.547544 0.287105
C19   C     C_R   0.810329 0.048284 0.557045 0.147822
C20   C     C_R   0.913947 0.073213 0.525454 -0.179272
C21   C     C_R   0.924343 0.984917 0.475533 0.086769
C22   C     C_R   0.830083 0.866712 0.459976 0.039155
C23   C     C_R   0.344035 0.284052 0.482755 0.885673
C24   C     C_R   0.034528 0.011925 0.449077 0.075069
C25   C     C_R   0.061567 0.923088 0.425551 0.074457
C26   C     C_R   0.961325 0.807476 0.396902 -0.164615
C27   C     C_R   0.842294 0.781325 0.404917 -0.109452
C28   C     C_R   0.119306 0.124750 0.445742 0.144718
C29   C     C_R   0.284000 0.069755 0.453345 0.260564
C30   C     C_R   0.731031 0.838311 0.502323 -0.210739
C31   C     C_R   0.256783 0.675161 0.675675 0.253342
C32   C     C_R   0.655651 0.344554 0.360873 0.119188
C33   C     C_R   0.734989 0.315168 0.326697 0.085650
C34   C     C_R   0.381879 0.483411 0.313125 0.810354
C35   C     C_R   0.871060 0.378096 0.378149 -0.178489
C36   C     C_R   0.929843 0.468990 0.465583 -0.032642
C37   C     C_R   0.844152 0.496121 0.496040 0.216579
C38   C     C_R   0.069627 0.532952 0.523898 -0.091199
C39   C     C_R   0.121275 0.622361 0.613116 0.012799
C40   C     C_R   0.035000 0.654334 0.635106 0.224424
C41   C     C_R   0.901133 0.590362 0.579135 -0.235240
C42   C     C_R   0.160708 0.510717 0.497458 0.050429
C43   C     C_R   0.338061 0.646072 0.644993 0.107597
C44   C     C_R   0.692493 0.536816 0.794988 -0.107621
C45   C     C_R   0.320026 0.479727 0.206439 -0.052726
C46   C     C_R   0.738763 0.602420 0.972695 0.257465
C47   C     C_R   0.663221 0.579901 0.870620 -0.174512
C48   C     C_R   0.797125 0.515474 0.821786 -0.215493
Cu1   Cu    Cu3+1 0.416420 0.526630 0.522910 1.010065
Cu2   Cu    Cu3+1 0.583580 0.473370 0.477090 0.958223
H1    H     H_    0.905987 0.641376 0.162047 0.181937
H2    H     H_    0.340851 0.435277 0.977409 0.199686
H3    H     H_    0.973632 0.737954 0.366105 0.135591
H4    H     H_    0.209488 0.884307 0.413551 0.178717
H5    H     H_    0.989563 0.163777 0.543735 0.205405
H6    H     H_    0.762774 0.693474 0.368563 0.183954
H7    H     H_    0.440425 0.685005 0.692781 0.173817
H8    H     H_    0.180586 0.513978 0.236808 0.151456
H9    H     H_    0.130600 0.449165 0.429181 0.164360
H10   H     H_    0.550522 0.297464 0.320861 0.146275
H11   H     H_    0.928100 0.354250 0.347501 0.188464
H12   H     H_    0.844642 0.620131 0.602705 0.231270
H13   H     H_    0.444658 0.438423 0.152222 0.172699
H14   H     H_    0.581755 0.596294 0.850612 0.203116
H15   H     H_    0.810742 0.475042 0.761612 0.167266
H16   H     H_    0.084072 0.607545 0.208136 0.141226
H17   H     H_    0.995003 0.497497 0.798088 0.174807
N1    N     N_R   0.290690 0.566960 0.557640 -0.205196
N2    N     N_R   0.709100 0.433710 0.442970 -0.217446
O1    O     O_R   0.545970 0.684450 0.528810 -0.531710
O2    O     O_R   0.687130 0.639470 0.490120 -0.620276
O3    O     O_R   0.519670 0.535100 0.660030 -0.579399
O4    O     O_R   0.660830 0.490120 0.621340 -0.596302
O5    O     O_R   0.312870 0.360530 0.509880 -0.538617
O6    O     O_R   0.454030 0.315550 0.471190 -0.550567
O7    O     O_R   0.339170 0.509880 0.378660 -0.583607
O8    O     O_R   0.480330 0.464900 0.339970 -0.604790
Br1   Br    Br    0.457024 0.099249 0.470118 -0.480701
Br2   Br    Br    0.040644 0.206981 0.372113 -0.576242
Br3   Br    Br    0.584797 0.902497 0.603085 -0.454845
C49   C     C_3   0.807146 0.152073 0.604667 -0.691670
H18   H     H_    0.721362 0.129482 0.625936 0.285700
H19   H     H_    0.896474 0.203847 0.674232 0.242278
H20   H     H_    0.806072 0.208646 0.550415 0.239355
Br4   Br    Br    0.086007 0.793516 0.729605 -0.426387
Br5   Br    Br    0.340859 0.771632 0.811445 -0.357348
C50   C     C_3   0.675880 0.217465 0.235074 -0.758934
H21   H     H_    0.567416 0.175783 0.202335 0.232859
H22   H     H_    0.714655 0.251842 0.176124 0.241788
H23   H     H_    0.701801 0.149841 0.256519 0.271582
Br6   Br    Br    0.185014 0.434536 0.794723 -0.554181
Br7   Br    Br    0.687868 0.657984 0.070965 -0.525456

loop_
_geom_bond_atom_site_label_1
_geom_bond_atom_site_label_2
_ccdc_geom_bond_type
C50   H21   S    
Cu2   O8    S    
Cu1   N1    S    
C37   N2    A    
C17   C29   A    
C35   C36   A    
C4    C8    A    
C9    Br6   S    
C49   H18   S    
C26   C27   A    
C17   C23   S    
C31   C43   A    
C36   C37   A    
Cu2   N2    S    
C5    C11   A    
C3    C7    A    
C34   O8    A    
C5    C6    A    
C46   Br7   S    
C18   C19   A    
C28   Br2   S    
C11   C15   A    
C29   Br1   S    
C19   C20   A    
C43   N1    A    
Cu1   O3    S    
C18   C30   A    
C48   H15   S    
C9    C10   A    
C44   C47   A    
C25   C26   A    
C12   O3    A    
C31   Br5   S    
C13   C14   A    
C42   N1    A    
C41   H12   S    
C20   H5    S    
C12   O4    A    
C49   H19   S    
C14   C45   A    
C24   C25   A    
Cu2   O4    S    
C47   H14   S    
C27   H6    S    
C8    C9    A    
C2    C48   A    
C16   C29   A    
C40   Br4   S    
C2    C4    A    
Cu2   O2    S    
C13   H2    S    
Cu1   O7    S    
C35   H11   S    
C34   C45   S    
C1    O2    A    
C6    C7    A    
C40   C41   A    
C22   C27   A    
C50   H22   S    
C15   H8    S    
C21   C24   A    
C15   C45   A    
C23   O5    A    
C26   H3    S    
C39   C40   A    
C49   H20   S    
C16   C25   A    
C46   C47   A    
C22   C30   A    
C17   C28   A    
C24   C28   A    
C23   O6    A    
C4    C5    A    
C10   C13   A    
C42   H9    S    
C38   C42   A    
C32   N2    A    
C3    C46   A    
C1    O1    A    
Cu1   O1    S    
C32   C33   A    
C36   C38   A    
C2    C3    A    
C33   C50   S    
C7    H1    S    
C12   C44   S    
C19   C49   S    
Cu2   O6    S    
C38   C39   A    
C14   H13   S    
C1    C30   S    
C33   C35   A    
C31   C39   A    
C37   C41   A    
C16   H4    S    
C10   C11   A    
C43   H7    S    
C6    H16   S    
C20   C21   A    
C8    H17   S    
C18   Br3   S    
Cu1   Cu2   S    
C50   H23   S    
C32   H10   S    
Cu1   O5    S    
C21   C22   A    
C44   C48   A    
C34   O7    A    
