data_mof_unit_42288.cif
_audit_creation_date              2012-12-10T17:30:17-0500
_audit_creation_method            fapswitch 2.2
_symmetry_space_group_name_H-M    P1
_symmetry_Int_Tables_number       1
_space_group_crystal_system       triclinic
_cell_length_a                    12.097215
_cell_length_b                    12.897412
_cell_length_c                    14.809808
_cell_angle_alpha                 91.30166
_cell_angle_beta                  86.315742
_cell_angle_gamma                 93.529103
_cell_volume                      2301.11072715

loop_
_atom_site_label
_atom_site_type_symbol
_atom_type_description
_atom_site_fract_x
_atom_site_fract_y
_atom_site_fract_z
_atom_type_partial_charge
C1    C     C_R   0.521947 0.700598 0.498684 0.905851
C2    C     C_R   0.382286 0.144207 0.569286 0.409073
C3    C     C_R   0.446852 0.871682 0.532104 0.413953
C4    C     C_R   0.548938 0.130968 0.466806 0.437800
C5    C     C_R   0.462350 0.978903 0.538144 -0.151238
C6    C     C_R   0.553804 0.027561 0.488785 -0.099382
C7    C     C_R   0.957047 0.441034 0.391191 0.005714
C8    C     C_R   0.043930 0.565319 0.606708 -0.013018
C9    C     C_R   0.840218 0.440485 0.405327 0.122462
C10   C     C_R   0.160160 0.562258 0.593618 0.161840
C11   C     C_R   0.856621 0.509272 0.553894 0.544679
C12   C     C_R   0.477927 0.300048 0.501170 0.950497
C13   C     C_R   0.143477 0.492729 0.445584 0.516292
C14   C     C_R   0.974715 0.519471 0.540807 -0.186002
C15   C     C_R   0.025319 0.484196 0.458354 -0.128824
C16   C     C_R   0.499703 0.499731 0.672621 0.888046
C17   C     C_R   0.499848 0.499923 0.327362 0.840188
C18   C     C_R   0.470058 0.408240 0.187147 -0.248678
C19   C     C_R   0.512074 0.593917 0.813743 -0.229147
C20   C     C_R   0.498918 0.500159 0.232165 -0.057366
C21   C     C_R   0.496898 0.499900 0.767953 -0.088423
C22   C     C_R   0.516655 0.593904 0.188216 -0.240678
C23   C     C_R   0.515664 0.691793 0.955093 0.446139
C24   C     C_R   0.468724 0.407610 0.812278 -0.208497
C25   C     C_R   0.509618 0.596745 0.095100 0.094628
C26   C     C_R   0.461601 0.406964 0.906272 0.077071
C27   C     C_R   0.483488 0.502479 0.047734 -0.047605
C28   C     C_R   0.482418 0.502030 0.954038 -0.058821
C29   C     C_R   0.460498 0.408247 0.094354 -0.001722
C30   C     C_R   0.503634 0.596529 0.907558 0.003180
C31   C     C_R   0.526149 0.691694 0.049219 -0.024526
C32   C     C_R   0.433564 0.313888 0.952865 -0.001777
C33   C     C_3   0.419163 0.831302 0.919466 0.055484
C34   C     C_R   0.428361 0.315876 0.047890 0.402623
C35   C     C_3   0.337818 0.787456 0.850770 -0.371874
C36   C     C_3   0.230301 0.843916 0.858386 -0.962005
C37   C     C_3   0.286716 0.224617 0.124690 0.052626
C38   C     C_3   0.258498 0.130751 0.184904 -0.321934
C39   C     C_3   0.139168 0.129712 0.225094 -0.978714
C40   C     C_3   0.578869 0.173623 0.316985 0.101485
C41   C     C_3   0.633173 0.092360 0.254676 -0.394112
C42   C     C_3   0.593038 0.093849 0.159293 -0.892394
C43   C     C_3   0.279748 0.814864 0.476326 0.139686
C44   C     C_3   0.195118 0.898158 0.474572 -0.390613
C45   C     C_R   0.465212 0.189249 0.508933 -0.357628
C46   C     C_3   0.116357 0.875327 0.399182 -0.990158
C47   C     C_3   0.197345 0.177609 0.601090 0.115240
C48   C     C_3   0.166613 0.212482 0.508029 -0.355013
C49   C     C_3   0.044236 0.185310 0.493978 -0.963103
C50   C     C_3   0.726514 0.777634 0.347564 0.108734
C51   C     C_3   0.832074 0.722638 0.319549 -0.298507
C52   C     C_3   0.828871 0.675947 0.224134 -0.993802
C53   C     C_3   0.192385 0.579888 0.316510 0.123818
C54   C     C_3   0.210185 0.564919 0.213969 -0.316741
C55   C     C_3   0.229996 0.668947 0.166595 -0.984198
C56   C     C_R   0.535800 0.813000 0.497918 -0.316074
C57   C     C_3   0.804848 0.414547 0.677772 0.094828
C58   C     C_3   0.776221 0.421189 0.779922 -0.329482
C59   C     C_3   0.741517 0.314531 0.818551 -0.958734
C60   C     C_R   0.646634 0.971204 0.461819 0.052470
C61   C     C_R   0.386114 0.039240 0.588908 0.030425
C62   C     C_R   0.637271 0.863046 0.464943 0.337929
H1    H     H_    0.453175 0.337748 0.225336 0.159492
H2    H     H_    0.561873 0.850655 0.056523 0.219110
H3    H     H_    0.487724 0.193767 0.876117 0.185581
H4    H     H_    0.376866 0.159381 0.944955 0.221327
H5    H     H_    0.435808 0.915727 0.907508 0.170735
H6    H     H_    0.379976 0.824680 0.989573 0.142210
H7    H     H_    0.376815 0.795462 0.781086 0.238878
H8    H     H_    0.316992 0.703711 0.863129 0.221477
H9    H     H_    0.187442 0.832165 0.926317 0.267589
H10   H     H_    0.174491 0.812584 0.806313 0.268371
H11   H     H_    0.247677 0.928437 0.847665 0.269489
H12   H     H_    0.530511 0.664378 0.775601 0.183784
H13   H     H_    0.233861 0.218315 0.065683 0.145043
H14   H     H_    0.267674 0.296341 0.164728 0.158263
H15   H     H_    0.270433 0.058133 0.144514 0.217451
H16   H     H_    0.315176 0.133196 0.241132 0.215476
H17   H     H_    0.127590 0.199725 0.268810 0.277911
H18   H     H_    0.120842 0.059793 0.267035 0.270826
H19   H     H_    0.080269 0.127919 0.170476 0.262714
H20   H     H_    0.597756 0.251249 0.287046 0.165517
H21   H     H_    0.486670 0.159629 0.319641 0.092900
H22   H     H_    0.724712 0.108050 0.251097 0.225180
H23   H     H_    0.533140 0.664182 0.227648 0.127618
H24   H     H_    0.612950 0.013710 0.282342 0.210021
H25   H     H_    0.502924 0.071351 0.160534 0.287013
H26   H     H_    0.637884 0.037127 0.115477 0.247581
H27   H     H_    0.609435 0.172311 0.130135 0.285141
H28   H     H_    0.233000 0.738163 0.479832 0.165520
H29   H     H_    0.331726 0.814649 0.411126 0.100740
H30   H     H_    0.145398 0.900248 0.540224 0.224154
H31   H     H_    0.238853 0.975309 0.463015 0.215917
H32   H     H_    0.163451 0.873848 0.332283 0.264634
H33   H     H_    0.055715 0.936536 0.399253 0.271234
H34   H     H_    0.453326 0.337055 0.772639 0.172311
H35   H     H_    0.070058 0.799116 0.410068 0.258925
H36   H     H_    0.143930 0.216522 0.653717 0.161161
H37   H     H_    0.176565 0.093113 0.608074 0.128914
H38   H     H_    0.182667 0.297651 0.502973 0.255676
H39   H     H_    0.217898 0.174095 0.453612 0.209135
H40   H     H_    0.025040 0.100396 0.500576 0.263782
H41   H     H_    0.024981 0.207966 0.425262 0.275161
H42   H     H_    0.990959 0.227687 0.544396 0.259676
H43   H     H_    0.722135 0.845825 0.303420 0.098740
H44   H     H_    0.653511 0.723191 0.337090 0.135945
H45   H     H_    0.978212 0.317318 0.305854 0.169328
H46   H     H_    0.904799 0.779249 0.322247 0.211318
H47   H     H_    0.842291 0.659684 0.367711 0.233568
H48   H     H_    0.757694 0.617773 0.220076 0.276954
H49   H     H_    0.906739 0.636565 0.206679 0.262247
H50   H     H_    0.821459 0.737890 0.174393 0.263586
H51   H     H_    0.808553 0.003185 0.484724 0.204611
H52   H     H_    0.781451 0.999265 0.374284 0.180218
H53   H     H_    0.384876 0.965808 0.708808 0.206997
H54   H     H_    0.264182 0.947324 0.656160 0.220208
H55   H     H_    0.260113 0.633276 0.341131 0.144400
H56   H     H_    0.978344 0.433213 0.254384 0.166318
H57   H     H_    0.112200 0.617827 0.329769 0.103661
H58   H     H_    0.282037 0.517416 0.197928 0.246321
H59   H     H_    0.136371 0.522630 0.187025 0.206243
H60   H     H_    0.156823 0.716420 0.179407 0.264044
H61   H     H_    0.243704 0.655321 0.092505 0.267566
H62   H     H_    0.304568 0.712474 0.191342 0.272047
H63   H     H_    0.886640 0.378817 0.667640 0.102945
H64   H     H_    0.741472 0.362550 0.645129 0.178574
H65   H     H_    0.849333 0.453925 0.814907 0.197493
H66   H     H_    0.708326 0.473900 0.794585 0.257310
H67   H     H_    0.943485 0.673490 0.663595 0.234064
H68   H     H_    0.667417 0.280162 0.785738 0.262584
H69   H     H_    0.720388 0.322405 0.892385 0.268649
H70   H     H_    0.810420 0.261669 0.807507 0.262567
H71   H     H_    0.208701 0.576133 0.721651 0.183266
H72   H     H_    0.213218 0.689196 0.665088 0.208508
H73   H     H_    0.789141 0.314763 0.331183 0.192410
H74   H     H_    0.787572 0.430083 0.278053 0.166989
H75   H     H_    0.962605 0.570677 0.731143 0.219926
H76   H     H_    0.632401 0.780071 0.122706 0.179872
N1    N     N_R   0.207800 0.519350 0.516680 -0.173495
N2    N     N_3   0.770893 0.392623 0.339696 -0.374162
N3    N     N_R   0.792200 0.480650 0.483320 -0.147680
N4    N     N_3   0.005567 0.395551 0.309818 -0.409774
N5    N     N_3   0.000452 0.622337 0.683981 -0.469769
N6    N     N_3   0.553816 0.786481 0.098604 -0.483718
N7    N     N_3   0.411487 0.218397 0.902987 -0.452543
N8    N     N_3   0.752348 0.024075 0.438546 -0.381598
N9    N     N_3   0.328561 0.001256 0.670637 -0.435996
N10   N     N_3   0.229498 0.610592 0.659111 -0.363414
O1    O     O_R   0.421700 0.658830 0.504450 -0.602725
O2    O     O_3   0.400135 0.225567 0.094892 -0.673019
O3    O     O_3   0.625100 0.175343 0.402678 -0.605302
O4    O     O_3   0.342293 0.825519 0.554567 -0.643711
O5    O     O_3   0.309317 0.206996 0.618001 -0.612244
O6    O     O_3   0.729474 0.807988 0.439783 -0.616197
O7    O     O_3   0.193447 0.482693 0.359625 -0.600082
O8    O     O_3   0.807333 0.515100 0.640298 -0.630551
O9    O     O_R   0.578300 0.341170 0.495550 -0.583518
O10   O     O_R   0.609310 0.646410 0.493750 -0.569968
O11   O     O_R   0.390690 0.353590 0.506250 -0.596490
O12   O     O_R   0.406180 0.506230 0.637500 -0.591559
O13   O     O_R   0.593820 0.493770 0.362500 -0.612347
O14   O     O_R   0.593800 0.493820 0.626800 -0.586208
O15   O     O_R   0.406200 0.506180 0.373200 -0.589715
O16   O     O_3   0.522248 0.784154 0.908308 -0.656322
Zn1   Zn    Zn3+2 0.374730 0.508290 0.507150 0.978724
Zn2   Zn    Zn3+2 0.625270 0.491710 0.492850 0.998295

loop_
_geom_bond_atom_site_label_1
_geom_bond_atom_site_label_2
_ccdc_geom_bond_type
C25   C31   A    
C59   H68   S    
C58   H66   S    
C16   C21   S    
C54   H58   S    
C27   C29   A    
C41   C42   S    
C35   C36   S    
C37   O2    S    
H74   N2    S    
C49   H42   S    
C34   O2    S    
C53   C54   S    
C26   C32   A    
C41   H24   S    
C59   H69   S    
N3    Zn2   S    
C47   H36   S    
C13   N1    A    
C1    O10   A    
C19   C21   A    
C1    C56   S    
C24   C26   A    
C24   H34   S    
C57   H63   S    
C38   C39   S    
C9    N2    S    
C53   H55   S    
C18   H1    S    
C16   O12   A    
C52   H50   S    
H53   N9    S    
C17   C20   S    
C47   H37   S    
C60   C62   A    
C22   H23   S    
C54   H59   S    
C31   N6    S    
N1    Zn1   S    
C13   O7    S    
H4    N7    S    
C44   H31   S    
C17   O15   A    
C33   C35   S    
O14   Zn2   S    
C46   H33   S    
C35   H8    S    
C51   H46   S    
C22   C25   A    
C50   H43   S    
C1    O1    A    
C12   O9    A    
O13   Zn2   S    
C44   H30   S    
C36   H9    S    
C7    C15   A    
H75   N5    S    
C55   H60   S    
C58   H65   S    
C51   H47   S    
C40   H21   S    
C60   N8    S    
C2    C61   A    
C44   C46   S    
C4    C45   A    
C2    C45   A    
H73   N2    S    
C48   H38   S    
C57   O8    S    
C55   H61   S    
C59   H70   S    
C43   H28   S    
C51   C52   S    
C23   C30   A    
C40   H20   S    
C33   O16   S    
O1    Zn1   S    
C39   H19   S    
C4    C6    A    
C49   H40   S    
H71   N10   S    
C9    N3    A    
C32   N7    S    
C47   O5    S    
C52   H49   S    
C16   O14   A    
C58   C59   S    
C41   H22   S    
C29   C34   A    
C43   H29   S    
O11   Zn1   S    
C40   O3    S    
C39   H17   S    
H51   N8    S    
C43   C44   S    
C37   C38   S    
C6    C60   A    
C3    C56   A    
C47   C48   S    
C46   H32   S    
C52   H48   S    
C50   C51   S    
C3    O4    S    
C5    C61   A    
C18   C29   A    
O12   Zn1   S    
H45   N4    S    
C11   N3    A    
H52   N8    S    
C17   O13   A    
C11   O8    S    
C48   C49   S    
C46   H35   S    
C20   C22   A    
C53   O7    S    
C2    O5    S    
C13   C15   A    
C56   C62   A    
C42   H26   S    
C10   N1    A    
H3    N7    S    
C3    C5    A    
C57   H64   S    
H72   N10   S    
O10   Zn2   S    
C23   O16   S    
C7    C9    A    
C4    O3    S    
C54   C55   S    
C40   C41   S    
C8    C14   A    
O15   Zn1   S    
C37   H14   S    
C19   H12   S    
C12   C45   S    
H56   N4    S    
O9    Zn2   S    
C49   H41   S    
H54   N9    S    
C53   H57   S    
H67   N5    S    
C38   H15   S    
C25   C27   A    
C38   H16   S    
H2    N6    S    
C26   C28   A    
C42   H27   S    
C39   H18   S    
C28   C30   A    
C61   N9    S    
C33   H5    S    
H76   N6    S    
C32   C34   A    
C57   C58   S    
C5    C6    A    
C50   O6    S    
C48   H39   S    
C11   C14   A    
C8    N5    S    
C18   C20   A    
C12   O11   A    
C37   H13   S    
C36   H11   S    
C62   O6    S    
C35   H7    S    
C8    C10   A    
C55   H62   S    
C21   C24   A    
C10   N10   S    
C27   C28   A    
C50   H44   S    
C14   C15   A    
C42   H25   S    
C19   C30   A    
C7    N4    S    
C43   O4    S    
C36   H10   S    
C33   H6    S    
C23   C31   A    
