data_mof_unit_5312.cif
_audit_creation_date              2012-10-26T17:12:41-0400
_audit_creation_method            fapswitch 2.2
_symmetry_space_group_name_H-M    P1
_symmetry_Int_Tables_number       1
_space_group_crystal_system       triclinic
_cell_length_a                    27.62466
_cell_length_b                    19.099794
_cell_length_c                    16.741068
_cell_angle_alpha                 89.62388
_cell_angle_beta                  64.128404
_cell_angle_gamma                 90.020629
_cell_volume                      7947.49346673

loop_
_atom_site_label
_atom_site_type_symbol
_atom_type_description
_atom_site_fract_x
_atom_site_fract_y
_atom_site_fract_z
_atom_type_partial_charge
Br1   Br    Br    0.224969 0.999604 0.539880 -0.288275
Br2   Br    Br    0.361427 0.589435 0.273864 -0.294427
Br3   Br    Br    0.356953 0.413064 0.271510 -0.297708
Br4   Br    Br    0.643048 0.586935 0.728490 -0.297718
Br5   Br    Br    0.316481 0.597983 0.803520 -0.354361
Br6   Br    Br    0.683535 0.402035 0.196461 -0.354357
Br7   Br    Br    0.684509 0.595762 0.196192 -0.351243
Br8   Br    Br    0.315475 0.404253 0.803835 -0.351347
Br9   Br    Br    0.817073 0.098917 0.802447 -0.368969
Br10  Br    Br    0.182913 0.901066 0.197577 -0.368965
Br11  Br    Br    0.188427 0.091415 0.190839 -0.352597
Br12  Br    Br    0.775025 0.000396 0.460136 -0.288269
Br13  Br    Br    0.811619 0.908546 0.809102 -0.352571
Br14  Br    Br    0.721194 0.498594 0.530323 -0.264366
Br15  Br    Br    0.278805 0.501406 0.469672 -0.264382
Br16  Br    Br    0.137842 0.909947 0.726369 -0.303212
Br17  Br    Br    0.862156 0.090052 0.273631 -0.303216
Br18  Br    Br    0.858293 0.912697 0.271664 -0.316756
Br19  Br    Br    0.141703 0.087305 0.728335 -0.316755
Br20  Br    Br    0.638575 0.410566 0.726138 -0.294440
C1    C     C_R   0.294880 0.728797 0.328948 0.567995
C2    C     C_R   0.591377 0.999879 0.532855 -0.012013
C3    C     C_R   0.684847 0.726101 0.911183 -0.011612
C4    C     C_R   0.113012 0.812897 0.046501 0.113119
C5    C     C_R   0.886987 0.187099 0.953498 0.113120
C6    C     C_R   0.885946 0.816401 0.952950 0.121330
C7    C     C_R   0.114063 0.183581 0.047046 0.121321
C8    C     C_R   0.613486 0.313572 0.046219 0.114566
C9    C     C_R   0.386516 0.686436 0.953788 0.114560
C10   C     C_R   0.386978 0.314511 0.953041 0.113450
C11   C     C_R   0.613023 0.685494 0.046958 0.113444
C12   C     C_R   0.145098 0.801789 0.091013 -0.056800
C13   C     C_R   0.902707 0.501851 0.482846 -0.013129
C14   C     C_R   0.854900 0.198204 0.908988 -0.056803
C15   C     C_R   0.853273 0.806428 0.909416 -0.046617
C16   C     C_R   0.146740 0.193541 0.090574 -0.046621
C17   C     C_R   0.645546 0.302349 0.090706 -0.057024
C18   C     C_R   0.354459 0.697661 0.909295 -0.057017
C19   C     C_R   0.354712 0.303939 0.908824 -0.058629
C20   C     C_R   0.645288 0.696069 0.091176 -0.058627
C21   C     C_R   0.235725 0.691244 0.799423 0.140344
C22   C     C_R   0.764280 0.308762 0.200572 0.140336
C23   C     C_R   0.764335 0.690503 0.200909 0.139316
C24   C     C_R   0.097288 0.498149 0.517171 -0.013128
C25   C     C_R   0.235662 0.309499 0.799096 0.139286
C26   C     C_R   0.735814 0.191575 0.799398 0.138371
C27   C     C_R   0.264181 0.808420 0.200608 0.138375
C28   C     C_R   0.265761 0.188473 0.200080 0.147330
C29   C     C_R   0.734249 0.811518 0.799911 0.147321
C30   C     C_R   0.270663 0.679601 0.839594 0.155897
C31   C     C_R   0.729345 0.320408 0.160398 0.155886
C32   C     C_R   0.729557 0.678515 0.160479 0.158838
C33   C     C_R   0.270438 0.321490 0.839529 0.158793
C34   C     C_R   0.770953 0.180116 0.839247 0.155112
C35   C     C_R   0.582869 0.875004 0.555691 0.120957
C36   C     C_R   0.229041 0.819877 0.160761 0.155117
C37   C     C_R   0.231414 0.175963 0.158872 0.172669
C38   C     C_R   0.768603 0.824017 0.841109 0.172683
C39   C     C_R   0.926656 0.902222 0.065649 0.570651
C40   C     C_R   0.073345 0.097777 0.934350 0.570650
C41   C     C_R   0.073339 0.902167 0.934408 0.571102
C42   C     C_R   0.926661 0.097832 0.065592 0.571102
C43   C     C_R   0.426735 0.402086 0.065629 0.570487
C44   C     C_R   0.573265 0.597914 0.934372 0.570493
C45   C     C_R   0.573455 0.402327 0.934304 0.570353
C46   C     C_R   0.417167 0.124977 0.444098 0.120983
C47   C     C_R   0.426544 0.597672 0.065697 0.570356
C48   C     C_R   0.020728 0.601807 0.602936 0.010728
C49   C     C_R   0.979262 0.398180 0.397105 0.010715
C50   C     C_R   0.925967 0.609048 0.576745 0.015410
C51   C     C_R   0.074017 0.390937 0.423305 0.015406
C52   C     C_R   0.542402 0.127624 0.525832 -0.001134
C53   C     C_R   0.457621 0.872392 0.474051 -0.001150
C54   C     C_R   0.457726 0.127875 0.473709 -0.000522
C55   C     C_R   0.542350 0.872147 0.526012 -0.000542
C56   C     C_R   0.977904 0.646355 0.654195 0.132222
C57   C     C_R   0.417160 0.875513 0.444242 0.120360
C58   C     C_R   0.022077 0.353619 0.345874 0.132224
C59   C     C_R   0.937486 0.659322 0.627310 0.114411
C60   C     C_R   0.062478 0.340637 0.372793 0.114399
C61   C     C_R   0.521993 0.191861 0.510899 0.099046
C62   C     C_R   0.478083 0.808163 0.488867 0.099195
C63   C     C_R   0.478350 0.191991 0.488134 0.099432
C64   C     C_R   0.521791 0.808046 0.511437 0.099530
C65   C     C_R   0.963214 0.554685 0.537680 -0.005423
C66   C     C_R   0.036776 0.445309 0.462355 -0.005421
C67   C     C_R   0.011605 0.552983 0.547723 -0.008782
C68   C     C_R   0.582842 0.124490 0.555699 0.120389
C69   C     C_R   0.988385 0.447012 0.452309 -0.008781
C70   C     C_R   0.478350 0.064133 0.488559 -0.008059
C71   C     C_R   0.521685 0.935891 0.511286 -0.008055
C72   C     C_R   0.521711 0.064029 0.511189 -0.008113
C73   C     C_R   0.478315 0.935992 0.488684 -0.008112
C74   C     C_R   0.456049 0.000097 0.479051 0.018137
C75   C     C_R   0.543970 0.999920 0.520845 0.018128
C76   C     C_R   0.951450 0.501123 0.490930 0.018700
C77   C     C_R   0.048543 0.498876 0.509093 0.018700
C78   C     C_R   0.385476 0.936372 0.459761 -0.026016
C79   C     C_R   0.123585 0.392581 0.428603 0.114592
C80   C     C_R   0.614526 0.063631 0.540197 -0.026017
C81   C     C_R   0.614555 0.936063 0.540104 -0.025674
C82   C     C_R   0.385447 0.063936 0.459850 -0.025682
C83   C     C_R   0.887134 0.443469 0.447103 -0.027059
C84   C     C_R   0.112863 0.556530 0.552909 -0.027056
C85   C     C_R   0.131667 0.440127 0.485901 -0.022002
C86   C     C_R   0.868327 0.559872 0.514117 -0.021995
C87   C     C_R   0.331573 0.935633 0.469897 -0.002591
C88   C     C_R   0.668423 0.064368 0.530097 -0.002595
C89   C     C_R   0.668450 0.935481 0.529990 -0.001651
C90   C     C_R   0.876405 0.607413 0.571424 0.114577
C91   C     C_R   0.331545 0.064519 0.470008 -0.001614
C92   C     C_R   0.831104 0.437459 0.466418 -0.004878
C93   C     C_R   0.168895 0.562541 0.533587 -0.004875
C94   C     C_R   0.177191 0.436804 0.503258 0.004036
C95   C     C_R   0.822806 0.563196 0.496751 0.004035
C96   C     C_R   0.303445 0.999976 0.484197 0.133858
C97   C     C_R   0.696548 0.000024 0.515814 0.133845
C98   C     C_R   0.799343 0.499545 0.489802 0.143310
C99   C     C_R   0.200655 0.500455 0.510200 0.143314
C100  C     C_R   0.928133 0.395430 0.395091 0.111163
C101  C     C_R   0.705119 0.271202 0.671053 0.567991
C102  C     C_R   0.071863 0.604563 0.604934 0.111169
C103  C     C_R   0.216853 0.759583 0.956661 0.007731
C104  C     C_R   0.783149 0.240419 0.043338 0.007733
C105  C     C_R   0.782593 0.760421 0.043512 0.009294
C106  C     C_R   0.217412 0.239570 0.956484 0.009300
C107  C     C_R   0.717245 0.260115 0.956328 0.008842
C108  C     C_R   0.282754 0.739885 0.043674 0.008841
C109  C     C_R   0.283664 0.258890 0.043067 0.013641
C110  C     C_R   0.716340 0.741105 0.956929 0.013638
C111  C     C_R   0.264678 0.720188 0.914511 -0.003007
C112  C     C_R   0.704437 0.730078 0.671326 0.576232
C113  C     C_R   0.735327 0.279819 0.085485 -0.003009
C114  C     C_R   0.735096 0.719869 0.085653 -0.000711
C115  C     C_R   0.264904 0.280131 0.914347 -0.000705
C116  C     C_R   0.765062 0.220702 0.914146 -0.001519
C117  C     C_R   0.234936 0.779294 0.085858 -0.001518
C118  C     C_R   0.236451 0.217932 0.084839 0.009261
C119  C     C_R   0.763560 0.782053 0.915150 0.009256
C120  C     C_R   0.299827 0.715628 0.955958 0.016495
C121  C     C_R   0.700176 0.284378 0.044041 0.016490
C122  C     C_R   0.699770 0.715319 0.044388 0.017067
C123  C     C_R   0.295563 0.269923 0.328674 0.576264
C124  C     C_R   0.300231 0.284682 0.955612 0.017077
C125  C     C_R   0.800242 0.216147 0.955602 0.017564
C126  C     C_R   0.199757 0.783850 0.044400 0.017565
C127  C     C_R   0.201040 0.213467 0.043735 0.019152
C128  C     C_R   0.798970 0.786514 0.956255 0.019148
C129  C     C_R   0.137085 0.812704 0.952568 -0.005040
C130  C     C_R   0.862916 0.187295 0.047431 -0.005041
C131  C     C_R   0.862607 0.813774 0.046963 -0.007997
C132  C     C_R   0.137397 0.186217 0.953035 -0.007999
C133  C     C_R   0.637458 0.313250 0.952332 -0.006721
C134  C     C_R   0.794805 0.228675 0.328968 0.567863
C135  C     C_R   0.362540 0.686749 0.047674 -0.006717
C136  C     C_R   0.363259 0.312695 0.046951 -0.006515
C137  C     C_R   0.636741 0.687306 0.953049 -0.006521
C138  C     C_R   0.116446 0.847930 0.898410 0.002814
C139  C     C_R   0.883554 0.152069 0.101590 0.002812
C140  C     C_R   0.883362 0.848193 0.101250 0.000408
C141  C     C_R   0.116640 0.151804 0.898749 0.000407
C142  C     C_R   0.616688 0.348279 0.898235 0.002409
C143  C     C_R   0.383310 0.651719 0.101768 0.002412
C144  C     C_R   0.383729 0.347601 0.101226 0.002784
C145  C     C_R   0.205195 0.771326 0.671032 0.567862
C146  C     C_R   0.616271 0.652400 0.898774 0.002778
C147  C     C_R   0.143607 0.838648 0.805117 0.134099
C148  C     C_R   0.856393 0.161352 0.194883 0.134097
C149  C     C_R   0.855737 0.839020 0.194342 0.125070
C150  C     C_R   0.144263 0.160979 0.805657 0.125068
C151  C     C_R   0.643816 0.338949 0.804959 0.134210
C152  C     C_R   0.356183 0.661049 0.195044 0.134214
C153  C     C_R   0.356086 0.338263 0.194267 0.139301
C154  C     C_R   0.643914 0.661738 0.805733 0.139295
C155  C     C_R   0.181467 0.783938 0.768640 -0.000729
C156  C     C_R   0.204978 0.229050 0.671145 0.562242
C157  C     C_R   0.818534 0.216062 0.231359 -0.000731
C158  C     C_R   0.818489 0.783630 0.231116 -0.007689
C159  C     C_R   0.181511 0.216370 0.768884 -0.007687
C160  C     C_R   0.681522 0.284082 0.768587 -0.003090
C161  C     C_R   0.318477 0.715916 0.231416 -0.003087
C162  C     C_R   0.319456 0.282136 0.230781 0.009878
C163  C     C_R   0.680544 0.717865 0.769219 0.009853
C164  C     C_R   0.201320 0.749909 0.824335 -0.051156
C165  C     C_R   0.798683 0.250094 0.175662 -0.051156
C166  C     C_R   0.798605 0.749608 0.175637 -0.050230
C167  C     C_R   0.795022 0.770951 0.328855 0.562235
C168  C     C_R   0.201396 0.250391 0.824364 -0.050226
C169  C     C_R   0.701491 0.250258 0.824237 -0.050750
C170  C     C_R   0.298506 0.749739 0.175767 -0.050753
C171  C     C_R   0.299788 0.247830 0.175131 -0.036912
C172  C     C_R   0.700215 0.752167 0.824866 -0.036919
C173  C     C_R   0.197293 0.631197 0.525136 0.567201
C174  C     C_R   0.802707 0.368803 0.474865 0.567202
C175  C     C_R   0.798486 0.631127 0.489355 0.573886
C176  C     C_R   0.201512 0.368873 0.510648 0.573897
C177  C     C_R   0.697992 0.131368 0.522102 0.568248
C178  C     C_R   0.408629 0.000128 0.467087 -0.012000
C179  C     C_R   0.302006 0.868632 0.477900 0.568244
C180  C     C_R   0.301976 0.131415 0.478026 0.567247
C181  C     C_R   0.698023 0.868585 0.521972 0.567224
C182  C     C_R   0.185475 0.774876 0.910736 -0.018829
C183  C     C_R   0.814527 0.225125 0.089262 -0.018827
C184  C     C_R   0.814247 0.775307 0.089064 -0.017080
C185  C     C_R   0.185756 0.224686 0.910934 -0.017077
C186  C     C_R   0.685816 0.275398 0.910488 -0.017506
C187  C     C_R   0.314182 0.724600 0.089517 -0.017507
C188  C     C_R   0.315155 0.273897 0.088815 -0.011615
Cu1   Cu    Cu3+1 0.209920 0.785290 0.495070 1.167964
Cu2   Cu    Cu3+1 0.504760 0.500000 0.075850 1.188271
Cu3   Cu    Cu3+1 0.995240 1.000000 0.924150 1.179734
Cu4   Cu    Cu3+1 0.004760 1.000000 0.075850 1.179723
Cu5   Cu    Cu3+1 0.790080 0.214710 0.504930 1.167954
Cu6   Cu    Cu3+1 0.790080 0.785290 0.504930 1.181748
Cu7   Cu    Cu3+1 0.209920 0.214710 0.495070 1.181730
Cu8   Cu    Cu3+1 0.709920 0.285290 0.495070 1.181981
Cu9   Cu    Cu3+1 0.290080 0.714710 0.504930 1.181995
Cu10  Cu    Cu3+1 0.290080 0.285290 0.504930 1.179620
Cu11  Cu    Cu3+1 0.709920 0.714710 0.495070 1.179781
Cu12  Cu    Cu3+1 0.495240 0.500000 0.924150 1.188247
H1    H     H_    0.125883 0.800715 0.162792 0.175696
H2    H     H_    0.874114 0.199273 0.837208 0.175692
H3    H     H_    0.871861 0.808354 0.837836 0.195518
H4    H     H_    0.128156 0.191597 0.162151 0.195517
H5    H     H_    0.626353 0.301323 0.162497 0.177979
H6    H     H_    0.373655 0.698695 0.837504 0.177983
H7    H     H_    0.373729 0.304185 0.837032 0.177810
H8    H     H_    0.626270 0.695829 0.162968 0.177852
I1    I     I_    0.563856 0.711909 0.502847 -0.136617
I2    I     I_    0.432087 0.179008 0.323131 -0.214766
I3    I     I_    0.432229 0.822227 0.323566 -0.208817
I4    I     I_    0.567718 0.177689 0.676454 -0.208902
I5    I     I_    0.193928 0.369865 0.309750 -0.281466
I6    I     I_    0.806059 0.630162 0.690258 -0.281510
I7    I     I_    0.916458 0.327528 0.303263 -0.201332
I8    I     I_    0.083550 0.672467 0.696751 -0.201333
I9    I     I_    0.029012 0.796114 0.124677 -0.237998
I10   I     I_    0.970987 0.203882 0.875318 -0.238003
I11   I     I_    0.970170 0.805499 0.870792 -0.173898
I12   I     I_    0.436631 0.288325 0.495702 -0.136196
I13   I     I_    0.029843 0.194499 0.129211 -0.173902
I14   I     I_    0.529587 0.297281 0.124376 -0.210343
I15   I     I_    0.470414 0.702743 0.875660 -0.210469
I16   I     I_    0.470817 0.299200 0.874224 -0.206350
I17   I     I_    0.529183 0.700801 0.125775 -0.206346
I18   I     I_    0.214777 0.604275 0.740057 -0.112992
I19   I     I_    0.785230 0.395725 0.259943 -0.113013
I20   I     I_    0.785051 0.604110 0.262500 -0.121053
I21   I     I_    0.214943 0.395889 0.737504 -0.121101
I22   I     I_    0.714295 0.104597 0.740747 -0.125657
I23   I     I_    0.435746 0.712020 0.498040 -0.134103
I24   I     I_    0.285701 0.895402 0.259252 -0.125624
I25   I     I_    0.285886 0.103050 0.263654 -0.127771
I26   I     I_    0.714127 0.896949 0.736344 -0.127852
I27   I     I_    0.564258 0.288006 0.502137 -0.134073
I28   I     I_    0.093684 0.237157 0.353900 -0.213475
I29   I     I_    0.906354 0.762832 0.646085 -0.213474
I30   I     I_    0.056943 0.367414 0.205795 -0.214750
I31   I     I_    0.943062 0.632568 0.794279 -0.214794
I32   I     I_    0.567897 0.820626 0.676463 -0.214544
O1    O     O_R   0.255040 0.869590 0.478480 -0.443636
O2    O     O_R   0.817950 0.203450 0.375560 -0.444323
O3    O     O_R   0.817950 0.796550 0.375560 -0.452689
O4    O     O_R   0.182050 0.203450 0.624440 -0.452678
O5    O     O_R   0.682050 0.296550 0.624440 -0.440485
O6    O     O_R   0.317950 0.703450 0.375560 -0.440486
O7    O     O_R   0.317950 0.296550 0.375560 -0.446129
O8    O     O_R   0.682050 0.703450 0.624440 -0.446123
O9    O     O_R   0.250530 0.763330 0.367210 -0.514157
O10   O     O_R   0.749470 0.236670 0.632790 -0.514156
O11   O     O_R   0.749470 0.763330 0.632790 -0.498191
O12   O     O_R   0.744960 0.130410 0.521520 -0.443625
O13   O     O_R   0.250530 0.236670 0.367210 -0.498190
O14   O     O_R   0.750530 0.263330 0.367210 -0.512669
O15   O     O_R   0.249470 0.736670 0.632790 -0.512665
O16   O     O_R   0.249470 0.263330 0.632790 -0.510793
O17   O     O_R   0.750530 0.736670 0.367210 -0.510730
O18   O     O_R   0.177260 0.690030 0.513710 -0.509801
O19   O     O_R   0.822740 0.309970 0.486290 -0.509805
O20   O     O_R   0.822740 0.690030 0.486290 -0.507911
O21   O     O_R   0.177260 0.309970 0.513710 -0.507913
O22   O     O_R   0.677260 0.190030 0.513710 -0.510270
O23   O     O_R   0.744960 0.869590 0.521520 -0.443482
O24   O     O_R   0.322740 0.809970 0.486290 -0.510265
O25   O     O_R   0.322740 0.190030 0.486290 -0.511618
O26   O     O_R   0.677260 0.809970 0.513710 -0.511540
O27   O     O_R   0.051640 0.926880 0.885090 -0.443821
O28   O     O_R   0.948360 0.073120 0.114910 -0.443823
O29   O     O_R   0.948360 0.926880 0.114910 -0.444910
O30   O     O_R   0.051640 0.073120 0.885090 -0.444908
O31   O     O_R   0.551640 0.426880 0.885090 -0.444813
O32   O     O_R   0.448360 0.573120 0.114910 -0.444812
O33   O     O_R   0.448360 0.426880 0.114910 -0.446441
O34   O     O_R   0.255040 0.130410 0.478480 -0.443476
O35   O     O_R   0.551640 0.573120 0.885090 -0.446442
O36   O     O_R   0.940620 0.926560 0.986760 -0.508459
O37   O     O_R   0.059380 0.073440 0.013240 -0.508466
O38   O     O_R   0.059380 0.926560 0.013240 -0.505629
O39   O     O_R   0.940620 0.073440 0.986760 -0.505628
O40   O     O_R   0.440620 0.426560 0.986760 -0.505654
O41   O     O_R   0.559380 0.573440 0.013240 -0.505647
O42   O     O_R   0.559380 0.426560 0.013240 -0.505584
O43   O     O_R   0.440620 0.573440 0.986760 -0.505579
O44   O     O_R   0.755040 0.369590 0.478480 -0.443231
O45   O     O_R   0.244960 0.630410 0.521520 -0.443233
O46   O     O_R   0.244960 0.369590 0.521520 -0.445663
O47   O     O_R   0.755040 0.630410 0.478480 -0.445655
O48   O     O_R   0.182050 0.796550 0.624440 -0.444323

loop_
_geom_bond_atom_site_label_1
_geom_bond_atom_site_label_2
_ccdc_geom_bond_type
C102  I8    S    
C21   C30   A    
C56   C59   A    
C53   C73   A    
C54   C63   A    
C181  O23   A    
C43   O40   A    
C94   C176  S    
C104  C113  A    
C6    C131  A    
C135  C187  A    
C79   I5    S    
C65   C76   A    
Cu5   Cu8   S    
C35   I32   S    
C26   I22   S    
C111  C120  A    
C6    I11   S    
C156  C159  S    
C142  C151  A    
Cu2   O41   S    
C16   H4    S    
C5    C14   A    
C18   H6    S    
C10   C136  A    
C50   C59   A    
C82   C91   A    
C8    I14   S    
C130  C183  A    
C138  C147  A    
C101  C160  S    
C168  C185  A    
C146  C154  A    
C57   I3    S    
C130  C139  A    
C89   C97   A    
Cu11  O8    S    
C117  C126  A    
C107  C116  A    
Cu4   O37   S    
C101  O5    A    
C159  C168  A    
C51   C79   A    
C3    C110  A    
C47   O43   A    
C83   C92   A    
Cu2   O33   S    
C4    C12   A    
C161  C170  A    
C85   C94   A    
C70   C72   A    
C169  C186  A    
C95   C98   A    
C9    I15   S    
C144  C153  A    
C145  O15   A    
C143  C152  A    
C11   C137  A    
C68   I4    S    
C153  C162  A    
C62   C64   A    
Cu6   O20   S    
C145  O48   A    
Cu11  O26   S    
C60   I28   S    
C44   O41   A    
C180  O34   A    
Cu7   O4    S    
C13   C86   A    
Cu1   O48   S    
C105  C128  A    
C106  C127  A    
C39   O29   A    
C86   C95   A    
Cu1   Cu9   S    
C54   C70   A    
C69   C76   A    
C41   C138  S    
C179  O24   A    
C136  C188  A    
C42   O28   A    
C62   I23   S    
C30   C111  A    
Br12  C97   S    
C158  C166  A    
C6    C15   A    
Cu9   O6    S    
C134  C157  S    
C53   C57   A    
Br9   C34   S    
C28   I25   S    
Cu6   O23   S    
C105  C184  A    
C7    C132  A    
C21   I18   S    
C32   C114  A    
C33   C115  A    
C28   C37   A    
C109  C124  A    
C24   C85   A    
Cu3   O30   S    
Br7   C32   S    
C160  C169  A    
C112  C163  S    
C58   C60   A    
C55   C64   A    
C84   C102  A    
C106  C185  A    
C46   C54   A    
C43   O33   A    
C107  C121  A    
C88   C177  S    
C66   C77   A    
C28   C171  A    
C50   C90   A    
C25   I21   S    
C152  C161  A    
C156  O4    A    
C39   O36   A    
C9    C18   A    
C21   C164  A    
C129  C138  A    
C23   I20   S    
C132  C141  A    
C55   C71   A    
C35   C55   A    
Cu10  O25   S    
C25   C33   A    
C10   I16   S    
C42   O39   A    
C173  O45   A    
C49   C69   A    
C3    C172  A    
C61   C63   A    
C167  O17   A    
Cu12  O43   S    
C119  C128  A    
C80   C88   A    
C104  C183  A    
C59   I29   S    
C123  C162  S    
Cu7   Cu10  S    
C109  C188  A    
C135  C143  A    
C180  O25   A    
Cu8   O22   S    
C20   H8    S    
Cu10  O46   S    
C91   C180  S    
C51   C66   A    
Cu7   O21   S    
C61   I27   S    
C92   C174  S    
C1    O6    A    
C22   C165  A    
Cu2   O32   S    
C8    C133  A    
C26   C169  A    
C13   C76   A    
C147  C155  A    
Cu9   O15   S    
C63   I12   S    
C88   C97   A    
Br17  C148  S    
Br8   C33   S    
Cu1   O1    S    
C48   C56   A    
Cu8   O44   S    
C9    C135  A    
C150  C159  A    
C27   C170  A    
C108  C120  A    
C87   C179  S    
C36   C117  A    
C8    C17   A    
Cu12  O40   S    
C40   O37   A    
C3    C137  A    
Br15  C99   S    
C10   C19   A    
C15   C128  A    
C110  C122  A    
C87   C96   A    
C71   C75   A    
C84   C93   A    
C47   C143  S    
C170  C187  A    
C19   C124  A    
C48   C67   A    
C50   C65   A    
C129  C182  A    
Cu4   O29   S    
Br2   C152  S    
C27   C36   A    
C105  C114  A    
C40   O30   A    
C83   C100  A    
Br19  C150  S    
C131  C184  A    
C163  C172  A    
C12   H1    S    
C1    O9    A    
C29   C172  A    
C2    C81   A    
C17   C121  A    
Cu4   O38   S    
C100  I7    S    
C52   C72   A    
C12   C126  A    
Br16  C147  S    
C81   C89   A    
C148  C157  A    
C157  C165  A    
C11   C20   A    
C134  O14   A    
C44   C146  S    
C93   C99   A    
Cu5   O10   S    
C140  C149  A    
C91   C96   A    
C19   H7    S    
C52   C61   A    
C17   H5    S    
Br4   C154  S    
C110  C119  A    
C7    I13   S    
C70   C74   A    
C24   C84   A    
C43   C144  S    
C56   I31   S    
Cu2   O42   S    
C2    C80   A    
C176  O21   A    
C48   C102  A    
Cu9   O24   S    
C47   O32   A    
C78   C87   A    
C134  O2    A    
C114  C122  A    
Cu6   O3    S    
C16   C127  A    
Cu3   Cu4   S    
C103  C126  A    
C26   C34   A    
Cu10  O7    S    
C58   I30   S    
C64   I1    S    
C68   C80   A    
C158  C167  S    
Cu12  O31   S    
C106  C115  A    
Br5   C30   S    
C162  C171  A    
C53   C62   A    
Br18  C149  S    
C173  O18   A    
C95   C175  S    
Cu10  O16   S    
Cu7   O13   S    
C103  C111  A    
C175  O20   A    
C13   C83   A    
C93   C173  S    
C66   C69   A    
Cu11  O47   S    
C154  C163  A    
C7    C16   A    
C49   C100  A    
C113  C121  A    
C133  C142  A    
C165  C183  A    
C89   C181  S    
C94   C99   A    
C5    I10   S    
Cu5   O12   S    
Cu6   O11   S    
C44   O35   A    
C23   C32   A    
Cu8   O5    S    
Br20  C151  S    
C123  O13   A    
Br11  C37   S    
C181  O26   A    
C90   I6    S    
C155  C164  A    
C38   C119  A    
Cu5   O19   S    
C73   C74   A    
C29   I26   S    
C20   C122  A    
C2    C75   A    
C46   C82   A    
C112  O11   A    
Cu4   O28   S    
C1    C161  S    
C107  C186  A    
Cu6   Cu11  S    
C82   C178  A    
C14   C125  A    
Cu7   O34   S    
C71   C73   A    
Cu1   O18   S    
Cu2   Cu12  S    
C139  C148  A    
C39   C140  S    
C176  O46   A    
Br3   C153  S    
C109  C118  A    
Br14  C98   S    
C45   C142  S    
Br1   C96   S    
Cu9   O45   S    
Br6   C31   S    
Br10  C36   S    
Cu3   O36   S    
C116  C125  A    
C22   C31   A    
C45   O31   A    
Cu1   O9    S    
C174  O19   A    
C49   C58   A    
C156  O16   A    
C51   C60   A    
C52   C68   A    
C65   C67   A    
C79   C85   A    
C22   I19   S    
C164  C182  A    
C78   C178  A    
C132  C185  A    
Cu3   O27   S    
Br13  C38   S    
C23   C166  A    
C72   C75   A    
C29   C38   A    
C5    C130  A    
C74   C178  A    
C108  C117  A    
C15   H3    S    
C112  O8    A    
C24   C77   A    
C118  C127  A    
C34   C116  A    
C40   C141  S    
C166  C184  A    
C57   C78   A    
C177  O12   A    
C27   I24   S    
C141  C150  A    
C115  C124  A    
C108  C187  A    
C151  C160  A    
C149  C158  A    
C86   C90   A    
Cu8   O14   S    
C41   O38   A    
C103  C182  A    
C177  O22   A    
Cu3   O39   S    
C137  C146  A    
C179  O1    A    
C25   C168  A    
C45   O42   A    
C145  C155  S    
C104  C125  A    
C46   I2    S    
Cu5   O2    S    
C131  C140  A    
C175  O47   A    
C92   C98   A    
C31   C113  A    
Cu12  O35   S    
C174  O44   A    
C35   C81   A    
C167  O3    A    
C37   C118  A    
C123  O7    A    
C171  C188  A    
C41   O27   A    
C4    C129  A    
C4    I9    S    
C133  C186  A    
C136  C144  A    
Cu11  O17   S    
C18   C120  A    
C42   C139  S    
C11   I17   S    
C101  O10   A    
C14   H2    S    
C67   C77   A    
