data_mof_unit_46870.cif
_audit_creation_date              2012-10-26T21:07:32-0400
_audit_creation_method            fapswitch 2.2
_symmetry_space_group_name_H-M    P1
_symmetry_Int_Tables_number       1
_space_group_crystal_system       triclinic
_cell_length_a                    9.723448
_cell_length_b                    10.926013
_cell_length_c                    17.294855
_cell_angle_alpha                 90.949074
_cell_angle_beta                  87.274559
_cell_angle_gamma                 90.364862
_cell_volume                      1835.02102588

loop_
_atom_site_label
_atom_site_type_symbol
_atom_type_description
_atom_site_fract_x
_atom_site_fract_y
_atom_site_fract_z
_atom_type_partial_charge
C1    C     C_R   0.500120 0.734550 0.501023 0.593946
C2    C     C_R   0.519802 0.499386 0.264593 -0.010313
C3    C     C_2   0.612359 0.067753 0.502427 -0.139356
C4    C     C_R   0.483357 0.493301 0.649484 0.553859
C5    C     C_2   0.497574 0.133222 0.495400 -0.076573
C6    C     C_2   0.613296 0.933675 0.499097 -0.108190
C7    C     C_2   0.497682 0.866627 0.505063 -0.066633
C8    C     C_2   0.071321 0.505850 0.561135 0.013317
C9    C     C_2   0.923381 0.539892 0.557068 0.333204
C10   C     C_R   0.499702 0.265408 0.499166 0.560934
C11   C     C_R   0.516454 0.499200 0.349871 0.612977
C12   C     C_R   0.360351 0.495325 0.779392 -0.100320
C13   C     C_R   0.478309 0.469239 0.732348 0.026515
C14   C     C_R   0.591978 0.414126 0.764379 -0.070650
C15   C     C_R   0.593366 0.395993 0.843397 -0.040015
C16   C     C_R   0.479416 0.429437 0.891012 0.103661
C17   C     C_R   0.360402 0.473913 0.858636 -0.035150
C18   C     C_2   0.509228 0.298273 0.007537 0.211990
C19   C     C_R   0.402423 0.455339 0.146209 -0.120538
C20   C     C_R   0.413575 0.437755 0.225035 0.196470
C21   C     C_R   0.621244 0.567478 0.221069 0.209374
C22   C     C_R   0.613624 0.572717 0.140739 -0.050048
C23   C     C_R   0.503228 0.519835 0.103734 -0.062373
C24   C     C_2   0.489576 0.422402 0.975110 -0.039273
C25   C     C_2   0.495819 0.526714 0.019226 0.204158
Cu1   Cu    Cu3+1 0.361370 0.499980 0.499980 1.080018
Cu2   Cu    Cu3+1 0.638630 0.500020 0.500020 1.110611
H1    H     H_    0.680216 0.385170 0.728343 0.165388
H2    H     H_    0.269860 0.495562 0.895041 0.161504
H3    H     H_    0.318106 0.413556 0.116443 0.157072
H4    H     H_    0.269791 0.534000 0.755284 0.151413
H5    H     H_    0.684426 0.358531 0.867720 0.143942
H6    H     H_    0.971320 0.777619 0.701829 0.383843
H7    H     H_    0.151742 0.271760 0.184879 0.361250
H8    H     H_    0.771552 0.778032 0.360040 0.367835
H9    H     H_    0.536032 0.861321 0.017275 0.400109
H10   H     H_    0.547023 0.287004 0.064949 0.139648
H11   H     H_    0.693125 0.619536 0.106480 0.214528
H12   H     H_    0.710604 0.113344 0.509780 0.164045
H13   H     H_    0.398901 0.091398 0.485011 0.135514
H14   H     H_    0.713086 0.889554 0.492748 0.179046
H15   H     H_    0.397056 0.907261 0.514690 0.114738
H16   H     H_    0.114101 0.500830 0.617707 0.177012
H17   H     H_    0.110619 0.518857 0.448730 0.251389
H18   H     H_    0.894026 0.442149 0.461115 0.211064
N1    N     N_2   0.152990 0.501340 0.500850 -0.361023
N2    N     N_2   0.846850 0.501370 0.500880 -0.350368
O1    O     O_R   0.382960 0.678040 0.499990 -0.490322
O2    O     O_2   0.841143 0.563285 0.706138 -0.308013
O3    O     O_3   0.998739 0.735415 0.652399 -0.532500
O4    O     O_2   0.369331 0.257193 0.327741 -0.242670
O5    O     O_2   0.178639 0.397411 0.308983 -0.261489
O6    O     O_3   0.236914 0.233506 0.202114 -0.471867
O7    O     O_2   0.857542 0.564021 0.294709 -0.251762
O8    O     O_2   0.829539 0.731234 0.204511 -0.228806
O9    O     O_3   0.690380 0.741141 0.335927 -0.507956
O10   O     O_2   0.595949 0.681404 0.910211 -0.243691
O11   O     O_2   0.353405 0.703918 0.953266 -0.252451
O12   O     O_R   0.617100 0.678080 0.500010 -0.442523
O13   O     O_3   0.538288 0.782569 0.044739 -0.474774
O14   O     O_2   0.484446 0.206367 0.969397 -0.448984
O15   O     O_R   0.369350 0.500000 0.613580 -0.531663
O16   O     O_R   0.603500 0.500040 0.613610 -0.449497
O17   O     O_R   0.382900 0.321920 0.499990 -0.469957
O18   O     O_R   0.617040 0.321960 0.500010 -0.526433
O19   O     O_R   0.396500 0.499960 0.386390 -0.445848
O20   O     O_R   0.630650 0.500000 0.386420 -0.444109
O21   O     O_2   0.743771 0.713132 0.620698 -0.240792
S1    S     S_3+6 0.868181 0.638465 0.635132 0.045359
S2    S     S_3+6 0.297509 0.330600 0.269198 0.057111
S3    S     S_3+6 0.756052 0.651593 0.263508 0.058818
S4    S     S_3+6 0.495221 0.675915 0.978777 0.045267

loop_
_geom_bond_atom_site_label_1
_geom_bond_atom_site_label_2
_ccdc_geom_bond_type
C12   C17   A    
H8    O9    S    
C19   C23   A    
C11   O19   A    
C18   O14   D    
C6    C7    D    
Cu2   O18   S    
O4    S2    D    
C7    H15   S    
C17   H2    S    
Cu1   O17   S    
C19   C20   A    
C8    H16   S    
Cu1   O1    S    
C3    C5    D    
O9    S3    S    
C20   S2    S    
C10   O17   A    
C3    C6    S    
C2    C21   A    
C23   C25   S    
C1    O1    A    
Cu1   O15   S    
C3    H12   S    
C5    C10   S    
O10   S4    D    
C25   S4    S    
O2    S1    D    
C13   C14   A    
C24   C25   D    
C4    O16   A    
O11   S4    D    
Cu1   Cu2   S    
C16   C17   A    
Cu2   O16   S    
C21   S3    S    
C18   C24   S    
C2    C11   S    
O3    S1    S    
C11   O20   A    
C9    N2    D    
C1    O12   A    
C12   H4    S    
C9    S1    S    
C8    N1    D    
C10   O18   A    
O5    S2    D    
O13   S4    S    
C2    C20   A    
C15   C16   A    
C22   H11   S    
C4    O15   A    
C15   H5    S    
Cu2   O20   S    
C12   C13   A    
H7    O6    S    
C16   C24   S    
H18   N2    S    
C5    H13   S    
Cu2   N2    S    
C4    C13   S    
Cu1   N1    S    
C14   C15   A    
O21   S1    D    
C1    C7    S    
Cu2   O12   S    
H17   N1    S    
C14   H1    S    
H6    O3    S    
C21   C22   A    
C19   H3    S    
C18   H10   S    
C22   C23   A    
O8    S3    D    
O7    S3    D    
O6    S2    S    
C8    C9    S    
H9    O13   S    
C6    H14   S    
Cu1   O19   S    
