data_mof_unit_27814.cif
_audit_creation_date              2012-12-11T18:37:15-0500
_audit_creation_method            fapswitch 2.2
_symmetry_space_group_name_H-M    P1
_symmetry_Int_Tables_number       1
_space_group_crystal_system       triclinic
_cell_length_a                    8.241796
_cell_length_b                    14.304989
_cell_length_c                    27.027501
_cell_angle_alpha                 93.397
_cell_angle_beta                  92.567346
_cell_angle_gamma                 88.638766
_cell_volume                      3177.00676365

loop_
_atom_site_label
_atom_site_type_symbol
_atom_type_description
_atom_site_fract_x
_atom_site_fract_y
_atom_site_fract_z
_atom_type_partial_charge
Ba1   Ba    Ba6+2 0.849670 0.455410 0.524690 1.633223
Ba2   Ba    Ba6+2 0.340150 0.544510 0.475310 1.647906
C1    C     C_3   0.455231 0.183684 0.700806 -0.359315
C2    C     C_R   0.005292 0.601548 0.185181 0.595294
C3    C     C_2   0.788761 0.577690 0.272292 -0.091155
C4    C     C_3   0.046510 0.253984 0.663154 0.306051
C5    C     C_3   0.762733 0.602014 0.326648 -0.070591
C6    C     C_1   0.983389 0.489214 0.345424 0.059688
C7    C     C_2   0.021933 0.479327 0.297943 -0.082497
C8    C     C_2   0.919209 0.524752 0.258435 0.226973
C9    C     C_R   0.048948 0.514703 0.106087 -0.079296
C10   C     C_R   0.012074 0.431743 0.128603 -0.034064
C11   C     C_R   0.015289 0.347008 0.099898 -0.061428
C12   C     C_3   0.538834 0.233455 0.660887 0.370068
C13   C     C_R   0.046275 0.599966 0.134885 -0.030735
C14   C     C_2   0.862833 0.543590 0.361631 -0.267788
C15   C     C_2   0.333555 0.476970 0.644939 -0.281157
C16   C     C_3   0.012690 0.224665 0.714885 -0.309460
C17   C     C_R   0.122704 0.424609 0.974306 0.019396
C18   C     C_R   0.167972 0.594833 0.981988 0.020221
C19   C     C_R   0.163362 0.508906 0.952699 0.049586
C20   C     C_R   0.117852 0.341402 0.943143 -0.099595
C21   C     C_R   0.152905 0.340804 0.893119 -0.063713
C22   C     C_R   0.194332 0.423026 0.871471 -0.030456
C23   C     C_3   0.524512 0.690673 0.623001 0.294103
C24   C     C_R   0.199911 0.507310 0.901200 -0.079333
C25   C     C_R   0.242884 0.589948 0.879457 -0.034126
C26   C     C_R   0.278044 0.587446 0.828546 0.582118
C27   C     C_R   0.229817 0.422675 0.820613 0.587762
C28   C     C_3   0.195178 0.246886 0.401348 0.335403
C29   C     C_2   0.448426 0.475971 0.731090 -0.096265
C30   C     C_3   0.486339 0.484904 0.677277 -0.056227
C31   C     C_1   0.205036 0.524998 0.660090 0.057438
C32   C     C_2   0.172860 0.535555 0.708736 -0.009946
C33   C     C_2   0.300240 0.503550 0.746773 0.238505
C34   C     C_3   0.509473 0.725954 0.676874 -0.372244
C35   C     C_R   0.087730 0.426188 0.025873 0.019911
C36   C     C_R   0.088254 0.512564 0.054793 0.049934
C37   C     C_R   0.127248 0.596963 0.033004 0.019971
C38   C     C_R   0.052005 0.344115 0.049904 -0.099144
C39   C     C_R   0.083661 0.682436 0.112845 -0.063350
C40   C     C_3   0.185847 0.147904 0.375474 -0.065502
C41   C     C_R   0.213859 0.676062 0.958937 -0.100211
C42   C     C_R   0.250190 0.673490 0.909038 -0.062168
C43   C     C_R   0.122956 0.681181 0.063273 -0.100318
C44   C     C_R   0.691187 0.064904 0.472506 -0.041823
C45   C     C_3   0.014599 0.814193 0.336672 0.296144
C46   C     C_R   0.507831 0.197382 0.499547 0.032698
C47   C     C_R   0.367675 0.228031 0.523023 -0.286043
C48   C     C_R   0.267614 0.164880 0.543105 0.041116
C49   C     C_R   0.312420 0.070303 0.543128 -0.149936
C50   C     C_R   0.456684 0.038176 0.521258 -0.007560
C51   C     C_R   0.554109 0.100994 0.497704 -0.027768
C52   C     C_3   0.030374 0.740284 0.573435 0.301497
C53   C     C_R   0.639034 0.907914 0.497397 -0.022265
C54   C     C_R   0.735244 0.969481 0.472658 0.006755
C55   C     C_R   0.682769 0.811937 0.496517 0.031481
C56   C     C_3   0.049196 0.848148 0.286087 -0.304903
C57   C     C_R   0.815946 0.778075 0.470528 -0.276746
C58   C     C_R   0.918117 0.839058 0.449551 -0.007944
C59   C     C_R   0.877163 0.934896 0.449765 -0.145789
C60   C     C_R   0.502029 0.943698 0.522079 -0.034617
C61   C     C_3   0.024486 0.846187 0.583272 -0.383098
C62   C     C_3   0.658200 0.344842 0.380943 0.282429
C63   C     C_3   0.673736 0.322698 0.325594 -0.364683
C64   C     C_3   0.630342 0.161679 0.627854 -0.310394
C65   C     C_3   0.243217 0.147583 0.322202 -0.362397
C66   C     C_3   0.283178 0.075333 0.404179 -0.468936
C67   C     C_3   0.535392 0.793537 0.349230 0.425452
C68   C     C_3   0.040019 0.601651 0.727279 -0.297647
C69   C     C_3   0.510509 0.881576 0.320675 -0.370362
C70   C     C_R   0.971775 0.435365 0.179280 0.590531
H1    H     H_    0.056620 0.126406 0.373690 0.117985
H2    H     H_    0.774005 0.270758 0.319174 0.139292
H3    H     H_    0.699480 0.387294 0.306921 0.077299
H4    H     H_    0.558412 0.293902 0.309062 0.116240
H5    H     H_    0.442141 0.268562 0.638067 -0.029775
H6    H     H_    0.363960 0.134402 0.683628 0.098902
H7    H     H_    0.401325 0.673444 0.607417 0.025957
H8    H     H_    0.604185 0.626906 0.621476 0.036038
H9    H     H_    0.437258 0.792531 0.678783 0.135412
H10   H     H_    0.447090 0.674088 0.697748 0.083102
H11   H     H_    0.632023 0.738232 0.694516 0.120735
H12   H     H_    0.909080 0.715564 0.560802 0.006481
H13   H     H_    0.393304 0.236407 0.725606 0.151647
H14   H     H_    0.982201 0.287607 0.738951 0.145528
H15   H     H_    0.971515 0.741306 0.331854 0.034550
H16   H     H_    0.918547 0.861421 0.352318 -0.027692
H17   H     H_    0.149233 0.805447 0.269409 0.179878
H18   H     H_    0.938287 0.842309 0.261312 0.109519
H19   H     H_    0.084870 0.922662 0.289841 0.076742
H20   H     H_    0.668767 0.781542 0.354119 -0.141269
H21   H     H_    0.484443 0.805996 0.386474 0.080952
H22   H     H_    0.571191 0.941248 0.341524 0.064348
H23   H     H_    0.117907 0.722624 0.544239 0.079681
H24   H     H_    0.379462 0.899053 0.315640 0.137818
H25   H     H_    0.939826 0.294171 0.649507 0.130234
H26   H     H_    0.563895 0.870841 0.283709 0.110547
H27   H     H_    0.129686 0.439177 0.287367 0.099888
H28   H     H_    0.988588 0.281847 0.116038 0.118450
H29   H     H_    0.543662 0.455599 0.757643 0.090988
H30   H     H_    0.146784 0.274908 0.871238 0.116537
H31   H     H_    0.085786 0.274825 0.956015 0.067557
H32   H     H_    0.052121 0.275550 0.031260 0.066973
H33   H     H_    0.714209 0.613006 0.244672 0.090304
H34   H     H_    0.928980 0.866280 0.609847 0.135045
H35   H     H_    0.082097 0.749231 0.133972 0.115554
H36   H     H_    0.224545 0.743555 0.978414 0.067241
H37   H     H_    0.155520 0.298598 0.665382 -0.007685
H38   H     H_    0.284029 0.738087 0.893591 0.120459
H39   H     H_    0.147579 0.748463 0.049841 0.066892
H40   H     H_    0.849429 0.558765 0.401064 0.079567
H41   H     H_    0.322182 0.423110 0.615001 0.059747
H42   H     H_    0.332279 0.301429 0.523819 0.075796
H43   H     H_    0.235068 0.022196 0.560063 0.079939
H44   H     H_    0.956472 0.982039 0.432908 0.062004
H45   H     H_    0.997271 0.881517 0.548437 0.068631
H46   H     H_    0.848086 0.704255 0.470251 0.056631
H47   H     H_    0.764644 0.109630 0.452272 0.102605
H48   H     H_    0.908611 0.176832 0.713514 0.118845
H49   H     H_    0.427084 0.898712 0.541715 0.099624
H50   H     H_    0.120086 0.188022 0.731388 0.124088
H51   H     H_    0.318525 0.274497 0.398855 0.031730
H52   H     H_    0.163921 0.244565 0.440774 -0.018776
H53   H     H_    0.677345 0.196013 0.595925 0.139739
H54   H     H_    0.733692 0.129359 0.648745 0.124193
H55   H     H_    0.548813 0.104805 0.613945 0.064534
H56   H     H_    0.143894 0.870521 0.599123 0.116552
H57   H     H_    0.372790 0.167158 0.322240 0.123504
H58   H     H_    0.169082 0.197777 0.300382 0.147602
H59   H     H_    0.230108 0.076800 0.303452 0.110312
H60   H     H_    0.266209 0.004356 0.386034 0.162604
H61   H     H_    0.414282 0.091307 0.405305 0.132924
H62   H     H_    0.238783 0.074359 0.442182 0.117153
H63   H     H_    0.997303 0.579725 0.763086 0.102650
H64   H     H_    0.087920 0.673558 0.732705 0.130666
H65   H     H_    0.931705 0.603690 0.701843 0.139583
H66   H     H_    0.774607 0.371662 0.397112 0.032169
H67   H     H_    0.562248 0.399594 0.386062 0.086100
H68   H     H_    0.545614 0.144026 0.723558 0.121843
N1    N     N_R   0.966810 0.520011 0.206872 -0.423068
N2    N     N_R   0.267875 0.504693 0.799462 -0.424307
O1    O     O_2   0.918080 0.549800 0.616640 -0.460468
O2    O     O_2   0.253123 0.833698 0.459209 -0.492806
O3    O     O_3   0.157694 0.817109 0.366783 -0.584324
O4    O     O_3   0.150070 0.549720 0.556460 -0.488335
O5    O     O_3   0.546340 0.387390 0.478340 -0.490083
O6    O     O_2   0.398940 0.728800 0.517420 -0.469203
O7    O     O_3   0.592677 0.761249 0.597330 -0.645498
O8    O     O_2   0.438898 0.533700 0.321690 -0.482535
O9    O     O_3   0.456591 0.717711 0.323233 -0.564530
O10   O     O_2   0.939134 0.363382 0.198551 -0.601255
O11   O     O_2   0.227274 0.349217 0.795197 -0.628219
O12   O     O_3   0.618012 0.263010 0.403216 -0.651308
O13   O     O_2   0.004513 0.675875 0.209832 -0.622584
O14   O     O_2   0.317948 0.658963 0.810115 -0.601610
O15   O     O_3   0.658250 0.379560 0.591530 -0.480032
O16   O     O_2   0.814634 0.441608 0.674770 -0.497969
O17   O     O_3   0.077632 0.699709 0.617672 -0.638484
O18   O     O_3   0.650375 0.295905 0.684878 -0.603189
O19   O     O_2   0.790750 0.271170 0.482550 -0.448878
O20   O     O_3   0.062300 0.331660 0.568480 -0.495602
O21   O     O_2   0.931327 0.164810 0.542737 -0.488324
O22   O     O_3   0.070852 0.174392 0.631451 -0.624596
O23   O     O_2   0.271610 0.450170 0.383330 -0.477039
O24   O     O_3   0.039630 0.450200 0.443530 -0.479799
O25   O     O_3   0.531440 0.620360 0.408460 -0.473117
O26   O     O_3   0.079223 0.302244 0.376995 -0.656039
O27   O     O_3   0.643350 0.612530 0.521650 -0.473211
O28   O     O_3   0.127390 0.668260 0.431510 -0.464505
P1    P     P_3+3 0.090020 0.577590 0.608380 0.980744
P2    P     P_3+3 0.614340 0.285150 0.467650 0.965058
P3    P     P_3+3 0.080736 0.209328 0.570569 0.933652
P4    P     P_3+3 0.099670 0.422330 0.391610 0.986524
P5    P     P_3+3 0.112011 0.790368 0.426832 0.950583
P6    P     P_3+3 0.648873 0.402236 0.655922 0.939165
P7    P     P_3+3 0.583412 0.729512 0.533794 0.937922
P8    P     P_3+3 0.546138 0.614334 0.344106 0.977692

loop_
_geom_bond_atom_site_label_1
_geom_bond_atom_site_label_2
_ccdc_geom_bond_type
C40   C66   S    
C53   C54   A    
C45   O3    S    
O6    P7    D    
C1    H13   S    
C23   H8    S    
C66   H62   S    
C19   C24   A    
C52   H12   S    
C15   H41   S    
O20   P3    S    
C3    H33   S    
C50   C51   A    
O26   P4    S    
C30   P6    S    
C24   C25   A    
C16   H14   S    
C63   H4    S    
O17   P1    S    
C48   P3    S    
C29   H29   S    
C66   H61   S    
C17   C19   A    
C22   C24   A    
C32   C33   S    
C35   C38   A    
C67   H21   S    
C36   C37   A    
C61   H45   S    
C6    P4    S    
C55   C57   A    
C21   H30   S    
C52   C61   S    
C34   H11   S    
Ba2   O6    S    
C53   C60   A    
C62   O12   S    
C64   H55   S    
C44   C51   A    
C23   O7    S    
Ba1   Ba2   S    
C12   H5    S    
Ba2   O4    S    
C66   H60   S    
C22   C27   A    
C11   C38   A    
C17   C35   A    
C52   O17   S    
C46   P2    S    
O19   P2    D    
C9    C13   A    
C25   C42   A    
O3    P5    S    
C34   H10   S    
C6    C7    D    
C70   O10   D    
C21   C22   A    
C67   H20   S    
C7    C8    S    
Ba2   O24   S    
C61   H56   S    
O8    P8    D    
C47   H42   S    
C10   C70   A    
Ba1   O19   S    
C57   C58   A    
C6    C14   D    
O4    P1    S    
C68   H64   S    
O18   P6    S    
Ba1   O4    S    
C65   H57   S    
C15   C31   D    
O27   P7    S    
C31   C32   D    
O28   P5    S    
C70   N1    Am   
C4    C16   S    
C69   H26   S    
O24   P4    S    
C67   C69   S    
C49   C50   A    
C67   O9    S    
C4    H25   S    
C17   C20   A    
C13   C39   A    
C2    N1    Am   
C3    C5    S    
C18   C37   A    
O9    P8    S    
C62   H66   S    
C69   H24   S    
C33   N2    S    
O23   P4    D    
Ba1   P1    S    
C49   H43   S    
C20   H31   S    
C64   H54   S    
C5    P8    S    
C12   O18   S    
C58   C59   A    
C8    N1    S    
C45   H15   S    
C9    C36   A    
C41   C42   A    
C35   C36   A    
Ba1   O1    S    
C38   H32   S    
C29   C30   S    
C34   H9    S    
C2    O13   D    
C59   H44   S    
O7    P7    S    
C48   C49   A    
C12   C64   S    
O12   P2    S    
O22   P3    S    
C54   C59   A    
C10   C11   A    
C61   H34   S    
C28   H51   S    
C56   H18   S    
Ba2   O23   S    
C52   H23   S    
C1    C12   S    
C16   H50   S    
O16   P6    D    
C46   C47   A    
Ba2   O28   S    
Ba1   O20   S    
C57   H46   S    
C53   C55   A    
C40   C65   S    
C4    H37   S    
C29   C33   D    
Ba1   O5    S    
C65   H58   S    
C26   N2    Am   
O21   P3    D    
C16   H48   S    
C18   C41   A    
O5    P2    S    
C14   H40   S    
C27   O11   D    
C56   H19   S    
C15   C30   S    
C32   C68   S    
C5    C14   S    
C40   H1    S    
C39   H35   S    
C23   C34   S    
C23   H7    S    
C65   H59   S    
C4    O22   S    
O15   P6    S    
C9    C10   A    
C43   H39   S    
C46   C51   A    
C28   H52   S    
Ba1   P2    S    
C63   H3    S    
C64   H53   S    
C37   C43   A    
C45   H16   S    
C11   H28   S    
Ba1   O15   S    
Ba2   O5    S    
O1    P1    D    
C3    C8    D    
C50   C60   A    
C62   C63   S    
C45   C56   S    
C55   P7    S    
C68   H63   S    
Ba1   O24   S    
C2    C13   A    
C27   N2    Am   
O2    P5    D    
Ba1   O27   S    
C44   H47   S    
C41   H36   S    
C56   H17   S    
C63   H2    S    
Ba2   O27   S    
C28   O26   S    
O25   P8    S    
C18   C19   A    
C68   H65   S    
C7    H27   S    
C47   C48   A    
C44   C54   A    
C25   C26   A    
C26   O14   D    
C58   P5    S    
C39   C43   A    
C20   C21   A    
C28   C40   S    
C69   H22   S    
C1    H68   S    
C1    H6    S    
Ba2   O25   S    
C60   H49   S    
Ba2   P4    S    
C42   H38   S    
C62   H67   S    
C31   P1    S    
