data_mof_unit_36576.cif
_audit_creation_date              2012-12-11T14:35:53-0500
_audit_creation_method            fapswitch 2.2
_symmetry_space_group_name_H-M    P1
_symmetry_Int_Tables_number       1
_space_group_crystal_system       triclinic
_cell_length_a                    14.397409
_cell_length_b                    16.314698
_cell_length_c                    7.072335
_cell_angle_alpha                 90.000047
_cell_angle_beta                  82.149805
_cell_angle_gamma                 90.0
_cell_volume                      1645.64839937

loop_
_atom_site_label
_atom_site_type_symbol
_atom_type_description
_atom_site_fract_x
_atom_site_fract_y
_atom_site_fract_z
_atom_type_partial_charge
O1    O     O_R   0.337460 0.413110 0.524760 -0.505828
O2    O     O_R   0.662540 0.913110 0.475240 -0.505829
O3    O     O_R   0.348690 0.587910 0.191230 -0.550874
O4    O     O_R   0.651310 0.087910 0.808770 -0.550874
O5    O     O_R   0.166530 0.586890 0.082470 -0.512385
O6    O     O_R   0.833470 0.086890 0.917530 -0.512383
C1    C     C_R   0.367345 0.618020 0.357146 0.735190
C2    C     C_R   0.632655 0.118020 0.642854 0.735190
O7    O     O_R   0.348700 0.413830 0.191250 -0.530052
O8    O     O_R   0.651300 0.913830 0.808750 -0.530053
O9    O     O_R   0.166530 0.411570 0.082490 -0.545475
O10   O     O_R   0.833470 0.911570 0.917510 -0.545473
C3    C     C_R   0.371925 0.387584 0.355270 0.805484
C4    C     C_R   0.628075 0.887584 0.644730 0.805484
O11   O     O_R   0.337460 0.588430 0.524740 -0.535581
O12   O     O_R   0.662540 0.088430 0.475260 -0.535581
O13   O     O_3   0.192230 0.499460 0.407330 -0.377269
O14   O     O_3   0.807770 0.999460 0.592670 -0.377267
V1    V     V_3+5 0.263080 0.500100 0.108540 1.495040
V2    V     V_3+5 0.736920 0.000100 0.891460 1.495043
O15   O     O_R   0.155290 0.412090 0.756570 -0.546162
O16   O     O_R   0.844710 0.912090 0.243430 -0.546163
C5    C     C_R   0.130641 0.385590 0.932159 0.691468
C6    C     C_R   0.869359 0.885590 0.067841 0.691466
O17   O     O_R   0.155290 0.586170 0.756550 -0.563049
O18   O     O_R   0.844710 0.086170 0.243450 -0.563050
C7    C     C_R   0.136786 0.618398 0.928377 0.700576
C8    C     C_R   0.863214 0.118399 0.071624 0.700577
V3    V     V_3+5 0.240910 0.499900 0.616030 1.468658
V4    V     V_3+5 0.759090 0.999900 0.383970 1.468658
O19   O     O_3   0.311760 0.500540 0.867100 -0.346145
O20   O     O_3   0.688240 0.000540 0.132900 -0.346146
C9    C     C_3   0.106711 0.766954 0.072618 -0.008486
C10   C     C_3   0.893288 0.266954 0.927384 -0.008487
H1    H     H_    0.151058 0.808081 0.977917 0.164609
H2    H     H_    0.848941 0.308080 0.022086 0.164609
C11   C     C_3   0.026136 0.826746 0.153586 -0.321343
C12   C     C_3   0.973863 0.326746 0.846416 -0.321346
H3    H     H_    0.052237 0.891060 0.148423 0.135567
H4    H     H_    0.947762 0.391060 0.851580 0.135567
H5    H     H_    0.000894 0.814386 0.305185 0.165102
H6    H     H_    0.999104 0.314386 0.694816 0.165102
H7    H     H_    0.863285 0.735602 0.234167 0.196762
H8    H     H_    0.136713 0.235603 0.765830 0.196762
C13   C     C_3   0.969743 0.663504 0.051277 0.224088
C14   C     C_3   0.030256 0.163504 0.948722 0.224088
C15   C     C_3   0.051245 0.738153 0.762348 0.203373
C16   C     C_3   0.948755 0.238152 0.237652 0.203373
C17   C     C_3   0.068986 0.693839 0.954803 0.032041
C18   C     C_3   0.931014 0.193839 0.045197 0.032040
C19   C     C_3   0.944191 0.818255 0.031228 -0.025976
C20   C     C_3   0.055808 0.318255 0.968772 -0.025974
C21   C     C_3   0.897360 0.734441 0.083117 -0.393549
C22   C     C_3   0.102639 0.234442 0.916880 -0.393550
C23   C     C_3   0.987127 0.817405 0.813567 -0.027161
C24   C     C_3   0.012874 0.317405 0.186433 -0.027162
H9    H     H_    0.926929 0.814439 0.730141 0.151223
H10   H     H_    0.073072 0.314439 0.269858 0.151222
H11   H     H_    0.942855 0.616908 0.958584 0.111992
H12   H     H_    0.057145 0.116908 0.041414 0.111992
H13   H     H_    0.840327 0.723824 0.994448 0.121616
H14   H     H_    0.159673 0.223824 0.005548 0.121617
C25   C     C_2   0.429624 0.690498 0.360363 -0.277399
C26   C     C_2   0.570375 0.190498 0.639637 -0.277399
C27   C     C_2   0.443203 0.732619 0.522834 0.121384
C28   C     C_2   0.556797 0.232619 0.477167 0.121385
H15   H     H_    0.557967 0.778808 0.770750 0.121744
H16   H     H_    0.442034 0.278808 0.229249 0.121746
C29   C     C_2   0.560796 0.819701 0.648975 -0.368852
C30   C     C_2   0.439205 0.319701 0.351025 -0.368853
C31   C     C_2   0.507276 0.804360 0.508365 0.385893
C32   C     C_2   0.492724 0.304360 0.491636 0.385893
H17   H     H_    0.465841 0.710498 0.223311 0.146942
H18   H     H_    0.534158 0.210497 0.776689 0.146942
C33   C     C_3   0.179678 0.744935 0.198609 -0.800874
H19   H     H_    0.149245 0.698925 0.302486 0.274723
H20   H     H_    0.242617 0.718308 0.111976 0.206862
H21   H     H_    0.207317 0.801141 0.259303 0.218796
C34   C     C_3   0.820320 0.244936 0.801394 -0.800875
H22   H     H_    0.850753 0.198925 0.697516 0.274723
H23   H     H_    0.757382 0.218308 0.888028 0.206862
H24   H     H_    0.792680 0.301141 0.740701 0.218796
Cl1   Cl    Cl    0.503150 0.871684 0.312620 -0.652820
Cl2   Cl    Cl    0.496848 0.371683 0.687383 -0.652820
C35   C     C_3   0.394499 0.711178 0.721824 -0.708939
H25   H     H_    0.402529 0.759892 0.827816 0.189484
H26   H     H_    0.318070 0.705552 0.724096 0.199782
H27   H     H_    0.423772 0.653475 0.772363 0.227609
C36   C     C_3   0.605503 0.211179 0.278177 -0.708942
H28   H     H_    0.597474 0.259894 0.172186 0.189484
H29   H     H_    0.681932 0.205554 0.275907 0.199781
H30   H     H_    0.576231 0.153476 0.227635 0.227609
Cl3   Cl    Cl    0.969463 0.604478 0.260690 -0.765894
Cl4   Cl    Cl    0.030536 0.104478 0.739310 -0.765892
C37   C     C_3   0.997326 0.683144 0.636349 -0.713419
H31   H     H_    0.922647 0.673806 0.694701 0.184194
H32   H     H_    0.994652 0.715424 0.501331 0.252696
H33   H     H_    0.029873 0.622611 0.605330 0.269845
C38   C     C_3   0.002675 0.183144 0.363651 -0.713419
H34   H     H_    0.077353 0.173806 0.305297 0.184193
H35   H     H_    0.005350 0.215424 0.498668 0.252696
H36   H     H_    0.970127 0.122611 0.394670 0.269846
C39   C     C_3   0.145183 0.760937 0.638109 -0.772718
H37   H     H_    0.184190 0.706442 0.580195 0.222970
H38   H     H_    0.126832 0.799886 0.523384 0.230520
H39   H     H_    0.196916 0.797974 0.701050 0.186770
C40   C     C_3   0.854818 0.260937 0.361893 -0.772710
H40   H     H_    0.815810 0.206442 0.419804 0.222968
H41   H     H_    0.873170 0.299885 0.476622 0.230518
H42   H     H_    0.803085 0.297977 0.298955 0.186772
C41   C     C_3   0.034138 0.900877 0.752549 -0.678608
H43   H     H_    0.039794 0.909348 0.595627 0.213047
H44   H     H_    0.991386 0.952118 0.816288 0.255518
H45   H     H_    0.103972 0.908561 0.798812 0.217287
C42   C     C_3   0.965863 0.400876 0.247456 -0.678610
H46   H     H_    0.960201 0.409344 0.404380 0.213042
H47   H     H_    0.008620 0.452118 0.183733 0.255524
H48   H     H_    0.896033 0.408563 0.201179 0.217289

loop_
_geom_bond_atom_site_label_1
_geom_bond_atom_site_label_2
_ccdc_geom_bond_type
V4    O20   S    
C25   C27   D    
O13   V3    S    
C41   H43   S    
O4    C2    A    
C13   Cl3   S    
C37   H33   S    
C15   C17   S    
C35   H25   S    
O9    V1    S    
C40   H42   S    
O7    V1    S    
C12   H6    S    
O3    C1    A    
C11   C19   S    
C16   C40   S    
C12   C20   S    
C3    C30   S    
C9    C17   S    
C42   H46   S    
C29   C31   D    
O7    C3    A    
O13   V1    S    
O5    C7    A    
C8    C18   S    
H7    C21   S    
O6    C8    A    
C37   H31   S    
C20   C22   S    
C42   H47   S    
C40   H40   S    
O3    V1    S    
O14   V4    S    
C36   H29   S    
C19   C23   S    
C14   H12   S    
C6    C19   S    
C16   C18   S    
V1    O19   S    
C2    O12   A    
C40   H41   S    
O10   V2    S    
C41   H45   S    
C21   H13   S    
C9    C33   S    
O11   V3    S    
C28   C36   S    
C31   Cl1   S    
C35   H26   S    
O17   V3    S    
C28   C32   S    
C10   C18   S    
C15   C39   S    
C7    C17   S    
C41   H44   S    
O8    C4    A    
O8    V2    S    
C34   H23   S    
C1    O11   A    
C25   H17   S    
C27   C31   S    
O15   V3    S    
C9    C11   S    
H15   C29   S    
C26   C28   D    
C33   H19   S    
C10   C34   S    
C38   H34   S    
C14   Cl4   S    
C13   C17   S    
C42   H48   S    
C14   C22   S    
O1    V3    S    
C39   H38   S    
C36   H30   S    
C33   H20   S    
C1    C25   S    
C32   Cl2   S    
C2    C26   S    
H16   C30   S    
C38   H35   S    
O18   V4    S    
O15   C5    A    
C4    C29   S    
O16   C6    A    
O1    C3    A    
O6    V2    S    
C15   C23   S    
V2    O20   S    
C35   H27   S    
C16   C24   S    
C16   C38   S    
C14   C18   S    
C13   H11   S    
C15   C37   S    
O16   V4    S    
C23   C41   S    
C10   C12   S    
C34   H24   S    
C37   H32   S    
C27   C35   S    
O5    V1    S    
O17   C7    A    
C22   H14   S    
O10   C6    A    
O18   C8    A    
O2    V4    S    
C23   H9    S    
C11   H3    S    
C12   H4    S    
C5    C20   S    
O9    C5    A    
C9    H1    S    
C24   C42   S    
C24   H10   S    
C39   H39   S    
O14   V2    S    
C11   H5    S    
O2    C4    A    
C33   H21   S    
C13   C21   S    
C34   H22   S    
O4    V2    S    
H8    C22   S    
C38   H36   S    
C10   H2    S    
V3    O19   S    
C39   H37   S    
C26   H18   S    
C30   C32   D    
C19   C21   S    
C36   H28   S    
O12   V4    S    
C20   C24   S    
