data_mof_unit_65950.cif
_audit_creation_date              2012-12-10T16:50:26-0500
_audit_creation_method            fapswitch 2.2
_symmetry_space_group_name_H-M    P1
_symmetry_Int_Tables_number       1
_space_group_crystal_system       triclinic
_cell_length_a                    26.26023
_cell_length_b                    26.232772
_cell_length_c                    22.3668
_cell_angle_alpha                 89.999709
_cell_angle_beta                  53.771557
_cell_angle_gamma                 89.999581
_cell_volume                      12429.133909

loop_
_atom_site_label
_atom_site_type_symbol
_atom_type_description
_atom_site_fract_x
_atom_site_fract_y
_atom_site_fract_z
_atom_type_partial_charge
C1    C     C_R   0.650521 0.749997 0.698946 0.828554
C2    C     C_R   0.650520 0.250003 0.698945 0.830567
C3    C     C_R   0.150520 0.249998 0.698945 0.830938
C4    C     C_R   0.150521 0.750003 0.698946 0.828422
C5    C     C_2   0.943876 0.748461 0.500695 -0.387089
C6    C     C_2   0.945365 0.249538 0.497740 -0.382853
C7    C     C_2   0.445367 0.250462 0.497737 -0.382730
C8    C     C_2   0.443876 0.751538 0.500694 -0.387042
C9    C     C_3   0.034736 0.748950 0.043301 0.250673
C10   C     C_3   0.034696 0.251675 0.043291 0.247931
C11   C     C_3   0.534718 0.250462 0.043294 0.247645
C12   C     C_3   0.534735 0.750987 0.043302 0.250706
C13   C     C_3   0.951923 0.800398 0.042926 0.237839
C14   C     C_3   0.952448 0.199322 0.042917 0.239762
C15   C     C_3   0.450534 0.299638 0.042933 0.239840
C16   C     C_3   0.451865 0.699632 0.042927 0.237742
C17   C     C_3   0.998284 0.800247 0.955852 -0.343309
C18   C     C_3   0.998795 0.199507 0.955841 -0.343192
C19   C     C_3   0.496889 0.299564 0.955858 -0.343221
C20   C     C_3   0.498228 0.699778 0.955853 -0.343174
C21   C     C_1   0.110986 0.750219 0.778159 -0.091769
C22   C     C_1   0.110976 0.249787 0.778156 -0.091284
C23   C     C_1   0.610977 0.250217 0.778155 -0.091248
C24   C     C_1   0.610986 0.749781 0.778159 -0.091680
C25   C     C_3   0.963698 0.750971 0.073441 0.046099
C26   C     C_3   0.963682 0.249040 0.073434 0.049325
C27   C     C_3   0.463646 0.250962 0.073433 0.049395
C28   C     C_3   0.463695 0.749028 0.073441 0.046080
C29   C     C_3   0.078250 0.746223 0.956760 -0.246597
C30   C     C_3   0.078181 0.254383 0.956751 -0.244296
C31   C     C_3   0.578312 0.247769 0.956753 -0.244178
C32   C     C_3   0.578253 0.753714 0.956762 -0.246597
C33   C     C_3   0.037674 0.750280 0.926575 0.044537
C34   C     C_3   0.037650 0.249734 0.926569 0.044169
C35   C     C_3   0.537647 0.250297 0.926569 0.044242
C36   C     C_3   0.537674 0.749718 0.926576 0.044467
C37   C     C_3   0.989714 0.704865 0.957610 -0.170197
C38   C     C_3   0.989207 0.294802 0.957605 -0.170347
C39   C     C_3   0.490951 0.204006 0.957584 -0.170562
C40   C     C_3   0.489763 0.795169 0.957609 -0.170342
C41   C     C_3   0.949764 0.703366 0.043713 -0.498862
C42   C     C_3   0.949227 0.296327 0.043709 -0.498447
C43   C     C_3   0.451021 0.202595 0.043689 -0.498234
C44   C     C_3   0.449814 0.796666 0.043711 -0.498955
C45   C     C_R   0.849527 0.749948 0.301065 0.823270
C46   C     C_R   0.849523 0.250055 0.301064 0.816985
C47   C     C_R   0.349523 0.249945 0.301064 0.816903
C48   C     C_R   0.349527 0.750052 0.301066 0.823191
C49   C     C_1   0.077954 0.750292 0.844814 -0.054732
C50   C     C_1   0.077934 0.249717 0.844810 -0.054539
C51   C     C_1   0.577934 0.250296 0.844809 -0.054547
C52   C     C_1   0.577954 0.749707 0.844814 -0.054678
C53   C     C_1   0.922779 0.750323 0.155211 0.015888
C54   C     C_1   0.922762 0.249688 0.155205 0.013777
C55   C     C_1   0.422747 0.250311 0.155205 0.013823
C56   C     C_1   0.422777 0.749677 0.155211 0.015810
C57   C     C_1   0.889350 0.750016 0.221866 -0.054335
C58   C     C_1   0.889338 0.249993 0.221862 -0.060170
C59   C     C_1   0.389334 0.250005 0.221861 -0.060033
C60   C     C_1   0.389349 0.749985 0.221866 -0.054483
C61   C     C_2   0.740657 0.028060 0.458581 -0.131323
C62   C     C_2   0.742576 0.971941 0.456948 -0.132895
C63   C     C_2   0.242579 0.528059 0.456946 -0.132808
C64   C     C_2   0.240656 0.471941 0.458581 -0.131065
C65   C     C_2   0.752420 0.056100 0.499323 -0.281380
C66   C     C_2   0.748062 0.943900 0.503029 -0.282989
C67   C     C_2   0.248059 0.556100 0.503032 -0.283184
C68   C     C_2   0.252423 0.443900 0.499320 -0.281696
C69   C     C_2   0.800821 0.471939 0.456933 -0.126932
C70   C     C_2   0.801090 0.528058 0.458535 -0.134837
C71   C     C_2   0.300817 0.971944 0.456919 -0.136431
C72   C     C_2   0.301096 0.028062 0.458561 -0.126390
C73   C     C_2   0.748949 0.443906 0.503061 -0.290185
C74   C     C_2   0.748311 0.556090 0.499392 -0.290318
C75   C     C_2   0.248952 0.943910 0.503074 -0.289032
C76   C     C_2   0.248313 0.056092 0.499376 -0.292155
C77   C     C_R   0.749940 0.611368 0.499880 0.857669
C78   C     C_R   0.750007 0.388631 0.500266 0.861699
C79   C     C_R   0.249941 0.111368 0.499884 0.862753
C80   C     C_R   0.250006 0.888632 0.500261 0.856886
C81   C     C_R   0.749795 0.888614 0.500252 0.868127
C82   C     C_R   0.750259 0.111386 0.499858 0.866892
C83   C     C_R   0.250259 0.388614 0.499857 0.866889
C84   C     C_R   0.249795 0.611386 0.500253 0.868130
C85   C     C_R   0.611509 0.749635 0.499813 0.893983
C86   C     C_R   0.611115 0.249834 0.500596 0.893680
C87   C     C_R   0.111116 0.250165 0.500594 0.893519
C88   C     C_R   0.111509 0.750365 0.499813 0.894089
C89   C     C_R   0.889232 0.750249 0.499054 0.899015
C90   C     C_R   0.888582 0.250626 0.500346 0.898869
C91   C     C_R   0.388582 0.249373 0.500347 0.899008
C92   C     C_R   0.389232 0.749751 0.499054 0.899073
C93   C     C_2   0.052739 0.724216 0.452291 -0.189498
C94   C     C_2   0.047246 0.283186 0.463204 -0.187339
C95   C     C_2   0.547236 0.216804 0.463222 -0.187238
C96   C     C_2   0.552739 0.775783 0.452290 -0.189468
C97   C     C_2   0.057383 0.753668 0.497729 -0.361417
C98   C     C_2   0.053515 0.251542 0.505414 -0.362762
C99   C     C_2   0.553511 0.248454 0.505421 -0.362878
C100  C     C_2   0.557384 0.746332 0.497728 -0.361458
C101  C     C_2   0.000048 0.727692 0.446253 0.428792
C102  C     C_2   0.988949 0.287270 0.468298 0.433620
C103  C     C_2   0.488934 0.212719 0.468327 0.433791
C104  C     C_2   0.500049 0.772306 0.446252 0.428891
H1    H     H_    0.090337 0.697529 0.415560 0.216655
H2    H     H_    0.085629 0.308817 0.424918 0.217022
H3    H     H_    0.585616 0.191169 0.424940 0.216992
H4    H     H_    0.590338 0.802470 0.415558 0.216642
H5    H     H_    0.973069 0.804839 0.930126 0.207375
H6    H     H_    0.973623 0.194519 0.930124 0.207524
H7    H     H_    0.471556 0.303101 0.930140 0.207465
H8    H     H_    0.473010 0.695230 0.930124 0.207411
H9    H     H_    0.959184 0.668045 0.063250 0.234767
H10   H     H_    0.958242 0.331858 0.063262 0.234957
H11   H     H_    0.461377 0.167805 0.063231 0.235164
H12   H     H_    0.459273 0.831966 0.063247 0.234727
H13   H     H_    0.898785 0.701759 0.067261 0.200003
H14   H     H_    0.898235 0.297497 0.067245 0.198799
H15   H     H_    0.400104 0.199932 0.067220 0.198712
H16   H     H_    0.398838 0.798316 0.067258 0.199941
H17   H     H_    0.102104 0.708517 0.939513 0.148065
H18   H     H_    0.101648 0.292243 0.939484 0.148493
H19   H     H_    0.603214 0.210503 0.939473 0.148497
H20   H     H_    0.602149 0.791403 0.939514 0.148073
H21   H     H_    0.956766 0.711861 0.942448 0.216437
H22   H     H_    0.956345 0.287380 0.942427 0.216197
H23   H     H_    0.457837 0.209883 0.942405 0.216223
H24   H     H_    0.456808 0.788218 0.942446 0.216409
H25   H     H_    0.729758 0.046695 0.424013 0.190150
H26   H     H_    0.738582 0.953307 0.416509 0.190701
H27   H     H_    0.238590 0.546694 0.416502 0.190787
H28   H     H_    0.229754 0.453306 0.424016 0.190319
H29   H     H_    0.764992 0.039191 0.533023 0.156846
H30   H     H_    0.750574 0.960808 0.545285 0.158393
H31   H     H_    0.250562 0.539191 0.545294 0.158304
H32   H     H_    0.264999 0.460809 0.533015 0.156749
H33   H     H_    0.845514 0.453292 0.416468 0.201200
H34   H     H_    0.846773 0.546708 0.423854 0.197741
H35   H     H_    0.345498 0.953299 0.416409 0.197138
H36   H     H_    0.346785 0.046712 0.423939 0.202838
H37   H     H_    0.022706 0.782695 0.532140 0.164261
H38   H     H_    0.015162 0.227466 0.547123 0.164704
H39   H     H_    0.515158 0.272532 0.547129 0.164705
H40   H     H_    0.522706 0.717305 0.532140 0.164209
H41   H     H_    0.703907 0.460807 0.545365 0.157811
H42   H     H_    0.701815 0.539188 0.533250 0.157196
H43   H     H_    0.203927 0.960812 0.545429 0.158505
H44   H     H_    0.201815 0.039186 0.533163 0.156648
H45   H     H_    0.935917 0.763598 0.550606 0.132539
H46   H     H_    0.951795 0.215014 0.519079 0.130897
H47   H     H_    0.451815 0.284996 0.519041 0.130847
H48   H     H_    0.435917 0.736402 0.550606 0.132517
H49   H     H_    0.045535 0.783402 0.062803 0.214586
H50   H     H_    0.045869 0.217459 0.062809 0.213043
H51   H     H_    0.544567 0.285448 0.062828 0.212929
H52   H     H_    0.545495 0.716512 0.062805 0.214556
H53   H     H_    0.030511 0.833598 0.935235 0.248028
H54   H     H_    0.031373 0.166388 0.935210 0.248186
H55   H     H_    0.528186 0.333506 0.935241 0.248201
H56   H     H_    0.530416 0.666402 0.935238 0.248106
O1    O     O_3   0.750030 0.750030 0.500000 -0.511413
O2    O     O_3   0.750030 0.249970 0.500000 -0.511401
O3    O     O_3   0.250030 0.250030 0.500000 -0.511407
O4    O     O_3   0.250030 0.749970 0.500000 -0.511374
O5    O     O_R   0.801570 0.635440 0.457010 -0.631912
O6    O     O_R   0.801570 0.364560 0.457010 -0.621874
O7    O     O_R   0.301570 0.135440 0.457010 -0.622359
O8    O     O_R   0.301570 0.864560 0.457010 -0.631666
O9    O     O_R   0.758570 0.864610 0.542990 -0.636282
O10   O     O_R   0.758570 0.135390 0.542990 -0.637153
O11   O     O_R   0.258570 0.364610 0.542990 -0.637376
O12   O     O_R   0.258570 0.635390 0.542990 -0.636343
O13   O     O_R   0.638020 0.720010 0.663980 -0.630678
O14   O     O_R   0.638020 0.279990 0.663980 -0.630853
O15   O     O_R   0.138020 0.220010 0.663980 -0.630408
O16   O     O_R   0.138020 0.779990 0.663980 -0.630934
O17   O     O_R   0.801960 0.780050 0.336020 -0.639392
O18   O     O_R   0.801960 0.219950 0.336020 -0.638405
O19   O     O_R   0.301960 0.280050 0.336020 -0.637951
O20   O     O_R   0.301960 0.719950 0.336020 -0.639272
O21   O     O_R   0.698090 0.780090 0.663980 -0.634276
O22   O     O_R   0.698090 0.219910 0.663980 -0.632713
O23   O     O_R   0.198090 0.280090 0.663980 -0.633210
O24   O     O_R   0.198090 0.719910 0.663980 -0.634281
O25   O     O_R   0.862050 0.719970 0.336020 -0.601426
O26   O     O_R   0.862050 0.280030 0.336020 -0.611777
O27   O     O_R   0.362050 0.219970 0.336020 -0.611882
O28   O     O_R   0.362050 0.780030 0.336020 -0.601754
O29   O     O_R   0.698510 0.635460 0.542990 -0.641303
O30   O     O_R   0.698510 0.364540 0.542990 -0.642747
O31   O     O_R   0.198510 0.135460 0.542990 -0.642545
O32   O     O_R   0.198510 0.864540 0.542990 -0.641445
O33   O     O_R   0.741470 0.864610 0.457010 -0.635714
O34   O     O_R   0.741470 0.135390 0.457010 -0.635286
O35   O     O_R   0.241470 0.364610 0.457010 -0.635080
O36   O     O_R   0.241470 0.635390 0.457010 -0.635684
O37   O     O_R   0.613960 0.720010 0.542990 -0.639259
O38   O     O_R   0.613960 0.279990 0.542990 -0.639285
O39   O     O_R   0.113960 0.220010 0.542990 -0.639509
O40   O     O_R   0.113960 0.779990 0.542990 -0.639009
O41   O     O_R   0.843120 0.780070 0.542990 -0.649199
O42   O     O_R   0.843120 0.219930 0.542990 -0.650148
O43   O     O_R   0.343120 0.280070 0.542990 -0.650135
O44   O     O_R   0.343120 0.719930 0.542990 -0.649269
O45   O     O_R   0.656940 0.780080 0.457010 -0.638260
O46   O     O_R   0.656940 0.219920 0.457010 -0.638331
O47   O     O_R   0.156940 0.280080 0.457010 -0.638305
O48   O     O_R   0.156940 0.719920 0.457010 -0.638276
O49   O     O_R   0.886110 0.719980 0.457010 -0.575897
O50   O     O_R   0.886110 0.280020 0.457010 -0.573149
O51   O     O_R   0.386110 0.219980 0.457010 -0.573277
O52   O     O_R   0.386110 0.780020 0.457010 -0.575636
Zn1   Zn    Zn3+2 0.823660 0.707100 0.438580 1.047882
Zn2   Zn    Zn3+2 0.823660 0.292900 0.438580 1.048116
Zn3   Zn    Zn3+2 0.323660 0.207100 0.438580 1.047779
Zn4   Zn    Zn3+2 0.323660 0.792900 0.438580 1.047889
Zn5   Zn    Zn3+2 0.676410 0.707120 0.561420 0.993012
Zn6   Zn    Zn3+2 0.676410 0.292880 0.561420 0.995054
Zn7   Zn    Zn3+2 0.176410 0.207120 0.561420 0.995230
Zn8   Zn    Zn3+2 0.176410 0.792880 0.561420 0.992961
Zn9   Zn    Zn3+2 0.737810 0.792950 0.438580 0.998302
Zn10  Zn    Zn3+2 0.737810 0.207050 0.438580 0.995742
Zn11  Zn    Zn3+2 0.237810 0.292950 0.438580 0.996055
Zn12  Zn    Zn3+2 0.237810 0.707050 0.438580 0.998419
Zn13  Zn    Zn3+2 0.762240 0.792950 0.561420 0.996496
Zn14  Zn    Zn3+2 0.762240 0.207050 0.561420 0.996875
Zn15  Zn    Zn3+2 0.262240 0.292950 0.561420 0.996584
Zn16  Zn    Zn3+2 0.262240 0.707050 0.561420 0.996359
C105  C     C_2   0.021047 0.653875 0.924962 0.448986
H57   H     H_    0.051993 0.637318 0.936892 0.101459
O53   O     O_2   0.011277 0.630549 0.885428 -0.532605
C106  C     C_2   0.019999 0.345949 0.924972 0.448793
H58   H     H_    0.050757 0.362895 0.936920 0.101786
O54   O     O_2   0.009996 0.368965 0.885430 -0.532305
C107  C     C_2   0.523687 0.153448 0.924934 0.449090
H59   H     H_    0.555063 0.137913 0.936880 0.101807
O55   O     O_2   0.514587 0.129318 0.885382 -0.532064
C108  C     C_2   0.521153 0.846142 0.924959 0.449225
H60   H     H_    0.552117 0.862658 0.936890 0.101475
O56   O     O_2   0.511411 0.869500 0.885422 -0.532340
Cl1   Cl    Cl    0.051366 0.696403 0.081012 -0.566082
Cl2   Cl    Cl    0.050753 0.304626 0.080970 -0.581582
Cl3   Cl    Cl    0.552769 0.198875 0.080956 -0.581698
Cl4   Cl    Cl    0.551423 0.803494 0.081013 -0.566403
Cl5   Cl    Cl    0.015905 0.702759 0.363322 -0.506248
Cl6   Cl    Cl    0.980764 0.344624 0.433119 -0.532314
Cl7   Cl    Cl    0.480718 0.155348 0.433208 -0.533755
Cl8   Cl    Cl    0.515906 0.797237 0.363320 -0.506144
C109  C     C_2   0.131530 0.784765 0.922429 0.435143
H61   H     H_    0.178851 0.773122 0.876959 0.080344
O57   O     O_2   0.122205 0.829043 0.943257 -0.504999
C110  C     C_2   0.131855 0.216214 0.922435 0.434109
H62   H     H_    0.179054 0.228103 0.876955 0.081616
O58   O     O_2   0.122987 0.171956 0.943283 -0.505263
C111  C     C_2   0.630502 0.287303 0.922457 0.433762
H63   H     H_    0.678142 0.276351 0.876992 0.081403
O59   O     O_2   0.619937 0.331589 0.943311 -0.505069
C112  C     C_2   0.631490 0.715131 0.922432 0.435151
H64   H     H_    0.678825 0.726748 0.876967 0.080339
O60   O     O_2   0.622115 0.670851 0.943256 -0.504952
C113  C     C_2   0.882856 0.803686 0.072138 0.459547
H65   H     H_    0.847156 0.810515 0.130803 0.100870
O61   O     O_2   0.865910 0.798307 0.032086 -0.556249
C114  C     C_2   0.883416 0.195434 0.072146 0.456953
H66   H     H_    0.847796 0.188564 0.130818 0.099668
O62   O     O_2   0.866404 0.200372 0.032099 -0.558751
C115  C     C_2   0.381395 0.301452 0.072159 0.456697
H67   H     H_    0.345517 0.308091 0.130830 0.099583
O63   O     O_2   0.364601 0.295096 0.032109 -0.558917
C116  C     C_2   0.382794 0.696405 0.072140 0.459822
H68   H     H_    0.347081 0.689626 0.130814 0.100820
O64   O     O_2   0.365858 0.701776 0.032076 -0.556137
Cl9   Cl    Cl    0.966350 0.856997 0.076357 -0.557110
Cl10  Cl    Cl    0.967508 0.143066 0.076328 -0.559051
Cl11  Cl    Cl    0.463422 0.357060 0.076368 -0.558719
Cl12  Cl    Cl    0.466226 0.642997 0.076361 -0.556673

loop_
_geom_bond_atom_site_label_1
_geom_bond_atom_site_label_2
_ccdc_geom_bond_type
C24   C52   T    
C89   O41   A    
O2    Zn6   S    
C16   C28   S    
O8    Zn4   S    
O1    Zn5   S    
C39   C107  S    
C11   Cl3   S    
C55   C59   T    
C46   O18   A    
O51   Zn3   S    
C78   O30   A    
C76   C79   S    
C87   O39   A    
C90   O42   A    
C72   C76   D    
C9    Cl1   S    
C86   O46   A    
C82   O10   A    
O28   Zn4   S    
C9    C25   S    
O42   Zn14  S    
O4    Zn4   S    
C15   C19   S    
C45   C57   S    
C109  H61   S    
O16   Zn8   S    
C20   H56   S    
C12   C28   S    
C37   C41   S    
C32   C36   S    
C99   H39   S    
C16   C20   S    
C8    H48   S    
C12   H52   S    
C38   C42   S    
C15   C115  S    
C69   C70   S    
C54   C58   T    
C113  H65   S    
C95   C99   D    
C84   O12   A    
C94   C98   D    
C77   O5    A    
C28   C56   S    
C40   H24   S    
C108  O56   D    
C29   C33   S    
C5    H45   S    
O37   Zn5   S    
C2    O22   A    
C14   Cl10  S    
C106  H58   S    
C47   O19   A    
C43   H11   S    
C20   H8    S    
O3    Zn3   S    
C32   H20   S    
C42   H10   S    
C23   C51   T    
C30   H18   S    
O29   Zn5   S    
C114  H66   S    
C104  Cl8   S    
C74   C77   S    
C83   O11   A    
C70   C74   D    
C40   C108  S    
C107  H59   S    
C69   C73   D    
O14   Zn6   S    
C63   H27   S    
O44   Zn16  S    
O13   Zn5   S    
C75   C80   S    
O1    Zn13  S    
C88   C97   S    
C92   O44   A    
C9    C29   S    
C22   C50   T    
C87   C98   S    
C93   H1    S    
C111  O59   D    
C10   C26   S    
O33   Zn9   S    
C96   H4    S    
C9    H49   S    
C67   C84   S    
O12   Zn16  S    
C7    C103  D    
C46   C58   S    
C11   C31   S    
C69   H33   S    
C107  O55   D    
C10   H50   S    
C84   O36   A    
O38   Zn6   S    
C17   C33   S    
C88   O48   A    
O17   Zn9   S    
O3    Zn15  S    
C26   C54   S    
O43   Zn15  S    
C38   H22   S    
C79   O31   A    
C95   C103  S    
C48   C60   S    
C37   H21   S    
O25   Zn1   S    
O27   Zn3   S    
C5    C89   S    
O2    Zn14  S    
C63   C67   D    
C71   C75   D    
C109  O57   D    
C30   C34   S    
C63   C64   S    
C85   O45   A    
C31   C111  S    
O52   Zn4   S    
C36   C40   S    
C39   H23   S    
C91   O51   A    
C100  H40   S    
O31   Zn7   S    
C113  O61   D    
C62   C66   D    
O47   Zn11  S    
C42   H14   S    
C20   C36   S    
C71   H35   S    
O21   Zn13  S    
O50   Zn2   S    
C73   C78   S    
C81   O33   A    
C1    O21   A    
C28   C44   S    
C31   H19   S    
C103  Cl7   S    
C56   C60   T    
C76   H44   S    
O19   Zn11  S    
O20   Zn12  S    
C29   C109  S    
C41   H13   S    
C67   H31   S    
C93   C101  S    
C105  H57   S    
C18   H54   S    
C27   C43   S    
C61   H25   S    
O24   Zn16  S    
C18   C34   S    
C101  Cl5   S    
O4    Zn12  S    
C93   C97   D    
C15   C27   S    
C11   C27   S    
O30   Zn6   S    
C1    O13   A    
C19   H55   S    
C14   C26   S    
C45   O17   A    
C106  O54   D    
C7    H47   S    
C4    O24   A    
O39   Zn7   S    
O4    Zn16  S    
C89   O49   A    
O2    Zn10  S    
C98   H38   S    
C68   H32   S    
C15   Cl11  S    
C86   C99   S    
C8    C104  D    
O26   Zn2   S    
C75   H43   S    
O36   Zn12  S    
C78   O6    A    
C95   H3    S    
O6    Zn2   S    
C8    C92   S    
C21   C49   T    
O9    Zn13  S    
O5    Zn1   S    
C102  Cl6   S    
O41   Zn13  S    
C86   O38   A    
C70   H34   S    
O3    Zn11  S    
O10   Zn14  S    
C35   C51   S    
O40   Zn8   S    
C116  O64   D    
C10   C30   S    
C29   H17   S    
C12   C32   S    
O32   Zn8   S    
C72   H36   S    
C25   C41   S    
C111  H63   S    
C45   O25   A    
C64   C68   D    
C112  O60   D    
C48   O20   A    
C47   O27   A    
C17   H53   S    
C26   C42   S    
C110  O58   D    
O2    Zn2   S    
C3    O15   A    
C12   Cl4   S    
C96   C104  S    
O1    Zn1   S    
C108  H60   S    
C94   H2    S    
C53   C57   T    
C10   Cl2   S    
C34   C38   S    
C68   C83   S    
O15   Zn7   S    
C14   C18   S    
C74   H42   S    
O22   Zn14  S    
C16   Cl12  S    
C18   H6    S    
O11   Zn15  S    
C19   H7    S    
C13   C25   S    
C17   H5    S    
C34   C50   S    
C38   C106  S    
C115  H67   S    
O23   Zn15  S    
C97   H37   S    
C33   C49   S    
C13   Cl9   S    
O48   Zn12  S    
C36   C52   S    
C27   C55   S    
C64   H28   S    
C62   H26   S    
C5    C101  D    
O34   Zn10  S    
O49   Zn1   S    
C85   O37   A    
C77   O29   A    
C88   O40   A    
C32   C112  S    
C112  H64   S    
C41   H9    S    
C90   O50   A    
C71   C72   S    
C105  O53   D    
C85   C100  S    
C6    C90   S    
C2    O14   A    
C7    C91   S    
O35   Zn11  S    
C4    C21   S    
C115  O63   D    
C66   H30   S    
O4    Zn8   S    
C65   C82   S    
C3    O23   A    
O46   Zn10  S    
C35   C39   S    
C96   C100  D    
C46   O26   A    
O45   Zn9   S    
C16   C116  S    
C11   H51   S    
C30   C110  S    
C33   C37   S    
C87   O47   A    
C31   C35   S    
C6    C102  D    
C116  H68   S    
C83   O35   A    
C61   C62   S    
C14   C114  S    
C91   O43   A    
C82   O34   A    
C92   O52   A    
C80   O32   A    
C47   C59   S    
C13   C17   S    
C6    H46   S    
C61   C65   D    
C40   C44   S    
C44   H12   S    
C1    C24   S    
C114  O62   D    
C4    O16   A    
C39   C43   S    
C73   H41   S    
C2    C23   S    
C44   H16   S    
O1    Zn9   S    
O18   Zn10  S    
C3    C22   S    
C19   C35   S    
C37   C105  S    
C79   O7    A    
C48   O28   A    
C13   C113  S    
C81   O9    A    
C80   O8    A    
C65   H29   S    
C25   C53   S    
O7    Zn3   S    
C94   C102  S    
C43   H15   S    
C110  H62   S    
C66   C81   S    
O3    Zn7   S    
