data_mof_unit_42121.cif
_audit_creation_date              2012-12-11T14:52:26-0500
_audit_creation_method            fapswitch 2.2
_symmetry_space_group_name_H-M    P1
_symmetry_Int_Tables_number       1
_space_group_crystal_system       triclinic
_cell_length_a                    18.805069
_cell_length_b                    10.889981
_cell_length_c                    18.820954
_cell_angle_alpha                 89.747472
_cell_angle_beta                  90.927855
_cell_angle_gamma                 89.937254
_cell_volume                      3853.73833806

loop_
_atom_site_label
_atom_site_type_symbol
_atom_type_description
_atom_site_fract_x
_atom_site_fract_y
_atom_site_fract_z
_atom_type_partial_charge
C1    C     C_R   0.287182 0.003019 0.861424 0.532021
C2    C     C_R   0.711049 0.998716 0.138790 0.550812
C3    C     C_R   0.787182 0.503019 0.861424 0.532021
C4    C     C_R   0.211049 0.498716 0.138790 0.550812
C5    C     C_3   0.503621 0.719792 0.976014 -0.085666
C6    C     C_3   0.452259 0.728815 0.038872 -0.107586
C7    C     C_3   0.003621 0.219792 0.976014 -0.085666
C8    C     C_3   0.952260 0.228815 0.038872 -0.107586
C9    C     C_R   0.299943 0.508159 0.957704 -0.048815
C10   C     C_R   0.700398 0.508914 0.042872 -0.050452
C11   C     C_R   0.799943 0.008159 0.957704 -0.048815
C12   C     C_R   0.200398 0.008914 0.042872 -0.050452
C13   C     C_R   0.290559 0.484641 0.030468 -0.046518
C14   C     C_R   0.708722 0.486500 0.969974 -0.050105
C15   C     C_R   0.790559 0.984641 0.030468 -0.046518
C16   C     C_R   0.208722 0.986500 0.969974 -0.050105
C17   C     C_R   0.225499 0.518586 0.062989 -0.006383
C18   C     C_R   0.770821 0.529626 0.935518 -0.006580
C19   C     C_R   0.725499 0.018586 0.062989 -0.006384
C20   C     C_R   0.270821 0.029626 0.935518 -0.006580
C21   C     C_R   0.170235 0.567256 0.021151 -0.162339
C22   C     C_R   0.822932 0.592234 0.974416 -0.158352
C23   C     C_R   0.670235 0.067256 0.021151 -0.162339
C24   C     C_R   0.322932 0.092234 0.974416 -0.158352
C25   C     C_R   0.180230 0.592506 0.950147 -0.149332
C26   C     C_R   0.814012 0.615597 0.045114 -0.159530
C27   C     C_R   0.680230 0.092506 0.950147 -0.149332
C28   C     C_R   0.314012 0.115597 0.045114 -0.159530
C29   C     C_R   0.246039 0.570708 0.918685 -0.000736
C30   C     C_R   0.752387 0.578735 0.079761 -0.002595
C31   C     C_R   0.746039 0.070708 0.918685 -0.000736
C32   C     C_R   0.252387 0.078735 0.079761 -0.002595
C33   C     C_R   0.463988 0.726515 0.527487 -0.122315
C34   C     C_R   0.471799 0.730290 0.454930 -0.125874
C35   C     C_R   0.963990 0.226514 0.527487 -0.122316
C36   C     C_R   0.971801 0.230289 0.454931 -0.125874
C37   C     C_R   0.499580 0.835236 0.423022 0.023863
C38   C     C_R   0.481792 0.828963 0.569369 0.027314
C39   C     C_R   0.999580 0.335236 0.423022 0.023862
C40   C     C_R   0.981793 0.328963 0.569370 0.027314
C41   C     C_R   0.513209 0.940955 0.463845 -0.136282
C42   C     C_R   0.503906 0.937935 0.537031 -0.145964
C43   C     C_R   0.013208 0.440955 0.463845 -0.136282
C44   C     C_R   0.003904 0.437936 0.537030 -0.145964
C45   C     C_R   0.439214 0.816809 0.862622 0.538254
C46   C     C_R   0.528164 0.821698 0.145150 0.535526
C47   C     C_R   0.939214 0.316809 0.862622 0.538254
C48   C     C_R   0.028164 0.321698 0.145150 0.535526
C49   C     C_R   0.215233 0.693337 0.525367 -0.138732
C50   C     C_R   0.816766 0.596079 0.456794 -0.149779
C51   C     C_R   0.715232 0.193336 0.525367 -0.138732
C52   C     C_R   0.316766 0.096079 0.456794 -0.149779
C53   C     C_R   0.214485 0.682388 0.453050 -0.144191
C54   C     C_R   0.821985 0.593564 0.529234 -0.119325
C55   C     C_R   0.714484 0.182387 0.453050 -0.144192
C56   C     C_R   0.321985 0.093564 0.529234 -0.119325
C57   C     C_R   0.251607 0.586619 0.422453 0.013547
C58   C     C_R   0.762234 0.564871 0.569709 0.023434
C59   C     C_R   0.751607 0.086620 0.422453 0.013547
C60   C     C_R   0.262235 0.064871 0.569709 0.023434
C61   C     C_R   0.295624 0.508875 0.463745 -0.141492
C62   C     C_R   0.698311 0.530990 0.536949 -0.152048
C63   C     C_R   0.795625 0.008876 0.463745 -0.141492
C64   C     C_R   0.198311 0.030989 0.536949 -0.152048
C65   C     C_R   0.296823 0.519377 0.536900 -0.042237
C66   C     C_R   0.692439 0.533209 0.463675 -0.029996
C67   C     C_R   0.796824 0.019378 0.536900 -0.042236
C68   C     C_R   0.192439 0.033208 0.463675 -0.029996
C69   C     C_R   0.254939 0.610862 0.568009 0.021397
C70   C     C_R   0.750947 0.575913 0.423758 0.012697
C71   C     C_R   0.754939 0.110862 0.568009 0.021397
C72   C     C_R   0.250947 0.075913 0.423758 0.012697
C73   C     C_R   0.259938 0.632602 0.850733 0.530004
C74   C     C_R   0.739786 0.634003 0.149080 0.531372
C75   C     C_R   0.759938 0.132602 0.850733 0.530004
C76   C     C_R   0.239786 0.134003 0.149080 0.531372
C77   C     C_R   0.273206 0.042108 0.644015 0.564083
C78   C     C_R   0.729734 0.047086 0.353102 0.558635
C79   C     C_R   0.773206 0.542108 0.644015 0.564083
C80   C     C_R   0.229734 0.547086 0.353102 0.558635
C81   C     C_R   0.466141 0.823063 0.644600 0.553107
C82   C     C_R   0.529189 0.824175 0.352592 0.545062
C83   C     C_R   0.966141 0.323063 0.644601 0.553107
C84   C     C_R   0.029189 0.324175 0.352592 0.545062
C85   C     C_R   0.260713 0.639803 0.642277 0.549719
C86   C     C_R   0.740498 0.632605 0.355014 0.543898
C87   C     C_R   0.760713 0.139803 0.642277 0.549719
C88   C     C_R   0.240498 0.132605 0.355014 0.543898
C89   C     C_3   0.458844 0.930195 0.034689 -0.126987
C90   C     C_3   0.509976 0.921143 0.971260 -0.112702
C91   C     C_3   0.958844 0.430195 0.034689 -0.126987
C92   C     C_3   0.009976 0.421143 0.971260 -0.112702
C93   C     C_3   0.409912 0.831506 0.000180 -0.150686
C94   C     C_3   0.552068 0.818225 0.009951 -0.115756
C95   C     C_3   0.909912 0.331506 0.000180 -0.150686
C96   C     C_3   0.052068 0.318225 0.009951 -0.115756
C97   C     C_3   0.461658 0.822695 0.938021 0.042840
C98   C     C_3   0.500313 0.827410 0.072065 0.049231
C99   C     C_3   0.961658 0.322695 0.938021 0.042840
C100  C     C_3   0.000313 0.327410 0.072065 0.049231
Cr1   Cr    Cr6+3 0.229630 0.835900 0.747350 1.048228
Cr2   Cr    Cr6+3 0.770370 0.835900 0.252650 1.048704
Cr3   Cr    Cr6+3 0.729630 0.335900 0.747350 1.048228
Cr4   Cr    Cr6+3 0.270370 0.335900 0.252650 1.048704
Cr5   Cr    Cr6+3 0.387410 0.989850 0.750850 1.047567
Cr6   Cr    Cr6+3 0.612590 0.989850 0.249150 1.037152
Cr7   Cr    Cr6+3 0.887410 0.489850 0.750850 1.047566
Cr8   Cr    Cr6+3 0.112590 0.489850 0.249150 1.037152
Cr9   Cr    Cr6+3 0.385800 0.677120 0.749340 1.068462
Cr10  Cr    Cr6+3 0.614200 0.677120 0.250660 1.074400
Cr11  Cr    Cr6+3 0.885800 0.177120 0.749340 1.068462
Cr12  Cr    Cr6+3 0.114200 0.177120 0.250660 1.074400
H1    H     H_    0.136920 0.635265 0.920651 0.166006
H2    H     H_    0.855485 0.666667 0.072160 0.167864
H3    H     H_    0.636920 0.135265 0.920651 0.166006
H4    H     H_    0.355485 0.166667 0.072160 0.167864
O1    O     O_R   0.214270 0.709000 0.827470 -0.511123
O2    O     O_R   0.785730 0.709000 0.172530 -0.519068
O3    O     O_R   0.714270 0.209000 0.827470 -0.511123
O4    O     O_R   0.285730 0.209000 0.172530 -0.519068
O5    O     O_R   0.445950 0.919440 0.676520 -0.501628
O6    O     O_R   0.554050 0.919440 0.323480 -0.507894
O7    O     O_R   0.945950 0.419440 0.676520 -0.501628
O8    O     O_R   0.054050 0.419440 0.323480 -0.507893
O9    O     O_R   0.456730 0.717630 0.669840 -0.510699
O10   O     O_R   0.543270 0.717630 0.330160 -0.497735
O11   O     O_R   0.956730 0.217630 0.669840 -0.510699
O12   O     O_R   0.043270 0.217630 0.330160 -0.497736
O13   O     O_R   0.320620 0.625640 0.672920 -0.491436
O14   O     O_R   0.679380 0.625640 0.327080 -0.486469
O15   O     O_R   0.820620 0.125640 0.672920 -0.491435
O16   O     O_R   0.179380 0.125640 0.327080 -0.486468
O17   O     O_3   0.334280 0.834290 0.749180 -0.301580
O18   O     O_3   0.665720 0.834290 0.250820 -0.278613
O19   O     O_3   0.834280 0.334290 0.749180 -0.301580
O20   O     O_3   0.165720 0.334290 0.250820 -0.278613
O21   O     O_R   0.236160 0.958490 0.823130 -0.480915
O22   O     O_R   0.763840 0.958490 0.176870 -0.486412
O23   O     O_R   0.736160 0.458490 0.823130 -0.480915
O24   O     O_R   0.263840 0.458490 0.176870 -0.486412
O25   O     O_R   0.332080 0.075470 0.831280 -0.504931
O26   O     O_R   0.667920 0.075470 0.168720 -0.502570
O27   O     O_R   0.832080 0.575470 0.831280 -0.504931
O28   O     O_R   0.167920 0.575470 0.168720 -0.502570
O29   O     O_R   0.446300 0.918110 0.826620 -0.509181
O30   O     O_R   0.553700 0.918110 0.173380 -0.522673
O31   O     O_R   0.946300 0.418110 0.826620 -0.509181
O32   O     O_R   0.053700 0.418110 0.173380 -0.522673
O33   O     O_R   0.457110 0.716200 0.831760 -0.489367
O34   O     O_R   0.542890 0.716200 0.168240 -0.498508
O35   O     O_R   0.957110 0.216200 0.831760 -0.489367
O36   O     O_R   0.042890 0.216200 0.168240 -0.498508
O37   O     O_R   0.320980 0.624310 0.823030 -0.503795
O38   O     O_R   0.679020 0.624310 0.176970 -0.493350
O39   O     O_R   0.820980 0.124310 0.823030 -0.503795
O40   O     O_R   0.179020 0.124310 0.176970 -0.493350
O41   O     O_R   0.213890 0.710430 0.665540 -0.525545
O42   O     O_R   0.786110 0.710430 0.334460 -0.524633
O43   O     O_R   0.713890 0.210430 0.665540 -0.525545
O44   O     O_R   0.286110 0.210430 0.334460 -0.524632
O45   O     O_R   0.235810 0.959820 0.673020 -0.505065
O46   O     O_R   0.764190 0.959820 0.326980 -0.502867
O47   O     O_R   0.735810 0.459820 0.673020 -0.505064
O48   O     O_R   0.264190 0.459820 0.326980 -0.502867
O49   O     O_R   0.331700 0.076900 0.669350 -0.500532
O50   O     O_R   0.668300 0.076900 0.330650 -0.512478
O51   O     O_R   0.831700 0.576900 0.669350 -0.500533
O52   O     O_R   0.168300 0.576900 0.330650 -0.512477
H5    H     H_    0.351075 0.833673 0.995281 0.112205
H6    H     H_    0.610871 0.812197 0.015342 0.115933
H7    H     H_    0.851075 0.333673 0.995281 0.112205
H8    H     H_    0.110871 0.312197 0.015342 0.115933
H9    H     H_    0.184640 0.767664 0.547658 0.148815
H10   H     H_    0.863059 0.623683 0.427082 0.142055
H11   H     H_    0.684640 0.267663 0.547658 0.148815
H12   H     H_    0.363059 0.123683 0.427082 0.142055
H13   H     H_    0.180933 0.743231 0.421476 0.147829
H14   H     H_    0.873550 0.612509 0.553222 0.161458
H15   H     H_    0.680933 0.243230 0.421476 0.147829
H16   H     H_    0.373550 0.112508 0.553222 0.161459
H17   H     H_    0.324622 0.433919 0.439790 0.148441
H18   H     H_    0.653644 0.500900 0.568386 0.131350
H19   H     H_    0.824623 0.933919 0.439790 0.148441
H20   H     H_    0.153644 0.000900 0.568386 0.131350
C101  C     C_1   0.338658 0.432709 0.578349 0.200846
N1    N     N_1   0.372239 0.363507 0.611550 -0.285801
C102  C     C_1   0.625791 0.493124 0.432187 0.211896
N2    N     N_1   0.572466 0.460438 0.407250 -0.299806
C103  C     C_1   0.838659 0.932710 0.578349 0.200846
N3    N     N_1   0.872240 0.863508 0.611550 -0.285802
C104  C     C_1   0.125792 0.993124 0.432187 0.211895
N4    N     N_1   0.072466 0.960437 0.407250 -0.299807
H21   H     H_    0.444212 0.015922 0.062113 0.124447
H22   H     H_    0.532651 0.999990 0.941892 0.129170
H23   H     H_    0.944212 0.515922 0.062113 0.124446
H24   H     H_    0.032651 0.499990 0.941892 0.129170
H25   H     H_    0.522421 0.633122 0.951748 0.165159
H26   H     H_    0.428820 0.650903 0.068383 0.149407
H27   H     H_    0.022421 0.133122 0.951748 0.165159
H28   H     H_    0.928820 0.150903 0.068383 0.149407
C105  C     C_1   0.365459 0.469465 0.924505 0.224494
N5    N     N_1   0.417693 0.438196 0.898333 -0.257543
C106  C     C_1   0.638253 0.461021 0.078502 0.230245
N6    N     N_1   0.588661 0.422604 0.106631 -0.252131
C107  C     C_1   0.865459 0.969465 0.924505 0.224494
N7    N     N_1   0.917693 0.938196 0.898333 -0.257543
C108  C     C_1   0.138253 0.961021 0.078502 0.230245
N8    N     N_1   0.088661 0.922604 0.106631 -0.252131
C109  C     C_1   0.350033 0.433011 0.070796 0.216606
N9    N     N_1   0.397954 0.393076 0.102669 -0.273882
C110  C     C_1   0.651413 0.425323 0.931579 0.233060
N10   N     N_1   0.605135 0.377610 0.901293 -0.267041
C111  C     C_1   0.850033 0.933010 0.070796 0.216606
N11   N     N_1   0.897954 0.893076 0.102669 -0.273882
C112  C     C_1   0.151413 0.925323 0.931579 0.233060
N12   N     N_1   0.105135 0.877610 0.901293 -0.267041
H29   H     H_    0.119142 0.588823 0.043869 0.152727
H30   H     H_    0.871816 0.623057 0.950391 0.160839
H31   H     H_    0.619142 0.088823 0.043869 0.152727
H32   H     H_    0.371816 0.123057 0.950391 0.160839
H33   H     H_    0.443465 0.642767 0.550610 0.151841
H34   H     H_    0.459920 0.648518 0.424372 0.153387
H35   H     H_    0.943469 0.142765 0.550611 0.151842
H36   H     H_    0.959923 0.148517 0.424373 0.153389
H37   H     H_    0.534872 0.023270 0.440041 0.145671
H38   H     H_    0.515316 0.019044 0.568297 0.131548
H39   H     H_    0.034869 0.523270 0.440040 0.145670
H40   H     H_    0.015314 0.519045 0.568297 0.131549

loop_
_geom_bond_atom_site_label_1
_geom_bond_atom_site_label_2
_ccdc_geom_bond_type
C84   O12   A    
Cr12  O40   S    
C106  N6    T    
C49   C53   A    
C65   C101  S    
C58   C62   A    
C73   O37   A    
C55   C59   A    
C34   C37   A    
C41   C42   A    
C14   C18   A    
Cr9   O33   S    
C35   C36   A    
C40   C83   S    
Cr7   O7    S    
C15   C111  S    
Cr3   O43   S    
Cr2   O42   S    
C49   H9    S    
C5    C94   S    
C69   C85   S    
C7    C8    S    
C66   C70   A    
C111  N11   T    
C15   C19   A    
C7    C96   S    
C93   H5    S    
C50   C54   A    
C7    C99   S    
C14   C110  S    
C13   C17   A    
C37   C41   A    
C52   C72   A    
C64   C68   A    
Cr4   O44   S    
C39   C84   S    
Cr8   O20   S    
Cr3   O23   S    
Cr5   O25   S    
C5    C6    S    
C30   C74   S    
C95   C99   S    
C29   C73   S    
C94   C98   S    
C77   O49   A    
C48   O32   A    
C92   C96   S    
C47   C99   S    
C74   O38   A    
C3    C18   S    
Cr1   O41   S    
C51   C55   A    
Cr2   O22   S    
C87   O15   A    
C9    C13   A    
C82   O10   A    
Cr7   O19   S    
C28   H4    S    
C85   O13   A    
C52   C56   A    
C11   C15   A    
C80   O48   A    
C12   C16   A    
Cr5   O49   S    
C22   H30   S    
C32   C76   S    
Cr12  O36   S    
Cr6   O26   S    
C23   C27   A    
C91   C100  S    
Cr9   O37   S    
C10   C106  S    
C36   H36   S    
C90   C97   S    
C45   O33   A    
Cr2   O2    S    
C9    C29   A    
Cr8   O52   S    
Cr11  O39   S    
C89   H21   S    
C21   H29   S    
C66   C102  S    
C12   C32   A    
C43   C44   A    
C77   O45   A    
C57   C80   S    
C103  N3    T    
C8    C95   S    
C51   C71   A    
Cr8   O8    S    
C48   C100  S    
C59   C78   S    
Cr8   O32   S    
C72   C88   S    
C43   H39   S    
C90   C94   S    
Cr7   O51   S    
C42   H38   S    
C25   C29   A    
C74   O2    A    
C23   H31   S    
C60   C77   S    
C78   O50   A    
C73   O1    A    
Cr12  O20   S    
C27   C31   A    
C108  N8    T    
C2    O22   A    
C12   C108  S    
C13   C109  S    
C80   O52   A    
C28   C32   A    
C3    O27   A    
C53   C57   A    
C109  N9    T    
C10   C14   A    
C83   O11   A    
C91   C92   S    
C6    H26   S    
C62   C66   A    
C86   O14   A    
C5    H25   S    
C61   H17   S    
C68   C104  S    
Cr10  O34   S    
C107  N7    T    
Cr9   O17   S    
C76   O40   A    
C89   C93   S    
C17   C21   A    
C54   H14   S    
C81   O5    A    
C68   C72   A    
C16   C112  S    
C19   C23   A    
C112  N12   T    
C26   H2    S    
C63   C67   A    
Cr4   O48   S    
Cr10  O38   S    
C35   H35   S    
C62   H18   S    
Cr7   O31   S    
C82   O6    A    
C10   C30   A    
C93   C97   S    
C31   C75   S    
C110  N10   T    
C90   H22   S    
C7    H27   S    
Cr6   O18   S    
C16   C20   A    
C6    C93   S    
Cr5   O29   S    
Cr6   O6    S    
C67   C103  S    
C33   C34   A    
C75   O3    A    
C27   H3    S    
C56   H16   S    
C76   O4    A    
Cr12  O16   S    
C51   H11   S    
C44   H40   S    
C9    C105  S    
C58   C79   S    
C63   H19   S    
C71   C87   S    
C25   H1    S    
C24   H32   S    
Cr9   O9    S    
C46   O34   A    
Cr10  O10   S    
C78   O46   A    
C48   O36   A    
C38   C81   S    
Cr11  O11   S    
C41   H37   S    
C2    O26   A    
C45   O29   A    
C37   C82   S    
C8    H28   S    
C3    O23   A    
C4    C17   S    
Cr7   O27   S    
C70   C86   S    
C6    C98   S    
Cr8   O28   S    
C1    O21   A    
Cr2   O46   S    
Cr5   O17   S    
C54   C58   A    
Cr11  O15   S    
C104  N4    T    
Cr10  O18   S    
C21   C25   A    
C1    C20   S    
Cr1   O21   S    
Cr4   O20   S    
C81   O9    A    
C2    C19   S    
C18   C22   A    
C59   C63   A    
C36   C39   A    
Cr3   O3    S    
C24   C28   A    
C79   O47   A    
C92   H24   S    
Cr11  O35   S    
C96   H8    S    
C4    O28   A    
C39   C43   A    
C86   O42   A    
C75   O39   A    
C57   C61   A    
Cr1   O17   S    
C84   O8    A    
C91   H23   S    
Cr10  O14   S    
Cr3   O47   S    
C33   C38   A    
Cr6   O30   S    
C105  N5    T    
C50   H10   S    
C89   C98   S    
C60   C64   A    
Cr1   O1    S    
Cr1   O45   S    
C35   C40   A    
C8    C100  S    
C102  N2    T    
C47   O31   A    
C45   C97   S    
C94   H6    S    
Cr9   O13   S    
Cr11  O19   S    
C101  N1    T    
C46   O30   A    
C53   H13   S    
Cr6   O50   S    
C65   C69   A    
C96   C100  S    
C87   O43   A    
C5    C97   S    
C67   C71   A    
C88   O44   A    
C46   C98   S    
C4    O24   A    
Cr3   O19   S    
C50   C70   A    
Cr12  O12   S    
C1    O25   A    
C47   O35   A    
C11   C31   A    
Cr2   O18   S    
C64   H20   S    
C38   C42   A    
C61   C65   A    
C40   C44   A    
C56   C60   A    
C91   C95   S    
C22   C26   A    
Cr5   O5    S    
C85   O41   A    
C88   O16   A    
C52   H12   S    
C55   H15   S    
C49   C69   A    
C11   C107  S    
C79   O51   A    
C89   C90   S    
C95   H7    S    
C20   C24   A    
C83   O7    A    
C34   H34   S    
C92   C99   S    
Cr4   O24   S    
Cr4   O4    S    
C26   C30   A    
C33   H33   S    
