data_mof_unit_45599.cif
_audit_creation_date              2012-12-10T17:33:47-0500
_audit_creation_method            fapswitch 2.2
_symmetry_space_group_name_H-M    P1
_symmetry_Int_Tables_number       1
_space_group_crystal_system       triclinic
_cell_length_a                    11.694084
_cell_length_b                    12.374871
_cell_length_c                    13.20122
_cell_angle_alpha                 116.614889
_cell_angle_beta                  77.462891
_cell_angle_gamma                 101.482521
_cell_volume                      1655.84506195

loop_
_atom_site_label
_atom_site_type_symbol
_atom_type_description
_atom_site_fract_x
_atom_site_fract_y
_atom_site_fract_z
_atom_type_partial_charge
C1    C     C_R   0.509781 0.854850 0.286654 0.756571
C2    C     C_R   0.345309 0.482514 0.163372 -0.246558
C3    C     C_R   0.380693 0.605793 0.196301 -0.200681
C4    C     C_R   0.715748 0.000033 0.499947 0.809624
C5    C     C_R   0.501853 0.351293 0.867545 -0.272836
C6    C     C_R   0.389732 0.188737 0.914430 -0.194400
C7    C     C_R   0.515782 0.772605 0.163700 -0.094202
C8    C     C_R   0.673859 0.341908 0.315946 0.326752
C9    C     C_R   0.341882 0.760427 0.647013 0.673459
C10   C     C_R   0.314031 0.666225 0.683789 -0.359408
C11   C     C_R   0.372554 0.563097 0.627613 -0.263128
C12   C     C_R   0.461206 0.227927 0.834703 -0.053052
C13   C     C_R   0.462431 0.552019 0.535022 0.039298
C14   C     C_R   0.493766 0.652805 0.504604 0.200130
C15   C     C_R   0.523886 0.445961 0.472827 -0.071729
C16   C     C_R   0.483413 0.144994 0.713363 0.807953
C17   C     C_R   0.613257 0.443659 0.380745 0.030129
C18   C     C_R   0.644544 0.544381 0.355232 -0.247590
C19   C     C_R   0.587211 0.646635 0.416517 -0.164529
C20   C     C_R   0.500700 0.341745 0.497281 -0.046724
C21   C     C_R   0.656303 0.247545 0.350813 0.240352
C22   C     C_R   0.284204 0.000185 0.500410 0.824261
C23   C     C_R   0.583203 0.815630 0.084652 -0.197776
C24   C     C_1   0.837501 0.000269 0.500223 -0.187359
C25   C     C_1   0.939984 0.000284 0.500510 -0.006463
C26   C     C_1   0.059796 0.000227 0.500703 -0.004779
C27   C     C_1   0.162361 0.000208 0.500648 -0.202377
C28   C     C_R   0.354109 0.273684 0.024705 -0.211994
C29   C     C_3   0.701131 0.289042 0.124096 0.030521
C30   C     C_3   0.795016 0.257261 0.017894 -0.317734
C31   C     C_3   0.740219 0.210294 0.908711 -0.918354
C32   C     C_3   0.161712 0.844960 0.734123 0.011773
C33   C     C_3   0.094893 0.760113 0.632650 -0.364898
C34   C     C_R   0.606622 0.737065 0.969921 -0.146332
C35   C     C_3   0.961638 0.757135 0.669423 -0.899997
C36   C     C_3   0.743819 0.153843 0.291013 -0.325552
C37   C     C_3   0.862834 0.205295 0.334564 -0.803336
C38   C     C_R   0.567999 0.613515 0.932772 -0.181368
C39   C     C_R   0.500197 0.565950 0.009882 0.076671
C40   C     C_R   0.465602 0.648768 0.124590 0.082136
C41   C     C_R   0.464482 0.439182 0.976781 0.072750
C42   C     C_R   0.388758 0.398386 0.055681 0.165340
Cu1   Cu    Cu3+1 0.526510 0.098270 0.475420 0.926455
Cu2   Cu    Cu3+1 0.473490 0.901730 0.524580 0.957419
H1    H     H_    0.357559 0.093434 0.890325 0.177945
H2    H     H_    0.620638 0.909972 0.111873 0.139110
H3    H     H_    0.591017 0.558592 0.842664 0.131108
H4    H     H_    0.658342 0.771581 0.909699 0.142433
H5    H     H_    0.337674 0.666510 0.277729 0.174453
H6    H     H_    0.649304 0.357146 0.127272 0.163114
H7    H     H_    0.640674 0.204464 0.116398 0.127313
H8    H     H_    0.858349 0.339487 0.025210 0.227229
H9    H     H_    0.844331 0.186252 0.012380 0.214067
H10   H     H_    0.673974 0.129937 0.900754 0.259398
H11   H     H_    0.810124 0.183126 0.833020 0.253663
H12   H     H_    0.715945 0.545927 0.287891 0.186554
H13   H     H_    0.697201 0.283088 0.909774 0.264205
H14   H     H_    0.128346 0.935119 0.772576 0.174343
H15   H     H_    0.141203 0.814191 0.803804 0.123044
H16   H     H_    0.119468 0.792042 0.563727 0.242051
H17   H     H_    0.118229 0.665986 0.597119 0.205520
H18   H     H_    0.934235 0.724534 0.737976 0.251313
H19   H     H_    0.915934 0.694277 0.595011 0.262763
H20   H     H_    0.934596 0.849333 0.701302 0.257249
H21   H     H_    0.851653 0.237614 0.428943 0.259696
H22   H     H_    0.922966 0.133302 0.294135 0.225980
H23   H     H_    0.431554 0.335183 0.563701 0.149102
H24   H     H_    0.904501 0.282366 0.312622 0.270100
H25   H     H_    0.714995 0.068269 0.298339 0.237142
H26   H     H_    0.757485 0.125613 0.197113 0.175342
H27   H     H_    0.345990 0.493798 0.659100 0.160792
H28   H     H_    0.247612 0.671205 0.756212 0.154043
H29   H     H_    0.620092 0.719205 0.391804 0.205034
H30   H     H_    0.282732 0.453000 0.222321 0.147115
H31   H     H_    0.296536 0.242223 0.084802 0.135877
H32   H     H_    0.562306 0.376084 0.805277 0.153087
N1    N     N_R   0.566700 0.246290 0.438210 -0.214653
N2    N     N_R   0.434010 0.754320 0.561170 -0.242217
O1    O     O_R   0.533340 0.972510 0.318140 -0.600971
O2    O     O_3   0.285036 0.865160 0.700767 -0.591627
O3    O     O_R   0.488570 0.806530 0.359650 -0.608166
O4    O     O_R   0.685190 0.083000 0.479260 -0.576771
O5    O     O_R   0.640410 0.917020 0.520770 -0.591742
O6    O     O_R   0.511430 0.193470 0.640350 -0.588225
O7    O     O_R   0.466660 0.027490 0.681860 -0.536224
O8    O     O_R   0.359590 0.082980 0.479230 -0.573911
O9    O     O_R   0.314810 0.917000 0.520740 -0.550918
O10   O     O_3   0.757716 0.337843 0.222526 -0.623194

loop_
_geom_bond_atom_site_label_1
_geom_bond_atom_site_label_2
_ccdc_geom_bond_type
C6    H1    S    
C41   C42   A    
C20   H23   S    
C32   H14   S    
Cu2   O5    S    
C3    H5    S    
C39   C41   A    
C21   C36   S    
C26   C27   T    
C20   N1    A    
C36   C37   S    
C6    C12   A    
C30   C31   S    
C4    C24   S    
C11   H27   S    
Cu1   O1    S    
C37   H24   S    
C16   O6    A    
C18   C19   A    
C29   O10   S    
C5    C41   A    
C6    C28   A    
C12   C16   S    
C37   H21   S    
C7    C40   A    
C35   H20   S    
Cu2   O9    S    
C9    C10   A    
C2    H30   S    
C18   H12   S    
C14   N2    A    
C23   H2    S    
C34   C38   A    
C13   C14   A    
Cu1   O6    S    
C36   H26   S    
C17   C18   A    
C29   H6    S    
C15   C20   A    
C30   H9    S    
C19   H29   S    
C24   C25   T    
C5    C12   A    
Cu2   O3    S    
C39   C40   A    
C25   C26   S    
C8    O10   S    
C9    O2    S    
Cu1   Cu2   S    
C29   C30   S    
C32   O2    S    
C23   C34   A    
C37   H22   S    
C8    C21   A    
C22   O9    A    
C38   H3    S    
C3    C40   A    
C33   H16   S    
C22   C27   S    
C13   C15   A    
C16   O7    A    
C1    O1    A    
C34   H4    S    
Cu2   O7    S    
C36   H25   S    
C29   H7    S    
C15   C17   A    
C30   H8    S    
C1    C7    S    
Cu1   O8    S    
C14   C19   A    
Cu1   N1    S    
C8    C17   A    
C32   C33   S    
C31   H13   S    
C5    H32   S    
Cu2   N2    S    
C2    C3    A    
C11   C13   A    
C38   C39   A    
C4    O5    A    
C2    C42   A    
C7    C23   A    
C28   C42   A    
C33   C35   S    
C35   H18   S    
C9    N2    A    
C22   O8    A    
C31   H10   S    
C10   C11   A    
C4    O4    A    
C33   H17   S    
C21   N1    A    
Cu1   O4    S    
C35   H19   S    
C32   H15   S    
C31   H11   S    
C28   H31   S    
C1    O3    A    
C10   H28   S    
