data_mof_unit_37336.cif
_audit_creation_date              2012-12-10T17:57:49-0500
_audit_creation_method            fapswitch 2.2
_symmetry_space_group_name_H-M    P1
_symmetry_Int_Tables_number       1
_space_group_crystal_system       triclinic
_cell_length_a                    10.835134
_cell_length_b                    9.507044
_cell_length_c                    15.085561
_cell_angle_alpha                 89.999859
_cell_angle_beta                  90.167255
_cell_angle_gamma                 90.000398
_cell_volume                      1553.95846101

loop_
_atom_site_label
_atom_site_type_symbol
_atom_type_description
_atom_site_fract_x
_atom_site_fract_y
_atom_site_fract_z
_atom_type_partial_charge
C1    C     C_R   0.262023 0.500000 0.499930 0.790952
C2    C     C_R   0.737977 0.500000 0.500070 0.790952
C3    C     C_R   0.499816 0.756383 0.046210 -0.210204
C4    C     C_R   0.500184 0.243617 0.953790 -0.210204
C5    C     C_R   0.063842 0.372173 0.499951 -0.184360
C6    C     C_R   0.936157 0.627827 0.500049 -0.184359
C7    C     C_R   0.936156 0.372174 0.500053 -0.184359
C8    C     C_R   0.063844 0.627826 0.499947 -0.184359
C9    C     C_R   0.871802 0.500000 0.500078 -0.018058
C10   C     C_R   0.128197 0.500000 0.499921 -0.018058
C11   C     C_R   0.423714 0.074460 0.444501 -0.028424
C12   C     C_R   0.576286 0.925540 0.555499 -0.028424
C13   C     C_R   0.576286 0.074461 0.555499 -0.028423
C14   C     C_R   0.423714 0.925539 0.444501 -0.028423
C15   C     C_R   0.499832 0.500000 0.328509 0.818569
C16   C     C_R   0.500168 0.500000 0.671491 0.818569
C17   C     C_R   0.500370 0.372037 0.814755 -0.246287
C18   C     C_R   0.499630 0.627963 0.185245 -0.246286
C19   C     C_R   0.500307 0.499999 0.768373 -0.075013
C20   C     C_R   0.499693 0.500001 0.231626 -0.075014
C21   C     C_R   0.500293 0.627959 0.814755 -0.246286
C22   C     C_R   0.499708 0.372041 0.185245 -0.246286
C23   C     C_R   0.500158 0.628866 0.907117 0.108949
C24   C     C_R   0.499842 0.371134 0.092883 0.108949
C25   C     C_R   0.500100 0.500000 0.953533 0.062495
C26   C     C_R   0.499900 0.500000 0.046466 0.062496
C27   C     C_R   0.500238 0.371133 0.907116 0.108960
C28   C     C_R   0.499762 0.628867 0.092884 0.108960
C29   C     C_R   0.500022 0.756382 0.953791 -0.210201
C30   C     C_R   0.499978 0.243618 0.046208 -0.210201
Cu1   Cu    Cu3+1 0.500000 0.640660 0.500000 0.941547
Cu2   Cu    Cu3+1 0.500000 0.359340 0.500000 0.941547
H1    H     H_    0.500470 0.272973 0.779124 0.153513
H2    H     H_    0.499529 0.727026 0.220876 0.153513
H3    H     H_    0.500333 0.727024 0.779124 0.153520
H4    H     H_    0.499668 0.272976 0.220876 0.153520
H5    H     H_    0.499709 0.855970 0.081164 0.135858
H6    H     H_    0.500291 0.144030 0.918836 0.135858
H7    H     H_    0.111871 0.272237 0.499904 0.148797
H8    H     H_    0.888129 0.727763 0.500095 0.148796
H9    H     H_    0.888126 0.272237 0.500102 0.148796
H10   H     H_    0.111874 0.727762 0.499898 0.148796
H11   H     H_    0.362635 0.130678 0.400074 0.116724
H12   H     H_    0.637365 0.869322 0.599926 0.116724
H13   H     H_    0.637365 0.130679 0.599926 0.116719
H14   H     H_    0.362635 0.869321 0.400074 0.116719
N1    N     N_R   0.500000 0.852070 0.500000 -0.156360
N2    N     N_R   0.500000 0.147930 0.500000 -0.156360
O1    O     O_R   0.319640 0.618740 0.499990 -0.588921
O2    O     O_R   0.680360 0.381260 0.500010 -0.588921
O3    O     O_R   0.680360 0.618740 0.500010 -0.588918
O4    O     O_R   0.319640 0.381260 0.499990 -0.588918
O5    O     O_R   0.499970 0.618800 0.370260 -0.587724
O6    O     O_R   0.500030 0.381200 0.629740 -0.587724
O7    O     O_R   0.500030 0.618800 0.629740 -0.587726
O8    O     O_R   0.499970 0.381200 0.370260 -0.587726
H15   H     H_    0.500061 0.855970 0.918838 0.135862
H16   H     H_    0.499940 0.144030 0.081162 0.135862

loop_
_geom_bond_atom_site_label_1
_geom_bond_atom_site_label_2
_ccdc_geom_bond_type
C13   N2    A    
C5    C7    A    
C11   H11   S    
C14   N1    A    
C21   H3    S    
C25   C27   A    
C18   H2    S    
C26   C28   A    
Cu1   Cu2   S    
C15   O8    A    
C4    C27   A    
C6    C9    A    
C5    H7    S    
C16   O7    A    
C4    C30   A    
C5    C10   A    
C14   H14   S    
Cu1   N1    S    
Cu1   O5    S    
C13   H13   S    
Cu2   N2    S    
Cu2   O2    S    
C11   N2    A    
C17   H1    S    
Cu1   O1    S    
C12   N1    A    
C23   C29   A    
Cu2   O6    S    
C3    C28   A    
C11   C14   A    
C8    H10   S    
C22   C24   A    
C23   C25   A    
C21   C23   A    
C16   C19   S    
C15   C20   S    
C1    O4    A    
C16   O6    A    
C24   C30   A    
C2    O3    A    
C20   C22   A    
C17   C19   A    
C17   C27   A    
C15   O5    A    
C6    H8    S    
C18   C28   A    
C12   C13   A    
C3    H5    S    
C18   C20   A    
C12   H12   S    
C29   H15   S    
Cu1   O3    S    
C3    C29   A    
C7    C9    A    
Cu2   O4    S    
C6    C8    A    
C2    O2    A    
Cu1   O7    S    
C25   C26   A    
C30   H16   S    
C2    C9    S    
C1    O1    A    
Cu2   O8    S    
C8    C10   A    
C22   H4    S    
C1    C10   S    
C24   C26   A    
C7    H9    S    
C4    H6    S    
C19   C21   A    
