data_mof_unit_36611.cif
_audit_creation_date              2012-12-11T17:01:21-0500
_audit_creation_method            fapswitch 2.2
_symmetry_space_group_name_H-M    P1
_symmetry_Int_Tables_number       1
_space_group_crystal_system       triclinic
_cell_length_a                    19.384961
_cell_length_b                    7.108338
_cell_length_c                    17.57478
_cell_angle_alpha                 89.934726
_cell_angle_beta                  108.48835
_cell_angle_gamma                 90.075197
_cell_volume                      2296.72246972

loop_
_atom_site_label
_atom_site_type_symbol
_atom_type_description
_atom_site_fract_x
_atom_site_fract_y
_atom_site_fract_z
_atom_type_partial_charge
O1    O     O_R   0.413720 0.494330 0.415730 -0.536087
O2    O     O_R   0.586280 0.994330 0.584270 -0.535896
O3    O     O_R   0.560210 0.819300 0.430070 -0.544225
O4    O     O_R   0.439790 0.319300 0.569930 -0.542559
C1    C     C_R   0.581772 0.655533 0.414880 0.713151
C2    C     C_R   0.418581 0.155094 0.585472 0.713092
O5    O     O_R   0.412670 0.823730 0.406310 -0.543178
O6    O     O_R   0.587330 0.323730 0.593690 -0.543011
O7    O     O_R   0.437690 0.998790 0.560340 -0.539268
O8    O     O_R   0.562310 0.498790 0.439660 -0.535869
C3    C     C_R   0.385303 0.655176 0.383547 0.692185
C4    C     C_R   0.614720 0.155218 0.616420 0.693890
O9    O     O_3   0.508380 0.662350 0.550560 -0.375545
O10   O     O_3   0.491620 0.162350 0.449440 -0.375379
V1    V     V_3+5 0.498450 0.935370 0.490620 1.390654
V2    V     V_3+5 0.501550 0.435370 0.509380 1.391265
C5    C     C_R   0.731539 0.991697 0.692693 0.104627
C6    C     C_R   0.268647 0.491010 0.307001 0.116768
C7    C     C_R   0.685054 0.147229 0.682458 -0.109676
C8    C     C_R   0.315013 0.647085 0.317451 -0.111156
C9    C     C_R   0.709584 0.299903 0.735244 -0.184782
C10   C     C_R   0.290415 0.800131 0.264830 -0.183199
H1    H     H_    0.676307 0.424236 0.729381 0.139426
H2    H     H_    0.323650 0.924765 0.270816 0.139993
C11   C     C_R   0.775067 0.288733 0.799643 -0.179594
C12   C     C_R   0.224916 0.789027 0.200449 -0.177936
H3    H     H_    0.790134 0.405579 0.840994 0.132811
H4    H     H_    0.209785 0.906221 0.159229 0.133708
C13   C     C_R   0.818008 0.124171 0.813508 -0.108157
C14   C     C_R   0.182037 0.624144 0.186429 -0.111373
C15   C     C_R   0.796124 0.980258 0.756516 0.108794
C16   C     C_R   0.204048 0.479629 0.243185 0.119883
C17   C     C_3   0.786083 0.775410 0.767776 -0.417157
C18   C     C_3   0.214275 0.275197 0.231521 -0.420022
C19   C     C_3   0.715769 0.787771 0.697951 -0.404570
C20   C     C_3   0.284604 0.287494 0.301321 -0.408245
H5    H     H_    0.777314 0.744394 0.826052 0.167036
H6    H     H_    0.223027 0.245448 0.173163 0.164773
H7    H     H_    0.828465 0.688840 0.754254 0.179265
H8    H     H_    0.171991 0.187615 0.244919 0.184378
H9    H     H_    0.666288 0.763391 0.715702 0.171865
H10   H     H_    0.334081 0.264366 0.283472 0.170167
H11   H     H_    0.717682 0.708743 0.644102 0.170631
H12   H     H_    0.282809 0.207363 0.355027 0.175022
C21   C     C_R   0.314227 0.009413 0.618892 -0.179577
C22   C     C_R   0.680477 0.798488 0.370214 -0.187434
C23   C     C_R   0.369486 0.145772 0.634942 -0.097599
C24   C     C_R   0.632292 0.648397 0.366955 -0.104561
C25   C     C_R   0.376737 0.275251 0.697194 -0.232827
C26   C     C_R   0.633421 0.491621 0.318878 -0.189861
C27   C     C_R   0.329434 0.269307 0.743270 0.125913
C28   C     C_R   0.680561 0.486586 0.272603 0.158455
C29   C     C_R   0.273933 0.131506 0.727073 -0.020033
C30   C     C_R   0.729428 0.637210 0.276723 -0.012713
C31   C     C_R   0.266207 0.000191 0.664578 -0.031441
C32   C     C_R   0.730862 0.791966 0.327511 -0.037842
C33   C     C_R   0.335494 0.402611 0.803849 -0.203561
C34   C     C_R   0.679414 0.333401 0.222006 -0.146837
C35   C     C_R   0.286995 0.400669 0.848064 -0.187335
C36   C     C_R   0.725551 0.329623 0.175045 -0.198450
C37   C     C_R   0.231930 0.264341 0.833044 0.127146
C38   C     C_R   0.774335 0.477890 0.178564 0.114585
C39   C     C_R   0.225308 0.128424 0.772364 -0.013253
C40   C     C_R   0.776622 0.632575 0.229802 -0.008020
C41   C     C_R   0.169563 0.991744 0.756431 0.032449
C42   C     C_R   0.825939 0.781902 0.233939 0.029397
C43   C     C_R   0.161065 0.862407 0.693163 0.102028
C44   C     C_R   0.829564 0.932596 0.287372 0.096173
C45   C     C_R   0.209762 0.864933 0.647848 0.398239
C46   C     C_R   0.782943 0.936298 0.335060 0.404141
C47   C     C_R   0.183530 0.261865 0.877890 -0.208987
C48   C     C_R   0.821346 0.472505 0.132242 -0.200039
C49   C     C_R   0.129556 0.122690 0.864473 -0.104687
C50   C     C_R   0.869747 0.621366 0.134763 -0.106330
C51   C     C_R   0.122857 0.988739 0.803762 -0.157661
C52   C     C_R   0.871433 0.775711 0.185240 -0.158191
H13   H     H_    0.308159 0.912956 0.569523 0.156788
H14   H     H_    0.679453 0.918861 0.407585 0.161874
H15   H     H_    0.419059 0.381449 0.709480 0.120201
H16   H     H_    0.596375 0.375444 0.316039 0.120365
H17   H     H_    0.377318 0.510019 0.816419 0.124704
H18   H     H_    0.642634 0.216440 0.218587 0.118974
H19   H     H_    0.292587 0.506058 0.894143 0.123984
H20   H     H_    0.723625 0.209492 0.136510 0.127086
H21   H     H_    0.189008 0.365498 0.924685 0.119035
H22   H     H_    0.819580 0.353150 0.093285 0.125177
H23   H     H_    0.080450 0.883317 0.793184 0.163526
H24   H     H_    0.909388 0.889121 0.187382 0.167653
O11   O     O_R   0.937800 0.775460 0.060470 -0.539228
O12   O     O_R   0.062200 0.275460 0.939530 -0.534499
O13   O     O_R   0.087350 0.441340 0.093710 -0.538944
O14   O     O_R   0.912650 0.941340 0.906290 -0.539160
C53   C     C_R   0.114805 0.610375 0.116346 0.691383
C54   C     C_R   0.885213 0.110349 0.883629 0.688454
O15   O     O_R   0.939820 0.446010 0.069950 -0.538803
O16   O     O_R   0.060180 0.946010 0.930050 -0.543632
O17   O     O_R   0.913690 0.271230 0.915700 -0.540130
O18   O     O_R   0.086310 0.771230 0.084300 -0.539111
C55   C     C_R   0.918725 0.614188 0.084970 0.701843
C56   C     C_R   0.080999 0.114528 0.914731 0.699458
O19   O     O_3   0.991670 0.603050 0.949510 -0.372482
O20   O     O_3   0.008330 0.103050 0.050490 -0.372181
V3    V     V_3+5 0.001550 0.329940 0.009370 1.407683
V4    V     V_3+5 0.998450 0.829940 0.990630 1.401663
N1    N     N_3   0.101300 0.732345 0.673320 -0.674130
H25   H     H_    0.071453 0.748511 0.612666 0.259502
H26   H     H_    0.121815 0.595538 0.682493 0.241952
N2    N     N_3   0.881731 0.080411 0.294254 -0.667735
H27   H     H_    0.855004 0.209639 0.287406 0.271573
H28   H     H_    0.919360 0.076171 0.351854 0.240210
O21   O     O_3   0.196651 0.749068 0.581468 -0.555283
C57   C     C_3   0.238176 0.583709 0.604035 -0.241278
H29   H     H_    0.217968 0.496883 0.645006 0.149362
H30   H     H_    0.297081 0.614479 0.632185 0.133319
H31   H     H_    0.232427 0.498824 0.549440 0.168840
O22   O     O_3   0.785775 0.088245 0.385197 -0.551207
C58   C     C_3   0.830173 0.040661 0.463380 -0.259566
H32   H     H_    0.806671 0.922708 0.488769 0.131750
H33   H     H_    0.833850 0.164457 0.502849 0.168403
H34   H     H_    0.886396 0.004300 0.465006 0.134820

loop_
_geom_bond_atom_site_label_1
_geom_bond_atom_site_label_2
_ccdc_geom_bond_type
C49   C56   S    
C42   C44   A    
C39   C41   A    
C45   O21   S    
C20   H10   S    
O21   C57   S    
O1    C3    A    
O2    C4    A    
C2    O7    A    
C57   H30   S    
C23   C25   A    
N2    H27   S    
O5    C3    A    
N1    H26   S    
C17   H7    S    
C50   C52   A    
O11   C55   A    
C18   H8    S    
C7    C9    A    
C35   H19   S    
C14   C53   S    
C58   H33   S    
C13   C54   S    
C36   H20   S    
O15   C55   A    
C33   C35   A    
C41   C43   A    
C34   C36   A    
O22   C58   S    
C36   C38   A    
C21   C23   A    
C37   C39   A    
C38   C40   A    
C17   C19   S    
C47   H21   S    
O15   V3    S    
C25   C27   A    
C26   C28   A    
C15   C17   S    
C27   C33   A    
C19   H11   S    
C52   H24   S    
C18   C20   S    
C37   C47   A    
C24   C26   A    
O6    V2    S    
C49   C51   A    
O12   C56   A    
C57   H29   S    
C28   C30   A    
C22   C24   A    
C29   C31   A    
C11   C13   A    
C1    C24   S    
C30   C32   A    
C3    C8    S    
C35   C37   A    
C2    C23   S    
C34   H18   S    
C48   C50   A    
C58   H34   S    
C22   H14   S    
C43   N1    S    
C54   O17   A    
C46   O22   S    
C17   H5    S    
C25   H15   S    
C43   C45   A    
C40   C42   A    
O4    V2    S    
O13   C53   A    
O6    C4    A    
C42   C52   A    
O14   C54   A    
C38   C48   A    
O1    V2    S    
O17   V3    S    
O20   V4    S    
O2    V1    S    
C31   C45   A    
C28   C34   A    
C51   H23   S    
C8    C10   A    
C12   C14   A    
O19   V4    S    
C32   C46   A    
C9    H1    S    
O11   V4    S    
C5    C15   A    
C10   H2    S    
C20   H12   S    
O4    C2    A    
C6    C16   A    
O3    V1    S    
C47   C49   A    
C9    C11   A    
C18   H6    S    
O13   V3    S    
O3    C1    A    
C26   H16   S    
C48   H22   S    
C50   C55   S    
C11   H3    S    
C5    C19   S    
N1    H25   S    
C12   H4    S    
C41   C51   A    
O16   V4    S    
O7    V1    S    
C1    O8    A    
C13   C15   A    
O8    V2    S    
C58   H32   S    
C14   C16   A    
C29   C39   A    
C30   C40   A    
O18   V4    S    
O16   C56   A    
C4    C7    S    
O5    V1    S    
C5    C7    A    
N2    H28   S    
C6    C8    A    
O20   V3    S    
C19   H9    S    
C33   H17   S    
O12   V3    S    
O14   V4    S    
C21   C31   A    
O19   V3    S    
C10   C12   A    
O9    V2    S    
C22   C32   A    
C44   C46   A    
O10   V1    S    
C21   H13   S    
C44   N2    S    
C27   C29   A    
C6    C20   S    
C53   O18   A    
C57   H31   S    
C16   C18   S    
