data_mof_unit_48923.cif
_audit_creation_date              2012-12-11T17:14:04-0500
_audit_creation_method            fapswitch 2.2
_symmetry_space_group_name_H-M    P1
_symmetry_Int_Tables_number       1
_space_group_crystal_system       triclinic
_cell_length_a                    18.208989
_cell_length_b                    7.110818
_cell_length_c                    12.968013
_cell_angle_alpha                 90.009502
_cell_angle_beta                  72.930878
_cell_angle_gamma                 90.005521
_cell_volume                      1605.14627075

loop_
_atom_site_label
_atom_site_type_symbol
_atom_type_description
_atom_site_fract_x
_atom_site_fract_y
_atom_site_fract_z
_atom_type_partial_charge
O1    O     O_R   0.453880 0.506200 0.150010 -0.536921
O2    O     O_R   0.546120 0.006200 0.849990 -0.544569
O3    O     O_R   0.604080 0.177770 0.007280 -0.554449
O4    O     O_R   0.395920 0.677770 0.992720 -0.534374
C1    C     C_R   0.635969 0.344426 0.001605 0.736062
C2    C     C_R   0.364028 0.844403 0.998401 0.737554
O5    O     O_R   0.458010 0.176640 0.159130 -0.541566
O6    O     O_R   0.541990 0.676640 0.840870 -0.533335
O7    O     O_R   0.399010 0.004010 0.002930 -0.552316
O8    O     O_R   0.600990 0.504010 0.997070 -0.539385
C3    C     C_R   0.439876 0.344855 0.200824 0.691339
C4    C     C_R   0.560191 0.844734 0.799253 0.690379
O9    O     O_3   0.480810 0.338440 0.948570 -0.375431
O10   O     O_3   0.519190 0.838440 0.051430 -0.377885
V1    V     V_3+5 0.503560 0.064490 0.009540 1.390637
V2    V     V_3+5 0.496440 0.564490 0.990460 1.446060
C5    C     C_R   0.591600 0.882784 0.504544 -0.138553
C6    C     C_R   0.408591 0.394957 0.495261 -0.142869
H1    H     H_    0.496104 0.897211 0.646006 0.126930
H2    H     H_    0.503885 0.409980 0.353347 0.141840
H3    H     H_    0.554461 0.892759 0.453026 0.173405
H4    H     H_    0.445656 0.410146 0.546592 0.177711
C7    C     C_R   0.602242 0.854080 0.684565 -0.128217
C8    C     C_R   0.398077 0.355183 0.315682 -0.131469
C9    C     C_R   0.962635 0.920809 0.379038 0.384251
C10   C     C_R   0.037447 0.417843 0.620809 0.382301
C11   C     C_R   0.931161 0.965685 0.488648 -0.370068
C12   C     C_R   0.068672 0.458046 0.510478 -0.370872
C13   C     C_R   0.851592 0.951363 0.542281 0.469391
C14   C     C_R   0.148385 0.445893 0.457147 0.471520
C15   C     C_R   0.801213 0.886053 0.483468 0.011052
C16   C     C_R   0.199034 0.385170 0.516655 0.011623
C17   C     C_R   0.832376 0.856832 0.370096 -0.137955
C18   C     C_R   0.168025 0.360088 0.630340 -0.136662
C19   C     C_R   0.719433 0.867385 0.530762 -0.017090
C20   C     C_R   0.280904 0.368639 0.469563 -0.016666
C21   C     C_R   0.671482 0.868881 0.461399 -0.029259
C22   C     C_R   0.328882 0.376419 0.538755 -0.032468
C23   C     C_R   0.703525 0.851556 0.349564 0.455648
C24   C     C_R   0.297106 0.358438 0.650650 0.457561
C25   C     C_R   0.782507 0.831556 0.306354 -0.224869
C26   C     C_R   0.217988 0.342905 0.694609 -0.225811
C27   C     C_R   0.684147 0.836136 0.643190 0.468012
C28   C     C_R   0.316327 0.334380 0.357495 0.467274
C29   C     C_R   0.557979 0.883883 0.614841 -0.240627
C30   C     C_R   0.442140 0.392765 0.384866 -0.242407
C31   C     C_R   0.912557 0.868182 0.319995 -0.142310
C32   C     C_R   0.087751 0.368640 0.680134 -0.142008
H5    H     H_    0.968434 0.024775 0.530677 0.135174
H6    H     H_    0.031140 0.511313 0.467218 0.133636
H7    H     H_    0.804274 0.806193 0.220449 0.129739
H8    H     H_    0.196195 0.328526 0.781349 0.127729
C33   C     C_1   0.216174 0.858769 0.000930 -0.188902
C34   C     C_1   0.783809 0.358831 0.999146 -0.190034
C35   C     C_1   0.283502 0.852383 0.999670 -0.193589
C36   C     C_1   0.716484 0.352496 0.000391 -0.195762
O11   O     O_R   0.899030 0.205490 0.002790 -0.545102
O12   O     O_R   0.100970 0.705490 0.997210 -0.540027
O13   O     O_R   0.042000 0.536370 0.840840 -0.530914
O14   O     O_R   0.958000 0.036370 0.159160 -0.531558
C37   C     C_R   0.056365 0.369004 0.798327 0.775921
C38   C     C_R   0.943701 0.868923 0.201721 0.772382
O15   O     O_R   0.895930 0.535070 0.992690 -0.535647
O16   O     O_R   0.104070 0.035070 0.007310 -0.538554
O17   O     O_R   0.953870 0.707520 0.150040 -0.550503
O18   O     O_R   0.046130 0.207520 0.849960 -0.551196
C39   C     C_R   0.864242 0.366785 0.998364 0.748540
C40   C     C_R   0.135751 0.866786 0.001670 0.748430
O19   O     O_3   0.019200 0.374340 0.051340 -0.381141
O20   O     O_3   0.980800 0.874340 0.948660 -0.382052
V3    V     V_3+5 0.996440 0.648350 0.990470 1.436808
V4    V     V_3+5 0.003560 0.148350 0.009530 1.428271
O21   O     O_3   0.656785 0.832689 0.283129 -0.560429
C41   C     C_3   0.657954 0.002912 0.226996 -0.256003
H9    H     H_    0.715404 0.028646 0.168496 0.136365
H10   H     H_    0.640516 0.124246 0.283269 0.125590
H11   H     H_    0.615769 0.992280 0.180659 0.191237
O22   O     O_3   0.343559 0.361780 0.718197 -0.558179
C42   C     C_3   0.352234 0.176350 0.751464 -0.252038
H12   H     H_    0.373785 0.080138 0.681280 0.125758
H13   H     H_    0.297420 0.122138 0.806513 0.136637
H14   H     H_    0.395316 0.176906 0.796737 0.180756
O23   O     O_3   0.728466 0.742387 0.698761 -0.561100
C43   C     C_3   0.714752 0.800388 0.806793 -0.175482
H15   H     H_    0.669900 0.713955 0.860649 0.155856
H16   H     H_    0.701634 0.953163 0.818773 0.140275
H17   H     H_    0.766334 0.768821 0.832373 0.142032
O24   O     O_3   0.272583 0.236058 0.302909 -0.560935
C44   C     C_3   0.284894 0.293387 0.195045 -0.170170
H18   H     H_    0.329915 0.208246 0.140745 0.156237
H19   H     H_    0.297251 0.446427 0.182505 0.139347
H20   H     H_    0.233004 0.259468 0.170693 0.143676
O25   O     O_3   0.039862 0.950225 0.321094 -0.570032
C45   C     C_3   0.090219 0.962374 0.385426 -0.238958
H21   H     H_    0.080092 0.848559 0.446717 0.150857
H22   H     H_    0.085836 0.102148 0.424126 0.147033
H23   H     H_    0.150004 0.947282 0.332356 0.211983
O26   O     O_3   0.960160 0.446285 0.679042 -0.571121
C46   C     C_3   0.910028 0.470563 0.615237 -0.237091
H24   H     H_    0.916886 0.357508 0.554000 0.153742
H25   H     H_    0.918095 0.610978 0.576843 0.144043
H26   H     H_    0.850062 0.463755 0.668632 0.212500
O27   O     O_3   0.820432 0.035293 0.643116 -0.547698
C47   C     C_3   0.867545 0.014484 0.712302 -0.209838
H27   H     H_    0.916419 0.113036 0.692113 0.163581
H28   H     H_    0.888266 0.867516 0.713205 0.152180
H29   H     H_    0.833745 0.053104 0.795503 0.147072
O28   O     O_3   0.179373 0.527942 0.355692 -0.548709
C48   C     C_3   0.131702 0.508583 0.287157 -0.217917
H30   H     H_    0.083643 0.609739 0.307252 0.161877
H31   H     H_    0.109832 0.362469 0.287251 0.156391
H32   H     H_    0.165492 0.544802 0.203566 0.148890

loop_
_geom_bond_atom_site_label_1
_geom_bond_atom_site_label_2
_ccdc_geom_bond_type
C14   C16   A    
C9    O25   S    
O25   C45   S    
C7    C29   A    
C11   C13   A    
C27   O23   S    
O21   C41   S    
C1    C36   S    
O1    C3    A    
C43   H17   S    
C2    C35   S    
O2    C4    A    
C2    O7    A    
C47   H28   S    
C23   C25   A    
O5    C3    A    
C4    C7    S    
C41   H10   S    
C16   C20   A    
C19   C21   A    
C5    C29   A    
C48   H31   S    
O12   V3    S    
O14   V4    S    
C3    C8    S    
C7    C27   A    
O28   C48   S    
C13   O27   S    
O14   C38   A    
O19   V3    S    
C33   C40   S    
O5    V1    S    
C12   H6    S    
C37   O18   A    
O18   V4    S    
C46   H24   S    
C41   H11   S    
C18   C26   A    
C15   C17   A    
O20   V3    S    
C44   H19   S    
C19   C27   A    
C9    C31   A    
C10   C32   A    
C31   C38   S    
C24   C26   A    
O6    V2    S    
O11   C39   A    
C6    C30   A    
C47   H27   S    
C34   C36   T    
C33   C35   T    
O15   C39   A    
O13   C37   A    
C41   H9    S    
C43   H15   S    
O4    C2    A    
C48   H32   S    
C42   H13   S    
O22   C42   S    
C34   C39   S    
C45   H23   S    
O17   V3    S    
C5    H3    S    
C16   C18   A    
O4    V2    S    
O19   V4    S    
O23   C43   S    
O6    C4    A    
O1    V2    S    
C5    C21   A    
C44   H20   S    
C45   H22   S    
O2    V1    S    
C10   O26   S    
C23   O21   S    
O12   C40   A    
C46   H25   S    
O15   V3    S    
C17   C31   A    
C15   C19   A    
C20   C28   A    
C18   C32   A    
O16   C40   A    
O3    V1    S    
C38   O17   A    
C14   O28   S    
C6    H4    S    
C43   H16   S    
O3    C1    A    
C42   H14   S    
H1    C29   S    
C9    C11   A    
C10   C12   A    
C8    C30   A    
C20   C22   A    
C6    C22   A    
C17   C25   A    
C1    O8    A    
C21   C23   A    
O8    V2    S    
C48   H30   S    
C22   C24   A    
C32   C37   S    
C8    C28   A    
C12   C14   A    
C24   O22   S    
O16   V4    S    
O11   V4    S    
O7    V1    S    
C45   H21   S    
C42   H12   S    
C46   H26   S    
O24   C44   S    
C13   C15   A    
O26   C46   S    
O9    V2    S    
C26   H8    S    
O27   C47   S    
O10   V1    S    
O20   V4    S    
C44   H18   S    
C28   O24   S    
C25   H7    S    
C47   H29   S    
H2    C30   S    
C11   H5    S    
O13   V3    S    
