data_mof_unit_34276.cif
_audit_creation_date              2013-03-05T15:51:40-0500
_audit_creation_method            fapswitch 2.2
_symmetry_space_group_name_H-M    P1
_symmetry_Int_Tables_number       1
_space_group_crystal_system       triclinic
_cell_length_a                    30.176972
_cell_length_b                    22.611797
_cell_length_c                    18.179137
_cell_angle_alpha                 89.823846
_cell_angle_beta                  123.06226
_cell_angle_gamma                 89.880645
_cell_volume                      10395.9011989

loop_
_atom_site_label
_atom_site_type_symbol
_atom_site_description
_atom_site_fract_x
_atom_site_fract_y
_atom_site_fract_z
_atom_type_partial_charge
C1    C     C_R   0.541678 0.587941 0.735724 -0.120035
C2    C     C_R   0.459415 0.411664 0.265624 -0.127223
C3    C     C_R   0.457942 0.585832 0.262536 -0.116803
C4    C     C_R   0.540456 0.410615 0.733776 -0.127123
C5    C     C_R   0.041476 0.088804 0.734995 -0.121163
C6    C     C_R   0.960394 0.908123 0.269000 -0.135021
C7    C     C_R   0.957985 0.087837 0.263664 -0.121185
C8    C     C_R   0.038351 0.902351 0.725331 -0.129351
H1    H     H_    0.514781 0.588439 0.757560 0.095921
H2    H     H_    0.486730 0.411016 0.244852 0.085482
H3    H     H_    0.485408 0.585091 0.241945 0.090561
H4    H     H_    0.513242 0.409771 0.754732 0.084787
H5    H     H_    0.014707 0.089740 0.757102 0.093299
H6    H     H_    0.987586 0.906035 0.248050 0.087411
H7    H     H_    0.984643 0.088131 0.241326 0.092171
H8    H     H_    0.010878 0.896048 0.744963 0.088393
N1    N     N_R   0.532910 0.558440 0.665240 -0.043578
N2    N     N_R   0.467090 0.441560 0.334760 -0.042362
N3    N     N_R   0.467090 0.558440 0.334760 -0.043770
N4    N     N_R   0.532910 0.441560 0.665240 -0.042379
N5    N     N_R   0.032910 0.058440 0.665240 -0.043451
N6    N     N_R   0.967090 0.941560 0.334760 -0.041061
N7    N     N_R   0.967090 0.058440 0.334760 -0.042992
N8    N     N_R   0.032910 0.941560 0.665240 -0.041882
C9    C     C_R   0.644541 0.580560 0.572962 -0.119776
C10   C     C_R   0.370302 0.394554 0.428698 -0.106030
C11   C     C_R   0.355453 0.581082 0.426741 -0.121766
C12   C     C_R   0.630630 0.395088 0.571713 -0.101447
C13   C     C_R   0.144360 0.081198 0.572681 -0.120891
C14   C     C_R   0.867584 0.897375 0.428424 -0.105170
C15   C     C_R   0.855319 0.080674 0.426935 -0.119330
C16   C     C_R   0.132668 0.897528 0.572962 -0.088826
H9    H     H_    0.677528 0.577982 0.640409 0.124558
H10   H     H_    0.341204 0.382934 0.361826 0.166511
H11   H     H_    0.321908 0.576925 0.359942 0.108605
H12   H     H_    0.660253 0.383747 0.638639 0.166874
H13   H     H_    0.177629 0.078900 0.639963 0.134072
H14   H     H_    0.837541 0.886755 0.361585 0.163069
H15   H     H_    0.822253 0.078108 0.359599 0.129103
H16   H     H_    0.164022 0.888744 0.639705 0.158362
N9    N     N_R   0.597030 0.558910 0.545540 -0.043341
N10   N     N_R   0.402970 0.441090 0.454460 -0.048283
N11   N     N_R   0.402970 0.558910 0.454460 -0.041975
N12   N     N_R   0.597030 0.441090 0.545540 -0.049207
N13   N     N_R   0.097030 0.058910 0.545540 -0.044437
N14   N     N_R   0.902970 0.941090 0.454460 -0.048354
N15   N     N_R   0.902970 0.058910 0.454460 -0.043801
N16   N     N_R   0.097030 0.941090 0.545540 -0.050085
C17   C     C_R   0.596018 0.580657 0.426697 -0.117270
C18   C     C_R   0.419207 0.396054 0.575598 -0.116590
C19   C     C_R   0.404126 0.581626 0.573036 -0.114147
C20   C     C_R   0.581496 0.396630 0.424755 -0.118294
C21   C     C_R   0.095508 0.081498 0.426340 -0.117196
C22   C     C_R   0.915838 0.899324 0.575159 -0.123261
C23   C     C_R   0.903931 0.080641 0.573181 -0.115455
C24   C     C_R   0.081534 0.895140 0.426465 -0.128342
H17   H     H_    0.585397 0.577142 0.359677 0.091966
H18   H     H_    0.435283 0.385704 0.643509 0.095364
H19   H     H_    0.415192 0.579489 0.640410 0.094471
H20   H     H_    0.565467 0.386466 0.356888 0.097567
H21   H     H_    0.084840 0.078197 0.359257 0.093053
H22   H     H_    0.929579 0.890931 0.642660 0.091288
H23   H     H_    0.914621 0.076897 0.640254 0.091463
H24   H     H_    0.065942 0.883618 0.359229 0.094425
N17   N     N_R   0.566200 0.559270 0.454460 -0.042757
N18   N     N_R   0.433800 0.440730 0.545540 -0.043285
N19   N     N_R   0.433800 0.559270 0.545540 -0.043276
N20   N     N_R   0.566200 0.440730 0.454460 -0.043041
N21   N     N_R   0.066200 0.059270 0.454460 -0.042593
N22   N     N_R   0.933800 0.940730 0.545540 -0.041446
N23   N     N_R   0.933800 0.059270 0.545540 -0.042634
N24   N     N_R   0.066200 0.940730 0.454460 -0.041403
C25   C     C_R   0.383378 0.586726 0.261246 -0.121028
C26   C     C_R   0.614542 0.407419 0.734411 -0.081075
C27   C     C_R   0.615853 0.588880 0.735392 -0.120289
C28   C     C_R   0.385202 0.408896 0.264619 -0.080421
C29   C     C_R   0.883970 0.088926 0.264456 -0.119185
C30   C     C_R   0.112469 0.901333 0.726018 -0.081765
C31   C     C_R   0.115533 0.089888 0.734178 -0.115459
C32   C     C_R   0.886429 0.905113 0.268934 -0.085768
H25   H     H_    0.342070 0.585952 0.238826 0.128478
H26   H     H_    0.655404 0.402437 0.755551 0.130961
H27   H     H_    0.657125 0.588198 0.757702 0.160283
H28   H     H_    0.344233 0.404733 0.243107 0.133834
H29   H     H_    0.842720 0.088082 0.242169 0.164586
H30   H     H_    0.152622 0.894242 0.745110 0.142223
H31   H     H_    0.156771 0.089708 0.756370 0.168711
H32   H     H_    0.845896 0.899193 0.248836 0.131833
N25   N     N_R   0.421050 0.559750 0.334770 -0.044482
N26   N     N_R   0.578950 0.440250 0.665230 -0.048471
N27   N     N_R   0.578950 0.559750 0.665230 -0.046490
N28   N     N_R   0.421050 0.440250 0.334770 -0.049023
N29   N     N_R   0.921050 0.059750 0.334770 -0.046830
N30   N     N_R   0.078950 0.940250 0.665230 -0.047973
N31   N     N_R   0.078950 0.059750 0.665230 -0.047458
N32   N     N_R   0.921050 0.940250 0.334770 -0.047669
C33   C     C_R   0.593597 0.608020 0.781187 0.061050
C34   C     C_R   0.409270 0.387850 0.222014 0.079652
C35   C     C_R   0.405381 0.604169 0.213955 0.062690
C36   C     C_R   0.590296 0.385627 0.776411 0.075522
C37   C     C_R   0.093121 0.109650 0.779325 0.059357
C38   C     C_R   0.911315 0.881600 0.229094 0.073285
C39   C     C_R   0.905962 0.107946 0.218258 0.059842
C40   C     C_R   0.086700 0.873756 0.761063 0.062126
C41   C     C_R   0.645907 0.593258 0.499818 0.042031
C42   C     C_R   0.380826 0.365041 0.504051 0.041479
C43   C     C_R   0.354280 0.594814 0.499626 0.040875
C44   C     C_R   0.620547 0.365987 0.496646 0.038553
C45   C     C_R   0.145227 0.094632 0.499224 0.040798
C46   C     C_R   0.876203 0.869623 0.503496 0.038769
C47   C     C_R   0.853938 0.093316 0.500011 0.041177
C48   C     C_R   0.121987 0.866305 0.499874 0.035129
Ni1   Ni    Ni4+2 0.483090 0.500000 0.604440 0.214554
Ni2   Ni    Ni4+2 0.516910 0.500000 0.395560 0.215100
Ni3   Ni    Ni4+2 0.983090 0.000000 0.604440 0.216189
Ni4   Ni    Ni4+2 0.016910 0.000000 0.395560 0.216102
Ni5   Ni    Ni4+2 0.586780 0.500000 0.604440 0.241402
Ni6   Ni    Ni4+2 0.413220 0.500000 0.395560 0.237801
Ni7   Ni    Ni4+2 0.086780 0.000000 0.604440 0.243889
Ni8   Ni    Ni4+2 0.913220 0.000000 0.395560 0.242480
C49   C     C_R   0.218128 0.650717 0.419579 -0.145327
C50   C     C_R   0.667867 0.208936 0.540812 -0.091717
C51   C     C_R   0.787056 0.629833 0.583899 -0.146072
C52   C     C_R   0.330067 0.209758 0.455333 -0.091816
C53   C     C_R   0.712218 0.127701 0.416944 -0.147789
C54   C     C_R   0.221942 0.746240 0.568376 -0.083438
C55   C     C_R   0.286776 0.126310 0.579323 -0.146493
C56   C     C_R   0.831044 0.712591 0.460969 -0.088646
H33   H     H_    0.186431 0.672298 0.360801 0.125590
H34   H     H_    0.674207 0.173729 0.586186 0.162404
H35   H     H_    0.823978 0.633987 0.647090 0.138993
H36   H     H_    0.320933 0.176126 0.406754 0.169219
H37   H     H_    0.674988 0.131248 0.353994 0.144924
H38   H     H_    0.264197 0.741072 0.613350 0.173549
H39   H     H_    0.324764 0.126535 0.641299 0.147562
H40   H     H_    0.826058 0.677349 0.416851 0.162522
C57   C     C_R   0.260901 0.628762 0.419260 -0.144494
C58   C     C_R   0.646624 0.262591 0.544687 -0.039815
C59   C     C_R   0.743808 0.604744 0.579629 -0.146172
C60   C     C_R   0.351896 0.263042 0.452173 -0.050604
C61   C     C_R   0.755831 0.103701 0.420870 -0.144780
C62   C     C_R   0.199009 0.799857 0.565637 -0.041111
C63   C     C_R   0.243242 0.102572 0.575747 -0.143300
C64   C     C_R   0.851715 0.766491 0.457049 -0.041081
H41   H     H_    0.259930 0.632518 0.359086 0.121264
H42   H     H_    0.633446 0.267701 0.588588 0.200885
H43   H     H_    0.749422 0.587892 0.639816 0.143981
H44   H     H_    0.362408 0.269278 0.404927 0.203673
H45   H     H_    0.750269 0.087046 0.360773 0.147584
H46   H     H_    0.223403 0.834204 0.611253 0.156181
H47   H     H_    0.249322 0.082802 0.634795 0.148591
H48   H     H_    0.865917 0.771854 0.414537 0.198127
C65   C     C_R   0.306076 0.608370 0.497580 0.119295
C66   C     C_R   0.641957 0.309800 0.491215 0.091682
C67   C     C_R   0.693708 0.606556 0.500532 0.113414
C68   C     C_R   0.359965 0.308558 0.509904 0.090308
C69   C     C_R   0.806088 0.106141 0.499519 0.114441
C70   C     C_R   0.145714 0.809970 0.501664 0.104222
C71   C     C_R   0.192487 0.108523 0.498824 0.114786
C72   C     C_R   0.854692 0.813689 0.508846 0.091984
C73   C     C_R   0.305074 0.603572 0.573681 -0.150839
C74   C     C_R   0.654016 0.301857 0.427797 -0.160455
C75   C     C_R   0.689454 0.625424 0.423419 -0.149175
C76   C     C_R   0.350758 0.298873 0.576498 -0.158474
C77   C     C_R   0.810401 0.124809 0.576583 -0.151654
C78   C     C_R   0.114920 0.765311 0.442029 -0.134439
C79   C     C_R   0.187040 0.131433 0.422651 -0.152690
C80   C     C_R   0.841539 0.805605 0.570876 -0.168462
H49   H     H_    0.338351 0.585977 0.634271 0.133030
H50   H     H_    0.649362 0.337739 0.384441 0.122674
H51   H     H_    0.651857 0.626198 0.361029 0.129751
H52   H     H_    0.357773 0.333355 0.622868 0.119012
H53   H     H_    0.848159 0.126175 0.638641 0.126968
H54   H     H_    0.073342 0.772454 0.392890 0.130599
H55   H     H_    0.148673 0.135997 0.362113 0.124788
H56   H     H_    0.845068 0.841490 0.613091 0.124815
C81   C     C_R   0.262254 0.625956 0.574004 -0.127728
C82   C     C_R   0.674455 0.248209 0.422655 -0.137661
C83   C     C_R   0.732961 0.649759 0.427750 -0.109551
C84   C     C_R   0.329538 0.245594 0.580597 -0.135086
C85   C     C_R   0.766606 0.148115 0.572586 -0.109789
C86   C     C_R   0.137972 0.711162 0.445251 -0.141819
C87   C     C_R   0.230621 0.154651 0.426251 -0.111151
C88   C     C_R   0.821690 0.751630 0.576171 -0.148721
H57   H     H_    0.772176 0.167943 0.630855 0.194049
H58   H     H_    0.114625 0.677738 0.396741 0.142566
H59   H     H_    0.224340 0.177803 0.369385 0.191125
H60   H     H_    0.808440 0.747292 0.620600 0.128370
H61   H     H_    0.264363 0.627734 0.635416 0.166384
H62   H     H_    0.686919 0.244225 0.377142 0.127765
H63   H     H_    0.727431 0.669716 0.369347 0.195178
H64   H     H_    0.318983 0.240607 0.628481 0.128121
C89   C     C_R   0.220575 0.653663 0.498531 0.086216
C90   C     C_R   0.683159 0.202111 0.481151 0.070969
C91   C     C_R   0.780564 0.656505 0.509166 0.085345
C92   C     C_R   0.317132 0.201670 0.517841 0.067606
C93   C     C_R   0.718512 0.154041 0.491536 0.083985
C94   C     C_R   0.191852 0.701780 0.507957 0.072029
C95   C     C_R   0.279868 0.155826 0.506020 0.085476
C96   C     C_R   0.814809 0.705451 0.519306 0.071799
C97   C     C_R   0.376127 0.626120 0.122427 0.126185
C98   C     C_R   0.609263 0.337693 0.842429 0.126831
C99   C     C_R   0.624239 0.631552 0.870707 0.130506
C100  C     C_R   0.389485 0.341941 0.153572 0.128109
C101  C     C_R   0.874653 0.131052 0.128421 0.132284
C102  C     C_R   0.102649 0.817058 0.809695 0.124355
C103  C     C_R   0.123959 0.134426 0.867759 0.132047
C104  C     C_R   0.893344 0.831475 0.167309 0.127556
C105  C     C_R   0.373361 0.655612 0.991075 -0.041731
C106  C     C_R   0.590041 0.259671 0.914204 -0.060360
C107  C     C_R   0.639297 0.646008 0.015083 -0.035481
C108  C     C_R   0.407575 0.265626 0.078483 -0.057874
C109  C     C_R   0.856342 0.142176 0.981352 -0.035496
C110  C     C_R   0.078268 0.721812 0.840466 -0.062274
C111  C     C_R   0.143514 0.145234 0.015459 -0.036768
C112  C     C_R   0.913711 0.749806 0.102690 -0.046802
C113  C     C_R   0.400998 0.632932 0.076621 -0.258065
C114  C     C_R   0.576407 0.312754 0.866487 -0.241406
C115  C     C_R   0.606942 0.627181 0.927874 -0.254831
C116  C     C_R   0.421967 0.317434 0.128428 -0.240946
C117  C     C_R   0.890094 0.124278 0.069096 -0.258231
C118  C     C_R   0.065196 0.779917 0.808254 -0.244147
C119  C     C_R   0.109623 0.126817 0.928369 -0.253976
C120  C     C_R   0.927562 0.803289 0.148767 -0.252483
C121  C     C_R   0.322012 0.637292 0.078558 -0.155425
C122  C     C_R   0.656137 0.309227 0.867578 -0.149704
C123  C     C_R   0.674743 0.652291 0.902090 -0.166446
C124  C     C_R   0.342069 0.314553 0.126836 -0.140277
C125  C     C_R   0.824773 0.153183 0.099065 -0.170519
C126  C     C_R   0.153209 0.795142 0.842457 -0.163190
C127  C     C_R   0.172758 0.158502 0.894920 -0.169559
C128  C     C_R   0.845299 0.805167 0.139819 -0.151125
C129  C     C_R   0.292762 0.657265 0.991434 0.130906
C130  C     C_R   0.667648 0.252818 0.905368 0.142526
C131  C     C_R   0.709751 0.665326 0.990305 0.133212
C132  C     C_R   0.329967 0.258927 0.087343 0.137919
C133  C     C_R   0.788405 0.165039 0.010903 0.135636
C134  C     C_R   0.166049 0.735691 0.866841 0.138831
C135  C     C_R   0.209561 0.170878 0.982607 0.135125
C136  C     C_R   0.832906 0.748763 0.102529 0.140309
C137  C     C_R   0.320400 0.676140 0.952897 0.028254
C138  C     C_R   0.639056 0.231164 0.941014 0.030377
C139  C     C_R   0.689452 0.672044 0.044162 0.025509
C140  C     C_R   0.358286 0.237891 0.050897 0.029467
C141  C     C_R   0.806806 0.169590 0.954121 0.025253
C142  C     C_R   0.131348 0.700836 0.878851 0.034794
C143  C     C_R   0.192091 0.173960 0.040797 0.024876
C144  C     C_R   0.863045 0.724412 0.071425 0.029766
C145  C     C_R   0.237514 0.665902 0.947257 -0.119290
C146  C     C_R   0.709664 0.219799 0.912841 -0.115576
C147  C     C_R   0.762942 0.678547 0.021892 -0.120134
C148  C     C_R   0.287996 0.225906 0.079706 -0.114288
C149  C     C_R   0.735961 0.179883 0.982304 -0.119280
C150  C     C_R   0.214850 0.712243 0.886029 -0.116221
C151  C     C_R   0.261551 0.186700 0.009775 -0.118081
C152  C     C_R   0.788745 0.718382 0.091132 -0.114424
C153  C     C_R   0.726959 0.226981 0.854491 0.341179
C154  C     C_R   0.204895 0.631091 0.964654 0.312466
C155  C     C_R   0.271257 0.231879 0.138999 0.342310
C156  C     C_R   0.790495 0.654510 0.985180 0.318684
C157  C     C_R   0.242398 0.734815 0.848377 0.331567
C158  C     C_R   0.710053 0.158091 0.023111 0.321310
C159  C     C_R   0.769379 0.727603 0.146191 0.340357
C160  C     C_R   0.287129 0.165960 0.967856 0.321899
C161  C     C_R   0.776027 0.202990 0.875648 -0.256722
C162  C     C_R   0.151668 0.647972 0.929633 -0.286037
C163  C     C_R   0.222896 0.206941 0.119055 -0.253827
C164  C     C_R   0.840798 0.676904 0.010606 -0.279968
C165  C     C_R   0.295144 0.716817 0.881824 -0.263300
C166  C     C_R   0.661246 0.183164 0.001739 -0.287150
C167  C     C_R   0.719229 0.705765 0.122020 -0.258324
C168  C     C_R   0.335717 0.191095 0.988925 -0.283059
H65   H     H_    0.683494 0.330503 0.855495 0.143366
H66   H     H_    0.302868 0.634062 0.113984 0.131235
H67   H     H_    0.314918 0.335825 0.139485 0.145882
H68   H     H_    0.686664 0.659927 0.856636 0.131622
H69   H     H_    0.183075 0.825005 0.849499 0.144375
H70   H     H_    0.814335 0.162559 0.146036 0.130804
H71   H     H_    0.817327 0.828452 0.148592 0.142088
H72   H     H_    0.182030 0.168401 0.846578 0.133720
H73   H     H_    0.538378 0.332539 0.844092 0.107316
H74   H     H_    0.441765 0.619629 0.106211 0.110561
H75   H     H_    0.460275 0.336438 0.151668 0.107851
H76   H     H_    0.569260 0.606854 0.906019 0.114193
H77   H     H_    0.024583 0.794757 0.776799 0.113062
H78   H     H_    0.927260 0.102710 0.089822 0.111980
H79   H     H_    0.966650 0.820898 0.174349 0.106987
H80   H     H_    0.073381 0.103922 0.909252 0.112044
C169  C     C_2   0.399878 0.650573 0.942605 0.473519
H81   H     H_    0.442649 0.653325 0.977786 0.002557
O1    O     O_2   0.374670 0.639435 0.864262 -0.573612
C170  C     C_2   0.547830 0.233000 0.921571 0.499291
H82   H     H_    0.524575 0.260721 0.937024 -0.008070
O2    O     O_2   0.535961 0.181038 0.903833 -0.523908
C171  C     C_2   0.621522 0.629850 0.074078 0.468517
H83   H     H_    0.579600 0.629375 0.048950 0.002761
O3    O     O_2   0.653040 0.613065 0.149184 -0.570414
C172  C     C_2   0.449389 0.238993 0.069846 0.496604
H84   H     H_    0.472791 0.266961 0.055073 -0.009736
O4    O     O_2   0.460787 0.186646 0.085810 -0.524729
C173  C     C_2   0.871956 0.123688 0.920385 0.469028
H85   H     H_    0.913508 0.121671 0.943198 0.000653
O5    O     O_2   0.839040 0.106741 0.846342 -0.570241
C174  C     C_2   0.033003 0.683798 0.819841 0.497174
H86   H     H_    0.001222 0.701621 0.824591 0.001389
O6    O     O_2   0.028792 0.633974 0.791063 -0.530763
C175  C     C_2   0.129303 0.125676 0.077896 0.470270
H87   H     H_    0.088018 0.123287 0.056551 -0.000159
O7    O     O_2   0.163100 0.108196 0.151440 -0.564785
C176  C     C_2   0.956902 0.719412 0.101712 0.476468
H88   H     H_    0.983395 0.744784 0.090950 -0.002671
O8    O     O_2   0.965781 0.666853 0.119552 -0.536645
N33   N     N_R   0.691982 0.253235 0.769834 0.232795
O9    O     O_R   0.706069 0.300773 0.747337 -0.461379
O10   O     O_R   0.643011 0.235922 0.722612 -0.418518
N34   N     N_R   0.224341 0.575837 0.011378 0.248038
O11   O     O_R   0.225098 0.566353 0.082727 -0.420326
O12   O     O_R   0.244474 0.536417 0.985625 -0.357842
N35   N     N_R   0.306129 0.257803 0.223520 0.231214
O13   O     O_R   0.291420 0.304595 0.246448 -0.462090
O14   O     O_R   0.355212 0.240394 0.271000 -0.417976
N36   N     N_R   0.769782 0.603884 0.928393 0.244076
O15   O     O_R   0.761813 0.605747 0.850455 -0.446917
O16   O     O_R   0.756612 0.556694 0.953172 -0.363743
N37   N     N_R   0.215666 0.772269 0.771910 0.232572
O17   O     O_R   0.233899 0.824696 0.773566 -0.456495
O18   O     O_R   0.170878 0.755784 0.702941 -0.394200
N38   N     N_R   0.730942 0.107351 0.080495 0.243269
O19   O     O_R   0.740560 0.109822 0.159477 -0.451116
O20   O     O_R   0.742767 0.059432 0.055187 -0.364770
N39   N     N_R   0.803657 0.752601 0.231561 0.233972
O21   O     O_R   0.790424 0.801305 0.252912 -0.456740
O22   O     O_R   0.851626 0.732180 0.281567 -0.421212
N40   N     N_R   0.266441 0.115828 0.910074 0.241783
O23   O     O_R   0.256006 0.119536 0.830629 -0.451680
O24   O     O_R   0.256192 0.066968 0.935909 -0.363293
C177  C     C_2   0.798518 0.221699 0.824208 0.759872
H89   H     H_    0.840114 0.232760 0.857751 -0.064547
O25   O     O_2   0.771354 0.224051 0.744309 -0.577480
C178  C     C_2   0.120576 0.614133 0.956452 0.816018
H90   H     H_    0.098822 0.637381 0.979302 -0.094545
O26   O     O_2   0.117915 0.560279 0.951167 -0.494198
C179  C     C_2   0.201231 0.223771 0.172340 0.766274
H91   H     H_    0.159659 0.234956 0.140206 -0.067750
O27   O     O_2   0.229092 0.224173 0.252248 -0.581267
C180  C     C_2   0.866021 0.655132 0.964901 0.827922
H92   H     H_    0.881393 0.686436 0.938926 -0.119544
O28   O     O_2   0.871118 0.602235 0.957988 -0.499603
C181  C     C_2   0.326165 0.748386 0.852774 0.783611
H93   H     H_    0.365761 0.763700 0.901098 -0.063585
O29   O     O_2   0.308670 0.755999 0.775136 -0.572675
C182  C     C_2   0.637896 0.163472 0.051379 0.828863
H94   H     H_    0.625506 0.195943 0.080542 -0.108027
O30   O     O_2   0.631100 0.111031 0.058204 -0.493136
C183  C     C_2   0.694926 0.726788 0.169648 0.760656
H95   H     H_    0.653508 0.739478 0.133150 -0.064342
O31   O     O_2   0.720257 0.729090 0.249541 -0.570597
C184  C     C_2   0.358560 0.172756 0.937977 0.829727
H96   H     H_    0.370743 0.206020 0.909415 -0.112169
O32   O     O_2   0.365266 0.120562 0.929529 -0.492606

loop_
_geom_bond_atom_site_label_1
_geom_bond_atom_site_label_2
_geom_bond_distance
_ccdc_geom_bond_type
N36   O16   1.301383 A    
N21   Ni4   1.853227 S    
C111  C143  1.432503 A    
C21   N21   1.337816 A    
C130  C146  1.411018 A    
C31   H31   1.078692 S    
C177  H89   1.084945 S    
C9    C41   1.381925 A    
C83   C91   1.399965 A    
C173  H85   1.085648 S    
C114  H73   1.081582 S    
C97   C121  1.393794 A    
C48   C70   1.451522 S    
C134  C150  1.416564 A    
C13   C45   1.382694 A    
N16   N24   1.387983 A    
C154  N34   1.439922 S    
C90   C93   1.459238 S    
C28   C34   1.403029 A    
C14   H14   1.075525 S    
C110  C118  1.402072 A    
C150  C157  1.428498 A    
C24   N24   1.339405 A    
C83   H63   1.078028 S    
C3    N3    1.335124 A    
N29   Ni8   1.838344 S    
C64   C72   1.395695 A    
C5    H5    1.081079 S    
C84   C92   1.403798 A    
C58   C66   1.395676 A    
C146  C149  1.391266 A    
C63   H47   1.080554 S    
C8    H8    1.076113 S    
C28   H28   1.078623 S    
C106  C170  1.480879 S    
C50   C90   1.399964 A    
C99   C123  1.387127 A    
C5    C37   1.391231 A    
C78   H54   1.083370 S    
N13   N21   1.387901 A    
N26   Ni5   1.838344 S    
C153  C161  1.417281 A    
C178  H90   1.085045 S    
C106  C138  1.431230 A    
C9    N9    1.329804 A    
C159  N39   1.433285 S    
C108  C116  1.401339 A    
N31   Ni7   1.842609 S    
C12   N12   1.342621 A    
C65   C73   1.404043 A    
N34   O11   1.301854 A    
C112  C120  1.401853 A    
C147  C156  1.427580 A    
C112  C176  1.480891 S    
C183  H95   1.085030 S    
C22   N22   1.333342 A    
C182  H94   1.085125 S    
C133  C141  1.417541 A    
C55   C63   1.388600 A    
C8    C40   1.388596 A    
C131  C139  1.418383 A    
C81   C89   1.401957 A    
C60   C68   1.396008 A    
C61   C69   1.407928 A    
C14   C46   1.389485 A    
C135  C151  1.411151 A    
C29   C39   1.392056 A    
C172  H84   1.085625 S    
C105  C137  1.426906 A    
C21   C45   1.389264 A    
C23   C47   1.390612 A    
C140  C168  1.423330 A    
N6    N32   1.389824 A    
C141  C161  1.418778 A    
C167  C183  1.485716 S    
C155  N35   1.433806 S    
N22   Ni3   1.853228 S    
C112  C144  1.431069 A    
C105  C113  1.398287 A    
C26   N26   1.342944 A    
C170  O2    1.221002 D    
C121  C129  1.400074 A    
C32   H32   1.077455 S    
C147  C152  1.393738 A    
C30   N30   1.337678 A    
C71   C79   1.399937 A    
C62   C70   1.395488 A    
C6    C38   1.383315 A    
N14   N22   1.387901 A    
C3    H3    1.079754 S    
N11   Ni6   1.839832 S    
C4    N4    1.333484 A    
C5    N5    1.339657 A    
C54   H38   1.081357 S    
C19   C43   1.392097 A    
C107  C171  1.482384 S    
C23   N23   1.338782 A    
N35   O14   1.301684 A    
C103  C119  1.396460 A    
C181  H93   1.085206 S    
N18   Ni1   1.853228 S    
C136  C144  1.418123 A    
C101  C125  1.385509 A    
C78   C86   1.392150 A    
C145  C154  1.424761 A    
C85   C93   1.400012 A    
N1    Ni1   1.852641 S    
C171  O3    1.221172 D    
C101  C117  1.397410 A    
N34   O12   1.301341 A    
C12   C44   1.393275 A    
C153  N33   1.433309 S    
C86   H58   1.083365 S    
N4    Ni1   1.843304 S    
N33   O10   1.301680 A    
C51   C59   1.387066 A    
C17   H17   1.080770 S    
C22   C46   1.373813 A    
C49   C57   1.384937 A    
N37   O18   1.301409 A    
N28   Ni6   1.842611 S    
C20   H20   1.077038 S    
C21   H21   1.081063 S    
C53   C61   1.387823 A    
C88   C96   1.405491 A    
C23   H23   1.080772 S    
C24   H24   1.076207 S    
C122  H65   1.077085 S    
C156  C164  1.418952 A    
C37   C103  1.462781 S    
C157  C165  1.417267 A    
C27   N27   1.326384 A    
C143  C163  1.417999 A    
C54   C94   1.401428 A    
C159  C167  1.416379 A    
C33   C99   1.466979 S    
C29   H29   1.078841 S    
C115  H76   1.082836 S    
C7    C39   1.390502 A    
C160  N40   1.439747 S    
N37   O17   1.301482 A    
C36   C98   1.477381 S    
C132  C148  1.411961 A    
C92   C95   1.458726 S    
C100  C124  1.383425 A    
C136  C152  1.412155 A    
C30   C40   1.392683 A    
C69   C77   1.400963 A    
N40   O23   1.301902 A    
N5    N31   1.389827 A    
C67   C75   1.401211 A    
N7    N29   1.389701 A    
C32   C38   1.401902 A    
C109  C141  1.432035 A    
C6    H6    1.077730 S    
N39   O22   1.301474 A    
C180  O28   1.221205 D    
C59   C67   1.407986 A    
C52   C92   1.400042 A    
C169  H81   1.085701 S    
N14   Ni8   1.835996 S    
C19   N19   1.339890 A    
C184  O32   1.221231 D    
C43   C65   1.466434 S    
C130  C138  1.419154 A    
C148  C151  1.393513 A    
C168  C184  1.484168 S    
N15   Ni8   1.839832 S    
C41   C67   1.467229 S    
C42   C68   1.454114 S    
C179  O27   1.218471 D    
C75   C83   1.386790 A    
C76   H52   1.083218 S    
C4    H4    1.077658 S    
C154  C162  1.418164 A    
C46   C72   1.449853 S    
C10   N10   1.342403 A    
C79   H55   1.082059 S    
C80   H56   1.083383 S    
C183  O31   1.218919 D    
C66   C74   1.397354 A    
C39   C101  1.463545 S    
N38   O19   1.301860 A    
C55   C95   1.398383 A    
C109  C173  1.482217 S    
C104  C120  1.401599 A    
C107  C115  1.401763 A    
C1    N1    1.338993 A    
C122  C130  1.397098 A    
N2    N28   1.389824 A    
C98   C114  1.402237 A    
C64   H48   1.075495 S    
C24   C48   1.382056 A    
C156  N36   1.439814 S    
C113  H74   1.081058 S    
C38   C104  1.478543 S    
C102  C118  1.398295 A    
C7    N7    1.339513 A    
C7    H7    1.080986 S    
C8    N8    1.343160 A    
C137  C165  1.418301 A    
C73   C81   1.389778 A    
C74   C82   1.386066 A    
C126  C134  1.400174 A    
C119  H80   1.083340 S    
C3    C35   1.390804 A    
C120  H79   1.082001 S    
C44   C66   1.451970 S    
N11   N19   1.387983 A    
C15   C47   1.382363 A    
C31   C37   1.391887 A    
N9    Ni5   1.835996 S    
C142  C162  1.424629 A    
C13   N13   1.331553 A    
C161  C177  1.485049 S    
C45   C71   1.464869 S    
N5    Ni3   1.852641 S    
C10   C42   1.393384 A    
C129  C145  1.414022 A    
C98   C122  1.383113 A    
C72   C80   1.396418 A    
C82   C90   1.404865 A    
C100  C116  1.401773 A    
C133  C149  1.409440 A    
C178  O26   1.221174 D    
C108  C172  1.480916 S    
C56   H40   1.083355 S    
C82   H62   1.083529 S    
C102  C126  1.389878 A    
C89   C94   1.457290 S    
C6    N6    1.335744 A    
C27   C33   1.393736 A    
C135  C143  1.417930 A    
N17   Ni2   1.853227 S    
C25   H25   1.079862 S    
N7    Ni4   1.843302 S    
C109  C117  1.402565 A    
C182  O30   1.221223 D    
N27   Ni5   1.842609 S    
C40   C102  1.477512 S    
C75   H51   1.081520 S    
C146  C153  1.423846 A    
C76   C84   1.386259 A    
N13   Ni7   1.835996 S    
N36   O15   1.301886 A    
C145  C150  1.401398 A    
C160  C168  1.418328 A    
C15   N15   1.330709 A    
C35   C97   1.478070 S    
C16   N16   1.335283 A    
C51   C91   1.397115 A    
C172  O4    1.221001 D    
C26   H26   1.078424 S    
C49   C89   1.398191 A    
C177  O25   1.218506 D    
C14   N14   1.340602 A    
N16   Ni7   1.839835 S    
C110  C174  1.480985 S    
C173  O5    1.221169 D    
C175  H87   1.085624 S    
C18   H18   1.076358 S    
C107  C139  1.431599 A    
C1    H1    1.080767 S    
C50   C58   1.390833 A    
C171  H83   1.085710 S    
N10   Ni6   1.835996 S    
C17   C41   1.391142 A    
C22   H22   1.075563 S    
N3    Ni2   1.843302 S    
C54   C62   1.381949 A    
N39   O21   1.301127 A    
C56   C96   1.398927 A    
C31   N31   1.323937 A    
C87   H59   1.077566 S    
C158  C166  1.418621 A    
C57   H41   1.081270 S    
C74   H50   1.083552 S    
C11   C43   1.380912 A    
C59   H43   1.079786 S    
C134  C142  1.420293 A    
C70   C78   1.403565 A    
C176  H88   1.085566 S    
C16   C48   1.380995 A    
C51   H35   1.083727 S    
C105  C169  1.483001 S    
C52   C60   1.390340 A    
C49   H33   1.083737 S    
C26   C36   1.403513 A    
C63   C71   1.407326 A    
N24   Ni4   1.843963 S    
C11   H11   1.080751 S    
C62   H46   1.083082 S    
C47   C69   1.467418 S    
C25   N25   1.336090 A    
C27   H27   1.079197 S    
N33   O9    1.300889 A    
C29   N29   1.323757 A    
C2    C34   1.380340 A    
C116  H75   1.081607 S    
C117  H78   1.083149 S    
C139  C167  1.419137 A    
C155  C163  1.416543 A    
C97   C113  1.400719 A    
N35   O13   1.301092 A    
C11   N11   1.329839 A    
C151  C160  1.427918 A    
C12   H12   1.074975 S    
C152  C159  1.423338 A    
C13   H13   1.079920 S    
C18   C42   1.374864 A    
C148  C155  1.424768 A    
C149  C158  1.427076 A    
C179  H91   1.085003 S    
C2    N2    1.333619 A    
C121  H66   1.076891 S    
C86   C94   1.401014 A    
C131  C147  1.411713 A    
C123  H68   1.079682 S    
C60   H44   1.074667 S    
C61   H45   1.079956 S    
C158  N38   1.440166 S    
C52   H36   1.083335 S    
C17   N17   1.339447 A    
C127  H72   1.080765 S    
C138  C166  1.424121 A    
C128  H71   1.077375 S    
C34   C100  1.477220 S    
C170  H82   1.085655 S    
C58   H42   1.074745 S    
C118  H77   1.083541 S    
N40   O24   1.301382 A    
C124  H67   1.077102 S    
C77   H53   1.081573 S    
C125  H70   1.080564 S    
C127  C135  1.387522 A    
C162  C178  1.484356 S    
C157  N37   1.437621 S    
C10   H10   1.075235 S    
C79   C87   1.385165 A    
C163  C179  1.484176 S    
C80   C88   1.386656 A    
C32   N32   1.341713 A    
C20   N20   1.331313 A    
C30   H30   1.074421 S    
C53   C93   1.397875 A    
C181  O29   1.218805 D    
C166  C182  1.483838 S    
C81   H61   1.083898 S    
C126  H69   1.077871 S    
C57   C65   1.404898 A    
N38   O20   1.301401 A    
C84   H64   1.083504 S    
C1    C33   1.391523 A    
C85   H57   1.077164 S    
N9    N17   1.387901 A    
N4    N26   1.389704 A    
C87   C95   1.400399 A    
C88   H60   1.083461 S    
C165  C181  1.484821 S    
C174  O6    1.220976 D    
C175  O7    1.221138 D    
N3    N25   1.389701 A    
N8    N30   1.389704 A    
C56   C64   1.389510 A    
N30   Ni7   1.838345 S    
N15   N23   1.387983 A    
N23   Ni3   1.843960 S    
C110  C142  1.432801 A    
C18   N18   1.331929 A    
C20   C44   1.373851 A    
C28   N28   1.342663 A    
C129  C137  1.416227 A    
C174  H86   1.085644 S    
C104  C128  1.385838 A    
C4    C36   1.379824 A    
N1    N27   1.389827 A    
N12   N20   1.387983 A    
C19   H19   1.080413 S    
C164  C180  1.484282 S    
C2    H2    1.077882 S    
C176  O8    1.221016 D    
N2    Ni2   1.852643 S    
N10   N18   1.387901 A    
C91   C96   1.457744 S    
C53   H37   1.083734 S    
C25   C35   1.399049 A    
N32   Ni8   1.842611 S    
C111  C119  1.401824 A    
C144  C164  1.423926 A    
C123  C131  1.389385 A    
C106  C114  1.401638 A    
C99   C115  1.397741 A    
C77   C85   1.386275 A    
C132  C140  1.418997 A    
N19   Ni1   1.843960 S    
C73   H49   1.081071 S    
C108  C140  1.431475 A    
C103  C127  1.385767 A    
C180  H92   1.085131 S    
N12   Ni5   1.839835 S    
N6    Ni4   1.852643 S    
C169  O1    1.221226 D    
C15   H15   1.079551 S    
C16   H16   1.073310 S    
C184  H96   1.085152 S    
C55   H39   1.083682 S    
C124  C132  1.397234 A    
C111  C175  1.482098 S    
N25   Ni6   1.838342 S    
C68   C76   1.398689 A    
N8    Ni3   1.843304 S    
C9    H9    1.079498 S    
C128  C136  1.398811 A    
C125  C133  1.386351 A    
C50   H34   1.083471 S    
N20   Ni2   1.843963 S    
