data_mof_unit_12777.cif
_audit_creation_date              2012-12-11T15:50:39-0500
_audit_creation_method            fapswitch 2.2
_symmetry_space_group_name_H-M    P1
_symmetry_Int_Tables_number       1
_space_group_crystal_system       triclinic
_cell_length_a                    18.936001
_cell_length_b                    11.005901
_cell_length_c                    18.693187
_cell_angle_alpha                 89.728321
_cell_angle_beta                  91.06234
_cell_angle_gamma                 89.299279
_cell_volume                      3894.79606334

loop_
_atom_site_label
_atom_site_type_symbol
_atom_type_description
_atom_site_fract_x
_atom_site_fract_y
_atom_site_fract_z
_atom_type_partial_charge
C1    C     C_R   0.274062 0.038074 0.854957 0.550662
C2    C     C_R   0.760138 0.570678 0.928166 0.020484
C3    C     C_R   0.229102 0.548893 0.352801 0.556374
C4    C     C_R   0.470754 0.824002 0.647698 0.544998
C5    C     C_R   0.531653 0.823154 0.354071 0.547157
C6    C     C_R   0.970754 0.324002 0.647698 0.545000
C7    C     C_R   0.031653 0.323154 0.354071 0.547156
C8    C     C_R   0.274411 0.691101 0.636713 0.572494
C9    C     C_R   0.740246 0.638911 0.356824 0.545819
C10   C     C_R   0.774411 0.191101 0.636713 0.572494
C11   C     C_R   0.240246 0.138911 0.356824 0.545823
C12   C     C_3   0.469126 0.928491 0.028157 -0.127548
C13   C     C_R   0.718446 0.008280 0.061469 -0.003590
C14   C     C_3   0.526541 0.928682 0.970225 -0.125299
C15   C     C_3   0.969145 0.428518 0.028153 -0.127556
C16   C     C_3   0.026562 0.428645 0.970219 -0.125335
C17   C     C_3   0.429579 0.827028 0.987807 -0.117384
C18   C     C_3   0.569214 0.830057 0.012367 -0.104567
C19   C     C_3   0.929565 0.327073 0.987811 -0.117370
C20   C     C_3   0.069211 0.329990 0.012367 -0.104549
C21   C     C_3   0.487876 0.827087 0.931431 0.058540
C22   C     C_3   0.511100 0.829952 0.068805 0.058221
C23   C     C_3   0.987866 0.327071 0.931434 0.058527
C24   C     C_R   0.260119 0.070736 0.928151 0.020497
C25   C     C_3   0.011093 0.329948 0.068807 0.058243
C26   C     C_3   0.409510 0.409811 0.923823 -0.397596
C27   C     C_3   0.667292 0.357162 0.087783 -0.386921
C28   C     C_3   0.909415 0.909525 0.923728 -0.397599
C29   C     C_3   0.167336 0.857174 0.087793 -0.386967
C30   C     C_R   0.276288 0.458670 0.025067 0.013274
C31   C     C_R   0.695693 0.550191 0.960870 -0.014182
C32   C     C_R   0.776264 0.958623 0.025053 0.013229
C33   C     C_R   0.195684 0.050196 0.960864 -0.014182
C34   C     C_R   0.288097 0.489390 0.953748 0.033856
C35   C     C_R   0.689249 0.565569 0.034003 0.035069
C36   C     C_R   0.788074 0.989364 0.953742 0.033823
C37   C     C_R   0.709271 0.995595 0.139131 0.562098
C38   C     C_R   0.189243 0.065582 0.033997 0.035053
C39   C     C_R   0.176402 0.594546 0.948560 -0.172042
C40   C     C_R   0.812217 0.618661 0.043668 -0.168027
C41   C     C_R   0.676407 0.094605 0.948572 -0.172054
C42   C     C_R   0.312195 0.118795 0.043642 -0.168035
C43   C     C_R   0.165490 0.566435 0.020254 -0.180657
C44   C     C_R   0.818026 0.607490 0.970732 -0.162100
C45   C     C_R   0.665499 0.066498 0.020266 -0.180660
C46   C     C_R   0.317995 0.107634 0.970706 -0.162024
C47   C     C_3   0.353024 0.462567 0.043919 -0.244193
C48   C     C_R   0.774068 0.538060 0.854962 0.550656
C49   C     C_3   0.649601 0.440851 0.959919 -0.252309
C50   C     C_3   0.853019 0.962352 0.043881 -0.244143
C51   C     C_3   0.149619 0.940821 0.959924 -0.252295
C52   C     C_3   0.365617 0.500225 0.966511 -0.141524
C53   C     C_3   0.639806 0.461028 0.039773 -0.148736
C54   C     C_3   0.865617 0.000037 0.966473 -0.141481
C55   C     C_3   0.139824 0.961010 0.039777 -0.148748
C56   C     C_R   0.241245 0.566815 0.916286 0.005774
C57   C     C_R   0.748331 0.594164 0.076668 0.023596
C58   C     C_R   0.741244 0.066844 0.916292 0.005793
C59   C     C_R   0.209270 0.495592 0.139131 0.562088
C60   C     C_R   0.248323 0.094221 0.076653 0.023587
C61   C     C_R   0.515165 0.828765 0.429402 0.020817
C62   C     C_R   0.503935 0.837619 0.578878 0.018309
C63   C     C_R   0.015165 0.328765 0.429402 0.020817
C64   C     C_R   0.003935 0.337619 0.578878 0.018308
C65   C     C_R   0.469519 0.820928 0.855789 0.548076
C66   C     C_R   0.530089 0.822215 0.144381 0.539814
C67   C     C_R   0.969516 0.320925 0.855790 0.548074
C68   C     C_R   0.030085 0.322215 0.144383 0.539810
C69   C     C_R   0.541481 0.735020 0.473484 0.048161
C70   C     C_3   0.529769 0.728963 0.972360 -0.120891
C71   C     C_R   0.538202 0.739928 0.546626 0.019601
C72   C     C_R   0.041481 0.235020 0.473484 0.048161
C73   C     C_R   0.038202 0.239928 0.546626 0.019600
C74   C     C_R   0.487344 0.941276 0.536466 -0.164285
C75   C     C_R   0.492815 0.936678 0.461889 -0.180293
C76   C     C_R   0.987344 0.441276 0.536466 -0.164285
C77   C     C_R   0.992815 0.436678 0.461889 -0.180293
C78   C     C_3   0.529748 0.601232 0.471824 -0.264620
C79   C     C_3   0.531113 0.604888 0.552964 -0.276425
C80   C     C_3   0.029748 0.101232 0.471824 -0.264620
C81   C     C_3   0.472394 0.728851 0.029675 -0.133178
C82   C     C_3   0.031113 0.104887 0.552964 -0.276425
C83   C     C_R   0.251636 0.613495 0.416323 0.022583
C84   C     C_R   0.746569 0.591350 0.578742 0.021429
C85   C     C_R   0.751637 0.113495 0.416323 0.022584
C86   C     C_R   0.246569 0.091350 0.578742 0.021430
C87   C     C_R   0.201212 0.684198 0.451711 0.021279
C88   C     C_R   0.776324 0.693167 0.547524 0.018722
C89   C     C_R   0.701212 0.184199 0.451711 0.021279
C90   C     C_R   0.276324 0.193167 0.547524 0.018722
C91   C     C_R   0.210140 0.711576 0.522455 0.010519
C92   C     C_3   0.029734 0.228913 0.972369 -0.120865
C93   C     C_R   0.776513 0.702455 0.474643 0.047823
C94   C     C_R   0.710140 0.211577 0.522455 0.010519
C95   C     C_R   0.276513 0.202455 0.474643 0.047822
C96   C     C_R   0.327211 0.624802 0.521417 -0.161642
C97   C     C_R   0.708608 0.520023 0.461904 -0.171638
C98   C     C_R   0.827210 0.124802 0.521417 -0.161641
C99   C     C_R   0.208608 0.020023 0.461904 -0.171638
C100  C     C_R   0.317887 0.594797 0.449086 -0.168009
C101  C     C_R   0.706666 0.511811 0.535749 -0.168687
C102  C     C_R   0.817887 0.094797 0.449086 -0.168008
C103  C     C_3   0.972353 0.228866 0.029686 -0.133156
C104  C     C_R   0.206666 0.011811 0.535749 -0.168687
C105  C     C_3   0.123617 0.664037 0.460258 -0.264722
C106  C     C_3   0.847774 0.749733 0.554865 -0.276383
C107  C     C_3   0.623617 0.164037 0.460258 -0.264722
C108  C     C_3   0.347774 0.249733 0.554865 -0.276382
C109  C     C_3   0.133824 0.692128 0.538459 -0.268148
C110  C     C_3   0.848392 0.756490 0.474087 -0.266707
C111  C     C_3   0.633824 0.192128 0.538459 -0.268148
C112  C     C_3   0.348391 0.256491 0.474087 -0.266707
C113  C     C_R   0.259924 0.633981 0.851216 0.547627
C114  C     C_R   0.218444 0.508262 0.061465 -0.003590
C115  C     C_R   0.739175 0.636969 0.148649 0.533378
C116  C     C_R   0.759926 0.133993 0.851219 0.547652
C117  C     C_R   0.239173 0.136981 0.148645 0.533399
C118  C     C_R   0.270693 0.673879 0.559985 0.019577
C119  C     C_R   0.747375 0.612120 0.431111 0.030225
C120  C     C_R   0.770693 0.173879 0.559985 0.019577
C121  C     C_R   0.247375 0.112120 0.431111 0.030225
C122  C     C_R   0.270531 0.046904 0.646992 0.548617
C123  C     C_R   0.729102 0.048893 0.352801 0.556374
C124  C     C_R   0.770531 0.546904 0.646992 0.548622
Cr1   Cr    Cr6+3 0.229640 0.835880 0.747370 0.997018
Cr2   Cr    Cr6+3 0.614230 0.677220 0.250660 1.001404
Cr3   Cr    Cr6+3 0.885770 0.177220 0.749340 0.995547
Cr4   Cr    Cr6+3 0.114230 0.177220 0.250660 1.001403
Cr5   Cr    Cr6+3 0.770360 0.835880 0.252630 1.003087
Cr6   Cr    Cr6+3 0.729640 0.335880 0.747370 0.997018
Cr7   Cr    Cr6+3 0.270360 0.335880 0.252630 1.003084
Cr8   Cr    Cr6+3 0.387390 0.989720 0.750850 0.998984
Cr9   Cr    Cr6+3 0.612610 0.989720 0.249150 0.997700
Cr10  Cr    Cr6+3 0.887390 0.489720 0.750850 0.998966
Cr11  Cr    Cr6+3 0.112610 0.489720 0.249150 0.997699
Cr12  Cr    Cr6+3 0.385770 0.677220 0.749340 0.995542
H1    H     H_    0.371915 0.825671 0.975804 0.109074
H2    H     H_    0.982343 0.072006 0.577129 0.150354
H3    H     H_    0.573879 0.549723 0.448575 0.152874
H4    H     H_    0.482343 0.572006 0.577129 0.150355
H5    H     H_    0.477256 0.578268 0.448815 0.126412
H6    H     H_    0.578899 0.562783 0.577815 0.137731
H7    H     H_    0.977256 0.078268 0.448815 0.126412
H8    H     H_    0.078899 0.062784 0.577815 0.137731
H9    H     H_    0.375618 0.600497 0.548457 0.128577
H10   H     H_    0.681330 0.453849 0.429156 0.121702
H11   H     H_    0.875618 0.100496 0.548457 0.128577
H12   H     H_    0.626746 0.826427 0.024201 0.116996
H13   H     H_    0.181330 0.953849 0.429156 0.121702
H14   H     H_    0.359409 0.547918 0.421066 0.110330
H15   H     H_    0.679509 0.436406 0.558921 0.139156
H16   H     H_    0.859409 0.047918 0.421066 0.110330
H17   H     H_    0.179509 0.936405 0.558921 0.139156
H18   H     H_    0.108811 0.568196 0.450913 0.170554
H19   H     H_    0.889985 0.688719 0.576562 0.155999
H20   H     H_    0.608811 0.068197 0.450913 0.170554
H21   H     H_    0.389985 0.188719 0.576562 0.156000
H22   H     H_    0.090774 0.733121 0.430974 0.130346
H23   H     H_    0.871898 0.325744 0.975808 0.109127
H24   H     H_    0.845087 0.840683 0.580404 0.144336
H25   H     H_    0.590774 0.233121 0.430974 0.130346
H26   H     H_    0.345087 0.340683 0.580404 0.144337
H27   H     H_    0.105383 0.776057 0.554730 0.124172
H28   H     H_    0.847470 0.850372 0.452990 0.150366
H29   H     H_    0.605383 0.276058 0.554730 0.124172
H30   H     H_    0.347470 0.350372 0.452990 0.150366
H31   H     H_    0.125211 0.611727 0.573393 0.165372
H32   H     H_    0.888422 0.695161 0.449927 0.130408
H33   H     H_    0.625211 0.111727 0.573393 0.165372
H34   H     H_    0.126746 0.326341 0.024199 0.117001
H35   H     H_    0.388422 0.195162 0.449927 0.130409
H36   H     H_    0.446679 0.009816 0.054149 0.103350
H37   H     H_    0.544591 0.010064 0.941340 0.111604
H38   H     H_    0.946741 0.509889 0.054141 0.103314
H39   H     H_    0.044623 0.510009 0.941318 0.111599
H40   H     H_    0.553587 0.648399 0.946746 0.120312
H41   H     H_    0.454070 0.647699 0.058264 0.113309
H42   H     H_    0.053529 0.148310 0.946763 0.120309
H43   H     H_    0.953995 0.147741 0.058285 0.113244
H44   H     H_    0.136157 0.648324 0.920785 0.133130
H45   H     H_    0.464020 0.021556 0.559790 0.134357
H46   H     H_    0.857961 0.648075 0.074215 0.126496
H47   H     H_    0.636165 0.148399 0.920802 0.133137
H48   H     H_    0.357938 0.148249 0.074178 0.126522
H49   H     H_    0.116424 0.594853 0.044139 0.134699
H50   H     H_    0.869957 0.619726 0.948829 0.138830
H51   H     H_    0.616439 0.094941 0.044156 0.134724
H52   H     H_    0.369917 0.119936 0.948796 0.138825
H53   H     H_    0.874451 0.871007 0.058617 0.143225
H54   H     H_    0.179659 0.856910 0.946526 0.165339
H55   H     H_    0.374512 0.371282 0.058689 0.143198
H56   H     H_    0.477704 0.015354 0.429850 0.119335
H57   H     H_    0.679621 0.356924 0.946513 0.165321
H58   H     H_    0.364044 0.534144 0.083974 0.130704
H59   H     H_    0.600398 0.455164 0.927620 0.113114
H60   H     H_    0.864104 0.033876 0.083957 0.130681
H61   H     H_    0.100409 0.955090 0.927628 0.113134
H62   H     H_    0.382646 0.595036 0.959457 0.159034
H63   H     H_    0.585504 0.491970 0.053191 0.149445
H64   H     H_    0.882726 0.094825 0.959440 0.159016
H65   H     H_    0.085514 0.991914 0.053193 0.149453
H66   H     H_    0.463837 0.403867 0.947045 0.115533
H67   H     H_    0.964020 0.521556 0.559790 0.134357
H68   H     H_    0.385709 0.318653 0.924297 0.147255
H69   H     H_    0.412685 0.441195 0.867475 0.164565
H70   H     H_    0.627395 0.284694 0.088209 0.143902
H71   H     H_    0.718557 0.320054 0.069021 0.151161
H72   H     H_    0.674231 0.389209 0.143613 0.159841
H73   H     H_    0.963737 0.903295 0.946959 0.115506
H74   H     H_    0.885479 0.818462 0.924101 0.147411
H75   H     H_    0.912652 0.941017 0.867413 0.164484
H76   H     H_    0.127506 0.784608 0.088149 0.143970
H77   H     H_    0.218652 0.820212 0.069093 0.151127
H78   H     H_    0.977705 0.515354 0.429850 0.119335
H79   H     H_    0.174172 0.889196 0.143633 0.159840
H80   H     H_    0.073879 0.049723 0.448575 0.152874
O1    O     O_R   0.214300 0.709080 0.827500 -0.529027
O2    O     O_R   0.543340 0.717710 0.330180 -0.516629
O3    O     O_R   0.956660 0.217710 0.669820 -0.535608
O4    O     O_R   0.043340 0.217710 0.330180 -0.516630
O5    O     O_R   0.320590 0.625770 0.672930 -0.508698
O6    O     O_R   0.679410 0.625770 0.327070 -0.505756
O7    O     O_R   0.820590 0.125770 0.672930 -0.508698
O8    O     O_R   0.179410 0.125770 0.327070 -0.505755
O9    O     O_3   0.334270 0.834280 0.749190 -0.269025
O10   O     O_3   0.665730 0.834280 0.250810 -0.267147
O11   O     O_3   0.834270 0.334280 0.749190 -0.269030
O12   O     O_R   0.785700 0.709080 0.172500 -0.534762
O13   O     O_3   0.165730 0.334280 0.250810 -0.267148
O14   O     O_R   0.236190 0.958390 0.823150 -0.503618
O15   O     O_R   0.763810 0.958390 0.176850 -0.501447
O16   O     O_R   0.736190 0.458390 0.823150 -0.503615
O17   O     O_R   0.263810 0.458390 0.176850 -0.501451
O18   O     O_R   0.332090 0.075280 0.831290 -0.527967
O19   O     O_R   0.667910 0.075280 0.168710 -0.528827
O20   O     O_R   0.832090 0.575280 0.831290 -0.527993
O21   O     O_R   0.167910 0.575280 0.168710 -0.528828
O22   O     O_R   0.446280 0.918040 0.826620 -0.504406
O23   O     O_R   0.714300 0.209080 0.827500 -0.529036
O24   O     O_R   0.553720 0.918040 0.173380 -0.522797
O25   O     O_R   0.946280 0.418040 0.826620 -0.504416
O26   O     O_R   0.053720 0.418040 0.173380 -0.522802
O27   O     O_R   0.457080 0.716270 0.831760 -0.528520
O28   O     O_R   0.542920 0.716270 0.168240 -0.522429
O29   O     O_R   0.957080 0.216270 0.831760 -0.528519
O30   O     O_R   0.042920 0.216270 0.168240 -0.522419
O31   O     O_R   0.320980 0.624440 0.823040 -0.498828
O32   O     O_R   0.679020 0.624440 0.176960 -0.506418
O33   O     O_R   0.820980 0.124440 0.823040 -0.498819
O34   O     O_R   0.285700 0.209080 0.172500 -0.534767
O35   O     O_R   0.179020 0.124440 0.176960 -0.506413
O36   O     O_R   0.213880 0.710510 0.665560 -0.522293
O37   O     O_R   0.786120 0.710510 0.334440 -0.521909
O38   O     O_R   0.713880 0.210510 0.665560 -0.522291
O39   O     O_R   0.286120 0.210510 0.334440 -0.521908
O40   O     O_R   0.235800 0.959720 0.673040 -0.529129
O41   O     O_R   0.764200 0.959720 0.326960 -0.502262
O42   O     O_R   0.735800 0.459720 0.673040 -0.529127
O43   O     O_R   0.264200 0.459720 0.326960 -0.502262
O44   O     O_R   0.331670 0.076720 0.669350 -0.523508
O45   O     O_R   0.445900 0.919370 0.676500 -0.509072
O46   O     O_R   0.668330 0.076720 0.330650 -0.521964
O47   O     O_R   0.831670 0.576720 0.669350 -0.523506
O48   O     O_R   0.168330 0.576720 0.330650 -0.521964
O49   O     O_R   0.554100 0.919370 0.323500 -0.507704
O50   O     O_R   0.945900 0.419370 0.676500 -0.509070
O51   O     O_R   0.054100 0.419370 0.323500 -0.507704
O52   O     O_R   0.456660 0.717710 0.669820 -0.535609

loop_
_geom_bond_atom_site_label_1
_geom_bond_atom_site_label_2
_ccdc_geom_bond_type
C18   C70   S    
C83   C87   A    
Cr12  O9    S    
C123  O41   A    
C34   C56   A    
Cr10  O47   S    
C46   H52   S    
C12   C22   S    
C35   C53   S    
C100  H14   S    
C97   H10   S    
C14   C18   S    
C47   H58   S    
C20   H34   S    
Cr10  O50   S    
C86   C104  A    
C78   H3    S    
Cr4   O8    S    
C71   C79   S    
C39   H44   S    
C117  O35   A    
C76   H67   S    
C8    C118  S    
C90   C95   A    
C80   H80   S    
C74   H45   S    
C11   C121  S    
Cr7   O17   S    
C28   H75   S    
C5    O49   A    
C96   H9    S    
C99   H13   S    
C116  O23   A    
C50   C54   S    
C66   O28   A    
C32   C36   A    
C14   C21   S    
C96   C118  A    
C16   C20   S    
C26   H66   S    
C85   C89   A    
C41   C58   A    
C14   H37   S    
Cr5   O41   S    
C95   C112  S    
C59   C114  S    
C43   C114  A    
C122  O40   A    
C97   C119  A    
C106  H24   S    
C15   C25   S    
C112  H35   S    
C98   H11   S    
C43   H49   S    
C123  O46   A    
C23   C67   S    
C15   C16   S    
C55   H65   S    
C4    C62   S    
C94   C111  S    
C54   H64   S    
Cr5   O12   S    
C27   H72   S    
Cr9   O19   S    
C3    C83   S    
C6    C64   S    
C89   C94   A    
C69   C71   A    
C70   C81   S    
Cr8   O22   S    
C22   C66   S    
C34   C52   S    
C51   H61   S    
C92   C103  S    
C111  H29   S    
C65   O27   A    
C15   C19   S    
C50   H60   S    
C1    O14   A    
C38   C55   S    
C107  H25   S    
C2    C44   A    
C4    O45   A    
Cr10  O20   S    
Cr5   O10   S    
C86   C122  S    
C11   O39   A    
C56   C113  S    
Cr11  O13   S    
Cr3   O29   S    
Cr9   O24   S    
C104  H17   S    
C109  H31   S    
Cr4   O4    S    
C62   C74   A    
C17   C81   S    
C107  H20   S    
Cr12  O27   S    
Cr7   O34   S    
Cr3   O7    S    
C79   H4    S    
C99   C121  A    
C3    O43   A    
C66   O24   A    
C95   C121  A    
C63   C77   A    
C99   C104  A    
C124  O42   A    
C98   C120  A    
C18   C22   S    
C58   C116  S    
C84   C101  A    
C69   C78   S    
C59   O17   A    
C25   C68   S    
C19   C103  S    
C31   C49   S    
Cr1   O9    S    
C9    O6    A    
C113  O1    A    
Cr6   O42   S    
C82   H8    S    
C77   H78   S    
C37   O19   A    
C40   H46   S    
C5    O2    A    
C67   O25   A    
Cr9   O46   S    
C32   C50   S    
Cr6   O23   S    
Cr4   O35   S    
C87   C91   A    
C30   C34   A    
C36   C58   A    
Cr3   O3    S    
C53   H63   S    
C22   C81   S    
C84   C88   A    
C30   C47   S    
C36   C54   S    
Cr9   O10   S    
Cr8   O44   S    
Cr1   O14   S    
C74   C75   A    
C78   H5    S    
C42   C60   A    
C28   C54   S    
C78   C79   S    
C45   H51   S    
C39   C43   A    
C108  H21   S    
C57   C115  S    
C51   C55   S    
C2    C48   S    
C28   H73   S    
C113  O31   A    
C13   C32   A    
C110  H32   S    
C101  H15   S    
Cr2   O32   S    
C61   C75   A    
Cr11  O21   S    
Cr12  O31   S    
C2    C31   A    
Cr3   O33   S    
C48   O16   A    
C12   C17   S    
Cr1   O40   S    
C26   H68   S    
Cr11  O51   S    
Cr10  O25   S    
C6    O50   A    
C26   C52   S    
C88   C106  S    
C25   C103  S    
C42   C46   A    
C29   H77   S    
C105  H22   S    
C87   C105  S    
Cr6   O16   S    
C1    O18   A    
C64   C73   A    
C80   H7    S    
C112  H30   S    
C19   H23   S    
C89   C107  S    
Cr2   O6    S    
C64   C76   A    
C91   C118  A    
C68   O26   A    
C60   C117  S    
C39   C56   A    
C108  H26   S    
C76   C77   A    
C7    O51   A    
C7    C63   S    
C48   O20   A    
C51   H54   S    
C92   H42   S    
C10   O7    A    
C1    C24   S    
C38   C60   A    
C7    O4    A    
Cr6   O38   S    
C16   H39   S    
C122  O44   A    
C59   O21   A    
C12   C14   S    
Cr6   O11   S    
C116  O33   A    
C16   C23   S    
C83   C100  A    
C86   C90   A    
C9    C119  S    
Cr7   O43   S    
C65   O22   A    
C20   C92   S    
C26   H69   S    
C33   C51   S    
Cr7   O39   S    
Cr4   O13   S    
C73   C82   S    
Cr11  O26   S    
C29   H76   S    
C49   H59   S    
C115  O32   A    
C30   C114  A    
C61   C69   A    
C37   O15   A    
C105  C109  S    
C88   C93   A    
C8    O36   A    
C13   C45   A    
C110  H28   S    
C40   C57   A    
Cr11  O48   S    
C15   H38   S    
C21   C65   S    
C10   O38   A    
C107  C111  S    
Cr1   O36   S    
C9    O37   A    
C4    O52   A    
C24   C33   A    
Cr5   O37   S    
C72   C73   A    
Cr8   O45   S    
C11   O8    A    
C117  O34   A    
C27   C53   S    
Cr9   O49   S    
C47   C52   S    
Cr2   O10   S    
C84   C124  S    
C12   H36   S    
C29   C55   S    
Cr5   O15   S    
C94   C120  A    
C33   C38   A    
C124  O47   A    
Cr12  O52   S    
C21   C70   S    
C35   C57   A    
C27   H70   S    
C68   O30   A    
Cr10  O11   S    
C91   C109  S    
C29   H79   S    
C75   H56   S    
C28   H74   S    
C81   H41   S    
C115  O12   A    
C72   C80   S    
C70   H40   S    
C98   C102  A    
Cr8   O9    S    
C82   H2    S    
Cr2   O28   S    
C5    C61   S    
C67   O29   A    
Cr7   O13   S    
C49   H57   S    
C13   C37   S    
Cr3   O11   S    
C50   H53   S    
C49   C53   S    
C96   C100  A    
C31   C35   A    
C105  H18   S    
Cr4   O30   S    
C80   C82   S    
C62   C71   A    
C85   C123  S    
C109  H27   S    
C103  H43   S    
C47   H55   S    
Cr12  O5    S    
C17   C21   S    
C10   C120  S    
C85   C102  A    
C18   H12   S    
C90   C108  S    
C6    O3    A    
C79   H6    S    
C108  C112  S    
C19   C23   S    
C40   C44   A    
C52   H62   S    
C63   C72   A    
C42   H48   S    
C27   H71   S    
C106  C110  S    
C106  H19   S    
C20   C25   S    
C102  H16   S    
C3    O48   A    
C41   C45   A    
C23   C92   S    
C41   H47   S    
C17   H1    S    
C93   C119  A    
C111  H33   S    
Cr8   O18   S    
C97   C101  A    
C8    O5    A    
Cr2   O2    S    
C44   H50   S    
C24   C46   A    
C93   C110  S    
Cr1   O1    S    
