data_mof_unit_21895.cif
_audit_creation_date              2012-12-10T19:03:04-0500
_audit_creation_method            fapswitch 2.2
_symmetry_space_group_name_H-M    P1
_symmetry_Int_Tables_number       1
_space_group_crystal_system       triclinic
_cell_length_a                    10.773364
_cell_length_b                    10.836878
_cell_length_c                    9.526786
_cell_angle_alpha                 90.370233
_cell_angle_beta                  89.73735
_cell_angle_gamma                 90.200253
_cell_volume                      1112.20716738

loop_
_atom_site_label
_atom_site_type_symbol
_atom_type_description
_atom_site_fract_x
_atom_site_fract_y
_atom_site_fract_z
_atom_type_partial_charge
C1    C     C_R   0.496053 0.262350 0.499663 0.810203
C2    C     C_3   0.876960 0.474548 0.498949 -0.180320
C3    C     C_3   0.923437 0.611509 0.484855 0.427098
C4    C     C_3   0.936538 0.387229 0.380391 -0.205489
C5    C     C_R   0.479399 0.064679 0.625127 0.145162
C6    C     C_R   0.483112 0.129349 0.498953 -0.152561
C7    C     C_R   0.469983 0.063662 0.372096 -0.146187
C8    C     C_R   0.470576 0.934903 0.372332 -0.205595
C9    C     C_R   0.484689 0.870979 0.499390 -0.096727
C10   C     C_R   0.480998 0.937442 0.625111 0.045592
C11   C     C_3   0.567345 0.932970 0.746800 -0.517025
C12   C     C_R   0.259570 0.498987 0.499772 0.914135
C13   C     C_3   0.564749 0.072504 0.747949 0.436068
C14   C     C_R   0.540474 0.601406 0.074230 0.250872
C15   C     C_R   0.447026 0.406331 0.074056 -0.060856
C16   C     C_R   0.445237 0.407339 0.925135 -0.035232
C17   C     C_R   0.544335 0.599357 0.926807 0.240596
C18   C     C_3   0.673636 0.649222 0.924794 -0.446006
C19   C     C_3   0.665117 0.660786 0.083198 -0.519183
C20   C     C_R   0.497630 0.737823 0.500091 0.843566
C21   C     C_R   0.738507 0.482517 0.499335 0.884716
C22   C     C_3   0.073914 0.416883 0.629187 0.436018
C23   C     C_3   0.929102 0.424628 0.642300 -0.145594
C24   C     C_3   0.064430 0.621014 0.509185 -0.668195
C25   C     C_3   0.074640 0.426586 0.355782 0.696538
C26   C     C_3   0.121283 0.490634 0.497276 -0.183919
Cu1   Cu    Cu3+1 0.499990 0.499980 0.640670 0.982091
Cu2   Cu    Cu3+1 0.500010 0.500020 0.359330 0.961504
H1    H     H_    0.113376 0.457185 0.727140 0.093521
H2    H     H_    0.106395 0.687225 0.434074 0.176262
H3    H     H_    0.900100 0.646638 0.379113 0.103964
H4    H     H_    0.465554 0.111085 0.272514 0.185379
H5    H     H_    0.466231 0.886194 0.272820 0.168124
H6    H     H_    0.522998 0.891000 0.840756 0.224441
H7    H     H_    0.659826 0.895774 0.716714 0.183583
H8    H     H_    0.655579 0.116517 0.724413 0.059778
H9    H     H_    0.406270 0.329332 0.129424 0.178365
H10   H     H_    0.401139 0.332275 0.869054 0.213799
H11   H     H_    0.742528 0.579306 0.889531 0.216335
H12   H     H_    0.682174 0.739321 0.872397 0.213101
H13   H     H_    0.734913 0.605980 0.138959 0.205168
H14   H     H_    0.658534 0.758092 0.120174 0.200720
H15   H     H_    0.907438 0.494925 0.724652 0.191108
H16   H     H_    0.083064 0.659873 0.615570 0.235737
H17   H     H_    0.944788 0.294111 0.426703 0.247331
N1    N     N_R   0.500800 0.500930 0.147930 -0.194476
N2    N     N_R   0.500800 0.500890 0.852020 -0.205484
O1    O     O_R   0.500000 0.319640 0.618810 -0.579272
O2    O     O_R   0.500010 0.319680 0.381230 -0.589014
O3    O     O_R   0.317690 0.499960 0.618790 -0.595271
O4    O     O_R   0.317700 0.500000 0.381210 -0.561211
O5    O     O_R   0.499990 0.680320 0.618770 -0.570519
O6    O     O_R   0.500000 0.680360 0.381190 -0.596858
O7    O     O_R   0.682300 0.500000 0.618790 -0.557284
O8    O     O_R   0.682310 0.500040 0.381210 -0.586311
C27   C     C_3   0.864804 0.355961 0.243713 -0.405075
C28   C     C_3   0.766511 0.254786 0.263293 -0.759337
H18   H     H_    0.809872 0.162346 0.252020 0.240233
H19   H     H_    0.724474 0.259124 0.369208 0.226973
H20   H     H_    0.693132 0.263601 0.182508 0.263553
H21   H     H_    0.824711 0.438918 0.196717 0.213402
H22   H     H_    0.930345 0.317266 0.165404 0.249168
F1    F     F_    0.505643 0.119085 0.865992 -0.668543
F2    F     F_    0.115397 0.295934 0.620558 -0.627513
C29   C     C_3   0.869368 0.300644 0.692485 -0.344431
C30   C     C_3   0.892440 0.276923 0.847868 -0.799460
H23   H     H_    0.993277 0.267083 0.867816 0.282082
H24   H     H_    0.853942 0.353494 0.912500 0.227483
H25   H     H_    0.845493 0.189998 0.879545 0.250624
H26   H     H_    0.767644 0.301234 0.677707 0.193443
H27   H     H_    0.904141 0.219943 0.632189 0.248583
F3    F     F_    0.863904 0.688365 0.580889 -0.667811
C31   C     C_3   0.091089 0.513527 0.223373 -0.377694
C32   C     C_3   0.127893 0.450056 0.084646 -0.754737
H28   H     H_    0.179277 0.362913 0.099584 0.293439
H29   H     H_    0.044686 0.432059 0.020178 0.209436
H30   H     H_    0.187875 0.512891 0.022141 0.220248
H31   H     H_    0.005529 0.566820 0.203467 0.144087
H32   H     H_    0.162444 0.585274 0.242061 0.199602
F4    F     F_    0.143648 0.319613 0.335178 -0.630044

loop_
_geom_bond_atom_site_label_1
_geom_bond_atom_site_label_2
_ccdc_geom_bond_type
Cu1   O1    S    
C30   H24   S    
C22   H1    S    
C25   F4    S    
C31   C32   S    
C4    C25   S    
Cu1   O7    S    
C7    C8    A    
C14   N1    A    
Cu2   N1    S    
C32   H29   S    
C24   C26   S    
C21   O7    A    
Cu2   O4    S    
C28   H19   S    
C30   H25   S    
C15   C16   A    
C23   H15   S    
C27   C28   S    
C18   C19   S    
C18   H12   S    
C15   H9    S    
C8    C9    A    
C32   H30   S    
C31   H31   S    
C9    C10   A    
C5    C13   S    
Cu1   O3    S    
C30   H23   S    
C4    C27   S    
C14   C17   A    
C3    C24   S    
C16   N2    A    
Cu2   O8    S    
C4    H17   S    
C32   H28   S    
C1    C6    S    
C13   H8    S    
C21   O8    A    
C28   H20   S    
C25   C26   S    
C29   H27   S    
C12   C26   S    
C2    C4    S    
C18   H11   S    
Cu2   O2    S    
C9    C20   S    
C13   F1    S    
C2    C21   S    
C17   C18   S    
C31   H32   S    
C3    H3    S    
C24   H16   S    
C27   H22   S    
Cu1   Cu2   S    
C12   O4    A    
Cu1   O5    S    
Cu1   N2    S    
C7    H4    S    
C27   H21   S    
C14   C19   S    
C11   H6    S    
C17   N2    A    
C20   O6    A    
C12   O3    A    
Cu2   O6    S    
C19   H14   S    
C1    O1    A    
C6    C7    A    
C23   C29   S    
C11   H7    S    
C2    C3    S    
C5    C10   A    
C20   O5    A    
C11   C13   S    
C28   H18   S    
C5    C6    A    
C3    F3    S    
C25   C31   S    
C8    H5    S    
C24   H2    S    
C10   C11   S    
C22   F2    S    
C19   H13   S    
C29   C30   S    
C22   C26   S    
C2    C23   S    
C22   C23   S    
C15   N1    A    
C1    O2    A    
C29   H26   S    
C16   H10   S    
