data_mof_unit_52478.cif
_audit_creation_date              2012-10-26T19:11:33-0400
_audit_creation_method            fapswitch 2.2
_symmetry_space_group_name_H-M    P1
_symmetry_Int_Tables_number       1
_space_group_crystal_system       triclinic
_cell_length_a                    15.881416
_cell_length_b                    15.905268
_cell_length_c                    14.660224
_cell_angle_alpha                 90.904909
_cell_angle_beta                  89.466462
_cell_angle_gamma                 90.06521
_cell_volume                      3702.5216683

loop_
_atom_site_label
_atom_site_type_symbol
_atom_type_description
_atom_site_fract_x
_atom_site_fract_y
_atom_site_fract_z
_atom_type_partial_charge
C1    C     C_R   0.499814 0.339915 0.499370 0.547898
C2    C     C_3   0.574463 0.045772 0.443901 -0.093387
C3    C     C_3   0.582591 0.950495 0.464363 -0.215008
C4    C     C_R   0.339481 0.499770 0.500399 0.547480
C5    C     C_1   0.499103 0.749515 0.502168 -0.052100
C6    C     C_3   0.497478 0.083257 0.499880 0.090961
C7    C     C_3   0.484082 0.954492 0.604333 -0.080790
C8    C     C_3   0.498094 0.916948 0.505476 0.045478
C9    C     C_3   0.424734 0.948099 0.445379 -0.225453
C10   C     C_3   0.415017 0.045451 0.455206 -0.106003
C11   C     C_1   0.498441 0.824874 0.503793 -0.078913
C12   C     C_3   0.083212 0.497217 0.505345 0.020213
C13   C     C_1   0.498089 0.175361 0.498147 -0.076819
C14   C     C_1   0.498922 0.250651 0.498062 -0.057472
C15   C     C_3   0.511958 0.590110 0.054168 0.116024
C16   C     C_R   0.499824 0.660137 0.500624 0.545301
C17   C     C_3   0.407774 0.463822 0.052395 0.267800
C18   C     C_3   0.417643 0.457807 0.944038 -0.212414
C19   C     C_3   0.495183 0.498951 0.092078 0.078564
C20   C     C_3   0.498695 0.591346 0.948542 -0.249923
C21   C     C_3   0.499507 0.500439 0.907808 -0.034440
C22   C     C_3   0.579201 0.455489 0.946625 0.151403
C23   C     C_3   0.972138 0.574844 0.520029 0.022350
C24   C     C_3   0.566489 0.438166 0.051727 -0.146888
C25   C     C_1   0.500912 0.501459 0.804815 0.169818
C26   C     C_1   0.496752 0.498472 0.195231 0.167477
C27   C     C_R   0.660617 0.499498 0.499642 0.548514
C28   C     C_3   0.971014 0.444433 0.566600 0.020320
C29   C     C_3   0.029629 0.418103 0.486029 -0.096839
C30   C     C_1   0.250022 0.498807 0.501830 -0.045174
C31   C     C_1   0.750261 0.498028 0.498805 -0.045711
C32   C     C_3   0.025794 0.523137 0.586574 0.046003
C33   C     C_3   0.659940 0.094091 0.444604 -0.267976
C34   C     C_3   0.917481 0.496431 0.500645 0.034158
C35   C     C_3   0.699503 0.112731 0.537976 -0.291244
C36   C     C_3   0.785396 0.154817 0.527157 -0.457668
C37   C     C_3   0.388882 0.085490 0.363510 -0.273193
C38   C     C_3   0.300198 0.057671 0.334462 -0.308696
C39   C     C_3   0.274152 0.099800 0.246303 -0.458050
C40   C     C_3   0.457432 0.103342 0.678114 -0.275184
C41   C     C_3   0.362561 0.118106 0.667385 -0.291017
C42   C     C_3   0.325956 0.163220 0.751511 -0.456757
C43   C     C_3   0.931183 0.381599 0.632370 -0.252632
C44   C     C_3   0.997445 0.334417 0.686950 -0.301722
C45   C     C_3   0.030595 0.549496 0.439126 -0.101427
C46   C     C_3   0.956577 0.267767 0.746609 -0.459616
C47   C     C_3   0.505581 0.705041 0.156234 -0.017151
C48   C     C_3   0.445059 0.760887 0.210630 -0.366594
C49   C     C_3   0.321503 0.339417 0.062415 -0.017589
C50   C     C_3   0.339534 0.245690 0.055003 -0.392768
C51   C     C_3   0.329300 0.521244 0.076616 -0.188793
C52   C     C_3   0.308045 0.530834 0.179002 -0.256559
C53   C     C_3   0.219766 0.566646 0.193940 -0.482997
C54   C     C_3   0.650964 0.431767 0.104548 -0.293686
C55   C     C_3   0.698492 0.514131 0.124064 -0.298420
C56   C     C_3   0.975777 0.470848 0.421034 0.010844
C57   C     C_3   0.782152 0.496799 0.170106 -0.451918
C58   C     C_3   0.948168 0.442704 0.326003 -0.257167
C59   C     C_3   0.023594 0.411412 0.268982 -0.296381
C60   C     C_3   0.999228 0.394166 0.170096 -0.465176
C61   C     C_3   0.583721 0.307014 0.911176 -0.002521
C62   C     C_3   0.599720 0.249117 0.829330 -0.375776
C63   C     C_3   0.933694 0.662575 0.532387 -0.253200
C64   C     C_3   0.001052 0.730871 0.543676 -0.300422
C65   C     C_3   0.961284 0.818114 0.548844 -0.461525
C66   C     C_3   0.064137 0.551621 0.677609 -0.247613
C67   C     C_1   0.174660 0.497921 0.503779 -0.083880
C68   C     C_3   0.997295 0.574522 0.749768 -0.301270
C69   C     C_3   0.038104 0.599893 0.839910 -0.462097
C70   C     C_3   0.536292 0.909921 0.679361 -0.271851
C71   C     C_3   0.483148 0.845611 0.731921 -0.299616
C72   C     C_3   0.536143 0.798223 0.800407 -0.445890
C73   C     C_1   0.825729 0.496895 0.498874 -0.087530
C74   C     C_3   0.502987 0.051025 0.601431 -0.086460
Cu1   Cu    Cu3+1 0.499890 0.499910 0.589920 0.974768
Cu2   Cu    Cu3+1 0.500110 0.500090 0.410080 0.952121
H1    H     H_    0.054770 0.354024 0.472167 0.092438
H2    H     H_    0.416180 0.391859 0.919413 0.128397
H3    H     H_    0.454238 0.799383 0.684120 0.176948
H4    H     H_    0.592479 0.878370 0.648923 0.150245
H5    H     H_    0.560451 0.956428 0.730111 0.126538
H6    H     H_    0.541106 0.373945 0.059305 0.168848
H7    H     H_    0.630412 0.502918 0.942532 0.141286
H8    H     H_    0.579379 0.605904 0.062861 0.083861
H9    H     H_    0.549624 0.629240 0.916486 0.081847
H10   H     H_    0.056542 0.592052 0.386501 0.092088
H11   H     H_    0.569491 0.057197 0.621170 0.119277
H12   H     H_    0.557492 0.048237 0.370694 0.113575
H13   H     H_    0.829449 0.112744 0.488891 0.144622
H14   H     H_    0.779185 0.215037 0.490415 0.150745
H15   H     H_    0.634913 0.939284 0.512305 0.115794
H16   H     H_    0.812081 0.168398 0.595530 0.133076
H17   H     H_    0.658708 0.156551 0.578119 0.162977
H18   H     H_    0.708160 0.053604 0.576011 0.145099
H19   H     H_    0.705726 0.057137 0.402395 0.132291
H20   H     H_    0.651284 0.154822 0.409253 0.145490
H21   H     H_    0.273466 0.169253 0.255600 0.152447
H22   H     H_    0.318446 0.082405 0.190054 0.144566
H23   H     H_    0.209942 0.078654 0.227225 0.136048
H24   H     H_    0.298385 0.988423 0.323484 0.156454
H25   H     H_    0.253822 0.074624 0.388956 0.150276
H26   H     H_    0.598582 0.915794 0.399928 0.096817
H27   H     H_    0.388322 0.155069 0.370862 0.160321
H28   H     H_    0.434169 0.068697 0.308083 0.138132
H29   H     H_    0.333928 0.124236 0.813046 0.142710
H30   H     H_    0.357747 0.224791 0.762473 0.153796
H31   H     H_    0.257680 0.174533 0.741657 0.135100
H32   H     H_    0.351178 0.158583 0.607765 0.164033
H33   H     H_    0.328889 0.057434 0.658241 0.141545
H34   H     H_    0.467887 0.072034 0.744306 0.136088
H35   H     H_    0.488720 0.165683 0.683746 0.143572
H36   H     H_    0.910664 0.297305 0.794906 0.155147
H37   H     H_    0.361597 0.056813 0.502474 0.127241
H38   H     H_    0.923761 0.220134 0.703640 0.144356
H39   H     H_    0.005784 0.235580 0.786464 0.134577
H40   H     H_    0.043307 0.303316 0.639717 0.156459
H41   H     H_    0.032035 0.378984 0.731813 0.159582
H42   H     H_    0.887055 0.415277 0.679314 0.143841
H43   H     H_    0.893903 0.335611 0.591514 0.142526
H44   H     H_    0.548117 0.745767 0.115361 0.120891
H45   H     H_    0.543503 0.668657 0.205426 0.133948
H46   H     H_    0.402877 0.721740 0.253404 0.157765
H47   H     H_    0.481100 0.804193 0.255872 0.088959
H48   H     H_    0.364544 0.917358 0.465797 0.096273
H49   H     H_    0.406370 0.798613 0.163667 0.147065
H50   H     H_    0.296181 0.359703 0.995894 0.105651
H51   H     H_    0.271937 0.349684 0.115371 0.139327
H52   H     H_    0.365957 0.223135 0.120041 0.160555
H53   H     H_    0.280476 0.210808 0.040228 0.091953
H54   H     H_    0.385642 0.233138 0.999037 0.131202
H55   H     H_    0.215180 0.629960 0.163465 0.152417
H56   H     H_    0.172049 0.524525 0.162353 0.141105
H57   H     H_    0.206103 0.572302 0.268236 0.144090
H58   H     H_    0.311798 0.469190 0.213223 0.191346
H59   H     H_    0.416226 0.946751 0.621844 0.133024
H60   H     H_    0.352845 0.574899 0.212072 0.200257
H61   H     H_    0.335585 0.584244 0.046353 0.169302
H62   H     H_    0.272987 0.494868 0.042078 0.094498
H63   H     H_    0.771304 0.465070 0.236175 0.159435
H64   H     H_    0.822382 0.456356 0.125355 0.148719
H65   H     H_    0.815525 0.557111 0.183226 0.131567
H66   H     H_    0.711883 0.547796 0.059830 0.141265
H67   H     H_    0.661031 0.554993 0.171102 0.156821
H68   H     H_    0.638323 0.400711 0.170785 0.151494
H69   H     H_    0.693440 0.388767 0.065215 0.159063
H70   H     H_    0.437528 0.929277 0.373083 0.120724
H71   H     H_    0.947327 0.347375 0.166631 0.148778
H72   H     H_    0.979061 0.453323 0.137544 0.145968
H73   H     H_    0.054466 0.368793 0.131724 0.132451
H74   H     H_    0.074560 0.459264 0.270316 0.162623
H75   H     H_    0.048391 0.352528 0.298418 0.155153
H76   H     H_    0.900712 0.391677 0.332200 0.138038
H77   H     H_    0.918808 0.497376 0.292721 0.142041
H78   H     H_    0.515910 0.303389 0.927985 0.126558
H79   H     H_    0.621106 0.283481 0.969133 0.119858
H80   H     H_    0.668089 0.247156 0.812761 0.153232
H81   H     H_    0.438372 0.622941 0.932032 0.144776
H82   H     H_    0.577721 0.184507 0.844658 0.073817
H83   H     H_    0.565155 0.272549 0.769343 0.166456
H84   H     H_    0.926665 0.831115 0.485104 0.146181
H85   H     H_    0.917098 0.822773 0.607900 0.146984
H86   H     H_    0.011310 0.866329 0.557552 0.135269
H87   H     H_    0.036705 0.720896 0.607225 0.159028
H88   H     H_    0.045833 0.728319 0.484990 0.155917
H89   H     H_    0.895636 0.675876 0.471025 0.140854
H90   H     H_    0.890518 0.662976 0.592363 0.135596
H91   H     H_    0.075902 0.547029 0.866447 0.145006
H92   H     H_    0.362698 0.487426 0.910606 0.066357
H93   H     H_    0.079512 0.655479 0.830459 0.147441
H94   H     H_    0.988445 0.616338 0.890926 0.138190
H95   H     H_    0.958571 0.627772 0.726250 0.159286
H96   H     H_    0.955228 0.520127 0.761947 0.162905
H97   H     H_    0.104838 0.500509 0.702924 0.135475
H98   H     H_    0.105615 0.606600 0.665490 0.134313
H99   H     H_    0.586017 0.761257 0.764470 0.156699
H100  H     H_    0.565677 0.842826 0.849651 0.141729
H101  H     H_    0.495102 0.754425 0.838763 0.142306
H102  H     H_    0.431536 0.878894 0.769343 0.146936
N1    N     N_1   0.501700 0.501390 0.724970 -0.189632
N2    N     N_1   0.498280 0.498620 0.275030 -0.214341
O1    O     O_R   0.499910 0.379360 0.575970 -0.490986
O2    O     O_3   0.396112 0.381797 0.089559 -0.582919
O3    O     O_3   0.610111 0.388968 0.888809 -0.559615
O4    O     O_R   0.500090 0.379510 0.424100 -0.487583
O5    O     O_R   0.378990 0.499920 0.575920 -0.496072
O6    O     O_R   0.379170 0.500070 0.424050 -0.495848
O7    O     O_R   0.499910 0.620490 0.575900 -0.494999
O8    O     O_R   0.500090 0.620640 0.424030 -0.499227
O9    O     O_R   0.620830 0.499930 0.575950 -0.481781
O10   O     O_R   0.621010 0.500080 0.424080 -0.497306
O11   O     O_3   0.459253 0.651112 0.097743 -0.585831

loop_
_geom_bond_atom_site_label_1
_geom_bond_atom_site_label_2
_ccdc_geom_bond_type
C36   H13   S    
C66   C68   S    
C34   C56   S    
C23   C45   S    
C41   H32   S    
C46   H36   S    
C12   C29   S    
C18   C21   S    
C52   H58   S    
C41   C42   S    
C54   H68   S    
C35   C36   S    
C64   H88   S    
C61   H78   S    
C17   C51   S    
C48   H47   S    
C71   H3    S    
C45   H10   S    
C7    C8    S    
C2    C6    S    
C15   C19   S    
C49   H50   S    
C37   C38   S    
C46   H39   S    
C10   C37   S    
C71   H102  S    
C28   C29   S    
Cu1   O9    S    
C5    C11   T    
C38   H25   S    
C64   H87   S    
C48   H46   S    
C38   C39   S    
C68   H95   S    
C47   H45   S    
C24   C54   S    
C61   H79   S    
C9    H70   S    
C9    H48   S    
C57   H63   S    
C3    H15   S    
C72   H99   S    
C4    O6    A    
C70   H5    S    
C19   C26   S    
C24   H6    S    
C5    C16   S    
C21   C25   S    
C50   H54   S    
C17   C19   S    
C48   H49   S    
C17   O2    S    
C63   H90   S    
C45   C56   S    
C58   H76   S    
C8    C9    S    
C65   H86   S    
C62   H82   S    
C66   H97   S    
C2    H12   S    
C70   C71   S    
C53   H55   S    
C27   O10   A    
C74   H11   S    
C40   H35   S    
Cu1   N1    S    
C42   H31   S    
C30   C67   T    
Cu2   O8    S    
C69   H94   S    
C36   H16   S    
C23   C63   S    
C28   C34   S    
C59   C60   S    
C55   H66   S    
C41   H33   S    
C21   C22   S    
C12   C32   S    
Cu1   O5    S    
C72   H101  S    
C7    C70   S    
C65   H84   S    
C33   H19   S    
C1    O4    A    
C44   C46   S    
C6    C74   S    
C7    C74   S    
C35   H17   S    
C15   C20   S    
C49   H51   S    
C12   C67   S    
C61   O3    S    
C55   H67   S    
C46   H38   S    
C70   H4    S    
C51   C52   S    
C62   H80   S    
C28   C32   S    
C53   H57   S    
C38   H24   S    
C3    C8    S    
C16   O8    A    
C37   H27   S    
C1    O1    A    
C68   C69   S    
C39   H22   S    
C40   H34   S    
C34   C73   S    
C58   C59   S    
C27   C31   S    
C63   C64   S    
C57   H64   S    
C4    O5    A    
Cu1   Cu2   S    
C69   H91   S    
C7    H59   S    
C22   O3    S    
C58   H77   S    
C39   H23   S    
C47   C48   S    
Cu2   O10   S    
C18   H2    S    
C23   C34   S    
C20   H9    S    
C17   C18   S    
C53   H56   S    
C69   H93   S    
C42   H30   S    
C50   H53   S    
C10   H37   S    
C54   H69   S    
C51   H61   S    
C2    C33   S    
C40   C41   S    
C60   H71   S    
C31   C73   T    
C59   H75   S    
C20   H81   S    
C55   C57   S    
C43   C44   S    
C52   H60   S    
C22   C24   S    
C50   H52   S    
Cu1   O1    S    
C33   H20   S    
Cu2   O6    S    
C52   C53   S    
C3    H26   S    
C32   C66   S    
C9    C10   S    
C59   H74   S    
C36   H14   S    
C40   C74   S    
C15   O11   S    
C54   C55   S    
C47   H44   S    
C18   H92   S    
Cu1   O7    S    
C12   C45   S    
Cu2   N2    S    
C16   O7    A    
C6    C10   S    
C37   H28   S    
C25   N1    T    
C15   H8    S    
C29   C56   S    
C26   N2    T    
C27   O9    A    
C28   C43   S    
C57   H65   S    
C22   H7    S    
C35   H18   S    
C19   C24   S    
C71   C72   S    
Cu2   O4    S    
C23   C32   S    
C6    C13   S    
C68   H96   S    
C44   H41   S    
C8    C11   S    
C64   C65   S    
C33   C35   S    
C56   C58   S    
C2    C3    S    
C60   H73   S    
C72   H100  S    
C47   O11   S    
C61   C62   S    
C42   H29   S    
C39   H21   S    
C43   H42   S    
C49   O2    S    
C51   H62   S    
C63   H89   S    
C29   H1    S    
C20   C21   S    
C44   H40   S    
C49   C50   S    
C65   H85   S    
C62   H83   S    
C66   H98   S    
C1    C14   S    
C60   H72   S    
C13   C14   T    
C4    C30   S    
C43   H43   S    
