data_mof_unit_59511.cif
_audit_creation_date              2013-03-05T15:51:59-0500
_audit_creation_method            fapswitch 2.2
_symmetry_space_group_name_H-M    P1
_symmetry_Int_Tables_number       1
_space_group_crystal_system       triclinic
_cell_length_a                    23.343868
_cell_length_b                    7.296029
_cell_length_c                    15.212933
_cell_angle_alpha                 89.69179
_cell_angle_beta                  108.614903
_cell_angle_gamma                 89.862469
_cell_volume                      2455.42196664

loop_
_atom_site_label
_atom_site_type_symbol
_atom_site_description
_atom_site_fract_x
_atom_site_fract_y
_atom_site_fract_z
_atom_type_partial_charge
O1    O     O_R   0.711000 0.648610 0.341170 -0.589773
O2    O     O_R   0.289000 0.351390 0.658830 -0.585026
O3    O     O_R   0.789000 0.148610 0.158830 -0.589706
O4    O     O_R   0.211000 0.851390 0.841170 -0.600037
O5    O     O_R   0.829650 0.322030 0.336650 -0.584173
O6    O     O_R   0.170350 0.677970 0.663350 -0.597086
O7    O     O_R   0.670350 0.822030 0.163350 -0.586078
O8    O     O_R   0.329650 0.177970 0.836650 -0.586827
C1    C     C_R   0.854109 0.485546 0.357546 0.957205
C2    C     C_R   0.145681 0.514764 0.643195 0.962207
C3    C     C_R   0.645671 0.986059 0.143384 0.962569
C4    C     C_R   0.354175 0.013582 0.857185 0.970126
O9    O     O_R   0.713950 0.319280 0.352070 -0.596822
O10   O     O_R   0.286050 0.680720 0.647930 -0.588122
O11   O     O_R   0.786050 0.819280 0.147930 -0.597320
O12   O     O_R   0.213950 0.180720 0.852070 -0.598050
O13   O     O_R   0.672470 0.142870 0.174360 -0.598364
O14   O     O_R   0.327530 0.857130 0.825640 -0.585637
O15   O     O_R   0.827530 0.642870 0.325640 -0.582308
O16   O     O_R   0.172470 0.357130 0.674360 -0.583454
C5    C     C_R   0.700317 0.487308 0.373610 0.906892
C6    C     C_R   0.298887 0.513016 0.625447 0.906137
C7    C     C_R   0.799557 0.987430 0.126140 0.910222
C8    C     C_R   0.200802 0.012303 0.874043 0.908571
O17   O     O_3   0.736530 0.478650 0.191680 -0.296971
O18   O     O_3   0.263470 0.521350 0.808320 -0.290341
O19   O     O_3   0.763470 0.978650 0.308320 -0.279461
O20   O     O_3   0.236530 0.021350 0.691680 -0.286975
V1    V     V_3+5 0.752500 0.206170 0.260820 1.160619
V2    V     V_3+5 0.247500 0.793830 0.739180 1.159640
V3    V     V_3+5 0.747500 0.706170 0.239180 1.159453
V4    V     V_3+5 0.252500 0.293830 0.760820 1.162920
C9    C     C_R   0.829566 0.995323 0.055344 -0.175628
C10   C     C_R   0.168854 0.002492 0.941907 -0.153397
C11   C     C_R   0.668615 0.497710 0.441975 -0.152826
C12   C     C_R   0.329704 0.504700 0.555814 -0.163320
C13   C     C_R   0.822523 0.022213 0.893779 -0.127222
C14   C     C_R   0.172448 0.991895 0.101814 -0.130019
C15   C     C_R   0.672392 0.581680 0.597188 -0.103627
C16   C     C_R   0.324761 0.428652 0.399523 -0.113340
C17   C     C_R   0.795809 0.043185 0.963141 0.076796
C18   C     C_R   0.202092 0.974341 0.036187 0.056221
C19   C     C_R   0.702357 0.519421 0.536578 0.068481
C20   C     C_R   0.295085 0.479191 0.462116 0.070424
C21   C     C_R   0.892254 0.954569 0.079019 0.044163
C22   C     C_R   0.104979 0.024980 0.912436 0.061187
C23   C     C_R   0.604648 0.513416 0.411566 0.055547
C24   C     C_R   0.393907 0.508719 0.583547 0.050461
C25   C     C_R   0.920673 0.985356 0.010142 0.067569
C26   C     C_R   0.074502 0.008103 0.980142 0.054163
C27   C     C_R   0.575105 0.528664 0.479878 0.062742
C28   C     C_R   0.422151 0.501787 0.512739 0.071032
C29   C     C_R   0.884044 0.979412 0.916514 -0.057524
C30   C     C_R   0.109995 0.022966 0.075036 -0.054534
C31   C     C_R   0.609132 0.596319 0.568140 -0.067997
C32   C     C_R   0.388033 0.428077 0.425654 -0.057654
C33   C     C_R   0.983785 0.011094 0.029699 0.025527
C34   C     C_R   0.010585 0.985224 0.958958 0.031381
C35   C     C_R   0.512727 0.489118 0.462993 0.026210
C36   C     C_R   0.483584 0.550307 0.526311 0.022103
C37   C     C_R   0.973039 0.923140 0.872193 -0.355423
C38   C     C_R   0.019721 0.076048 0.116002 -0.334008
C39   C     C_R   0.515744 0.668299 0.597458 -0.304231
C40   C     C_R   0.480193 0.378030 0.388846 -0.323677
C41   C     C_R   0.909992 0.928502 0.848556 0.326826
C42   C     C_R   0.082429 0.073746 0.141239 0.330052
C43   C     C_R   0.578647 0.681505 0.623574 0.346734
C44   C     C_R   0.418040 0.352700 0.367151 0.339947
H1    H     H_    0.795409 0.045852 0.822185 0.177099
H2    H     H_    0.198794 0.980829 0.174546 0.176840
H3    H     H_    0.698740 0.616680 0.667481 0.185355
H4    H     H_    0.297975 0.392417 0.329570 0.178883
H5    H     H_    0.992108 0.867510 0.822594 0.198847
H6    H     H_    0.999070 0.135351 0.163224 0.171775
H7    H     H_    0.492066 0.757440 0.630472 0.169609
H8    H     H_    0.503141 0.306347 0.348247 0.192511
C45   C     C_1   0.416450 0.004675 0.919913 -0.294444
C46   C     C_1   0.583051 0.993039 0.081892 -0.298240
C47   C     C_1   0.083144 0.509043 0.581387 -0.299667
C48   C     C_1   0.916443 0.492659 0.420147 -0.287355
C49   C     C_1   0.468753 0.999585 0.971401 0.067584
C50   C     C_1   0.530563 0.996014 0.031104 0.059097
C51   C     C_1   0.030683 0.504702 0.530555 0.048454
C52   C     C_1   0.968833 0.498438 0.471172 0.079124
N1    N     N_R   0.873172 0.863753 0.759205 0.223774
O21   O     O_R   0.893103 0.868993 0.688581 -0.458012
O22   O     O_R   0.823669 0.774359 0.751466 -0.452658
N2    N     N_R   0.117222 0.140883 0.231064 0.218775
O23   O     O_R   0.097265 0.122649 0.301336 -0.447249
O24   O     O_R   0.163359 0.246716 0.239173 -0.459339
N3    N     N_R   0.609752 0.794588 0.701306 0.223823
O25   O     O_R   0.588893 0.810727 0.770686 -0.455104
O26   O     O_R   0.652136 0.905379 0.695921 -0.434680
N4    N     N_R   0.387473 0.234070 0.291469 0.219587
O27   O     O_R   0.405646 0.223431 0.219199 -0.459981
O28   O     O_R   0.349708 0.111828 0.302264 -0.442219
C53   C     C_3   0.073417 0.107163 0.815895 -0.465353
C54   C     C_3   0.069664 0.974602 0.735377 -0.251721
C55   C     C_3   0.021379 0.035134 0.646035 -0.827527
H9    H     H_    0.033547 0.169731 0.623181 0.254343
H10   H     H_    0.018094 0.933269 0.590672 0.254030
H11   H     H_    0.976739 0.047625 0.656575 0.290587
H12   H     H_    0.113122 0.972202 0.720599 0.222544
H13   H     H_    0.060434 0.832171 0.752861 0.193388
H14   H     H_    0.028154 0.162254 0.810630 0.212271
H15   H     H_    0.098334 0.231571 0.806752 0.196492
C56   C     C_3   0.924825 0.847090 0.168484 -0.421233
C57   C     C_3   0.953405 0.668504 0.148048 -0.228932
C58   C     C_3   0.973959 0.543872 0.233209 -0.894084
H16   H     H_    0.000587 0.621946 0.295202 0.272546
H17   H     H_    0.934064 0.481651 0.246074 0.249736
H18   H     H_    0.002798 0.432337 0.221113 0.262436
H19   H     H_    0.920159 0.593171 0.090869 0.204526
H20   H     H_    0.993406 0.699686 0.126309 0.209152
H21   H     H_    0.959164 0.929584 0.219483 0.194512
H22   H     H_    0.893670 0.808025 0.206744 0.208163
C59   C     C_3   0.430292 0.486544 0.687171 -0.424296
C60   C     C_3   0.469161 0.311559 0.706773 -0.209781
C61   C     C_3   0.504899 0.295624 0.809722 -0.895306
H23   H     H_    0.535448 0.414915 0.831568 0.277421
H24   H     H_    0.473730 0.293033 0.851528 0.260667
H25   H     H_    0.532285 0.167700 0.823079 0.279815
H26   H     H_    0.439460 0.189828 0.685658 0.200291
H27   H     H_    0.501671 0.311421 0.667206 0.215327
H28   H     H_    0.457711 0.607507 0.716290 0.202529
H29   H     H_    0.400701 0.476560 0.731135 0.184852
C62   C     C_3   0.571029 0.570515 0.310957 -0.460717
C63   C     C_3   0.569334 0.423801 0.237626 -0.244180
C64   C     C_3   0.518740 0.463876 0.147078 -0.839828
H30   H     H_    0.524861 0.601816 0.120184 0.254364
H31   H     H_    0.519599 0.360588 0.094301 0.251267
H32   H     H_    0.474043 0.458434 0.158193 0.286406
H33   H     H_    0.612368 0.424420 0.221497 0.218469
H34   H     H_    0.563410 0.284267 0.262647 0.199266
H35   H     H_    0.524458 0.617480 0.303606 0.218383
H36   H     H_    0.592974 0.695133 0.294342 0.197168
C65   C     C_3   0.270027 0.942642 0.070446 -0.379079
C66   C     C_3   0.285445 0.747187 0.108460 -0.247752
C67   C     C_3   0.353662 0.714579 0.142520 -0.812244
H37   H     H_    0.372584 0.732571 0.084654 0.251924
H38   H     H_    0.376129 0.811388 0.199023 0.297195
H39   H     H_    0.363324 0.572685 0.169895 0.259130
H40   H     H_    0.267708 0.723108 0.167202 0.196277
H41   H     H_    0.264051 0.646946 0.052943 0.212702
H42   H     H_    0.290872 0.966196 0.015272 0.165355
H43   H     H_    0.291039 0.043397 0.125706 0.257334
C68   C     C_3   0.731004 0.110429 0.935215 -0.394562
C69   C     C_3   0.729069 0.318895 0.920995 -0.259588
C70   C     C_3   0.664387 0.391070 0.889596 -0.830464
H44   H     H_    0.638553 0.330490 0.821693 0.272890
H45   H     H_    0.641961 0.356808 0.941920 0.257356
H46   H     H_    0.664686 0.542345 0.881599 0.276394
H47   H     H_    0.754740 0.386517 0.987158 0.221853
H48   H     H_    0.750398 0.356097 0.867622 0.198398
H49   H     H_    0.704205 0.042213 0.869935 0.251817
H50   H     H_    0.708908 0.074708 0.987668 0.172264
C71   C     C_3   0.226448 0.488845 0.428597 -0.383947
C72   C     C_3   0.203011 0.638235 0.354085 -0.235211
C73   C     C_3   0.134408 0.657376 0.326342 -0.768046
H51   H     H_    0.112406 0.523259 0.304284 0.290923
H52   H     H_    0.121047 0.709234 0.385550 0.253628
H53   H     H_    0.118178 0.755078 0.267443 0.247865
H54   H     H_    0.223888 0.772009 0.380978 0.217442
H55   H     H_    0.215304 0.604121 0.291288 0.206082
H56   H     H_    0.208581 0.353031 0.400885 0.259492
H57   H     H_    0.207872 0.517710 0.485711 0.160749
C74   C     C_3   0.770871 0.501570 0.571734 -0.384647
C75   C     C_3   0.792719 0.362219 0.651598 -0.225165
C76   C     C_3   0.861435 0.341709 0.682682 -0.787111
H58   H     H_    0.875943 0.280521 0.626446 0.256976
H59   H     H_    0.883581 0.476816 0.701509 0.288461
H60   H     H_    0.876490 0.251248 0.744591 0.235458
H61   H     H_    0.779364 0.407051 0.711971 0.205437
H62   H     H_    0.771840 0.226515 0.628748 0.222136
H63   H     H_    0.789309 0.458245 0.516317 0.161931
H64   H     H_    0.790279 0.638383 0.594482 0.262993

loop_
_geom_bond_atom_site_label_1
_geom_bond_atom_site_label_2
_geom_bond_distance
_ccdc_geom_bond_type
O17   V3    1.800036 S    
C14   H2    1.083237 S    
O1    C5    1.328337 A    
C71   C72   1.536279 S    
C13   H1    1.083505 S    
O19   V1    1.791714 S    
C9    C21   1.421235 A    
C76   H58   1.110972 S    
O3    C7    1.331956 A    
C68   C69   1.533654 S    
C10   C18   1.409605 A    
C48   C52   1.222520 T    
C11   C23   1.419348 A    
C63   C64   1.527513 S    
C53   C54   1.545367 S    
C25   C33   1.420017 A    
C33   C38   1.399120 A    
N1    O21   1.300393 A    
C2    C47   1.463348 S    
O7    C3    1.318129 A    
C35   C40   1.404256 A    
C26   C30   1.421549 A    
C36   C39   1.403773 A    
C40   C44   1.394419 A    
O9    V1    2.055285 S    
C62   H35   1.109958 S    
C14   C18   1.390691 A    
C24   C28   1.432287 A    
C66   H40   1.111662 S    
C70   H45   1.111151 S    
C73   H51   1.108969 S    
C42   N2    1.437876 S    
O4    C8    1.328946 A    
C67   H39   1.109211 S    
C54   H13   1.109839 S    
C54   H12   1.107071 S    
O1    V3    2.036764 S    
O13   V1    1.968621 S    
C57   C58   1.524440 S    
O2    V4    2.036767 S    
C57   H20   1.109241 S    
O3    V1    2.039364 S    
C60   C61   1.525055 S    
C28   C36   1.427853 A    
C58   H17   1.108684 S    
C70   H44   1.111144 S    
C1    O15   1.317738 A    
C15   C31   1.403423 A    
C51   C52   1.439046 S    
C2    O16   1.319090 A    
C7    C9    1.461231 S    
C17   C68   1.514480 S    
O2    C6    1.330960 A    
C56   C57   1.540158 S    
C73   H52   1.110947 S    
C10   C22   1.422157 A    
C45   C49   1.222522 T    
C29   C41   1.405906 A    
C59   H29   1.106555 S    
C72   H55   1.110946 S    
C64   H32   1.109770 S    
C13   C29   1.399710 A    
C34   C37   1.409044 A    
O11   C7    1.333652 A    
O15   V3    1.963191 S    
C35   C36   1.418269 A    
O12   C8    1.333691 A    
C18   C65   1.519667 S    
C20   C71   1.519764 S    
C76   H59   1.109933 S    
C69   H48   1.112321 S    
O10   V2    2.055287 S    
C49   C50   1.438907 S    
O5    V1    1.995071 S    
C61   H24   1.108883 S    
C75   H61   1.110532 S    
C39   C43   1.397121 A    
O7    V3    1.986127 S    
C38   C42   1.389811 A    
N1    O22   1.300865 A    
O8    V4    1.986130 S    
C65   H43   1.110332 S    
C69   C70   1.522623 S    
C58   H16   1.110633 S    
C70   H46   1.110024 S    
C71   H56   1.108052 S    
C74   C75   1.535776 S    
O18   V4    1.800038 S    
C23   C27   1.423509 A    
C16   C32   1.401685 A    
C32   C44   1.409488 A    
O11   V3    2.051020 S    
C44   N4    1.439830 S    
C1    C48   1.463974 S    
C26   C34   1.432750 A    
C57   H19   1.112332 S    
C75   H62   1.112011 S    
O5    C1    1.319786 A    
C3    C46   1.463104 S    
C63   H34   1.109288 S    
N3    O26   1.301497 A    
C46   C50   1.222300 T    
C31   C43   1.410863 A    
C55   H9    1.107540 S    
C14   C30   1.400396 A    
C21   C25   1.424935 A    
O8    C4    1.319983 A    
C4    C45   1.463384 S    
C43   N3    1.439278 S    
C40   H8    1.074874 S    
C73   H53   1.108896 S    
O9    C5    1.334395 A    
C60   H27   1.109012 S    
C62   H36   1.111492 S    
C61   H23   1.109642 S    
N4    O28   1.301625 A    
C68   H50   1.109905 S    
C56   H21   1.103208 S    
C72   H54   1.112108 S    
C5    C11   1.458434 S    
C53   H15   1.111040 S    
C75   C76   1.527398 S    
O6    V2    1.995069 S    
C22   C53   1.535244 S    
N2    O24   1.300635 A    
C72   C73   1.526147 S    
C76   H60   1.107723 S    
C58   H18   1.107862 S    
C27   C35   1.426055 A    
C69   H47   1.112351 S    
C62   C63   1.541680 S    
N3    O25   1.301599 A    
C11   C19   1.412847 A    
C74   H63   1.108959 S    
C64   H30   1.110985 S    
O16   V4    1.963188 S    
C61   H25   1.110528 S    
C65   H42   1.109235 S    
C3    O13   1.320385 A    
C16   H4    1.082770 S    
C55   H10   1.110579 S    
C53   H14   1.108144 S    
C71   H57   1.108787 S    
O6    C2    1.318349 A    
C15   C19   1.400191 A    
C67   H37   1.111130 S    
C41   N1    1.439641 S    
C24   C59   1.540940 S    
C30   C42   1.407935 A    
C19   C74   1.520904 S    
C68   H49   1.111533 S    
O12   V4    2.051021 S    
C6    C12   1.459574 S    
C65   C66   1.534069 S    
C22   C26   1.431465 A    
C37   H5    1.071956 S    
O10   C6    1.331199 A    
O20   V2    1.791716 S    
C9    C17   1.413574 A    
C66   H41   1.112089 S    
C63   H33   1.107606 S    
C47   C51   1.222550 T    
C67   H38   1.110549 S    
C33   C34   1.420072 A    
C39   H7    1.076939 S    
C23   C62   1.535183 S    
C25   C29   1.408931 A    
C12   C24   1.421894 A    
C27   C31   1.416198 A    
C60   H26   1.112004 S    
C13   C17   1.395395 A    
N4    O27   1.301260 A    
C8    C10   1.455401 S    
C56   H22   1.103813 S    
C12   C20   1.409863 A    
C66   C67   1.526771 S    
O14   V2    1.968623 S    
C21   C56   1.539612 S    
C37   C41   1.399500 A    
C16   C20   1.395081 A    
C55   H11   1.107377 S    
N2    O23   1.301655 A    
C54   C55   1.525098 S    
C4    O14   1.318668 A    
C15   H3    1.082051 S    
C38   H6    1.076613 S    
C59   C60   1.536149 S    
C59   H28   1.100329 S    
O4    V2    2.039361 S    
C28   C32   1.419434 A    
C74   H64   1.107799 S    
C64   H31   1.108906 S    
