data_mof_unit_22236.cif
_audit_creation_date              2012-12-11T20:00:27-0500
_audit_creation_method            fapswitch 2.2
_symmetry_space_group_name_H-M    P1
_symmetry_Int_Tables_number       1
_space_group_crystal_system       triclinic
_cell_length_a                    8.238338
_cell_length_b                    16.26176
_cell_length_c                    27.066641
_cell_angle_alpha                 72.443524
_cell_angle_beta                  96.854582
_cell_angle_gamma                 95.975031
_cell_volume                      3423.60677442

loop_
_atom_site_label
_atom_site_type_symbol
_atom_type_description
_atom_site_fract_x
_atom_site_fract_y
_atom_site_fract_z
_atom_type_partial_charge
Ba1   Ba    Ba6+2 0.337820 0.939830 0.518500 1.672659
Ba2   Ba    Ba6+2 0.851970 0.060110 0.481480 1.681617
C1    C     C_3   0.071422 0.525175 0.612736 -0.370024
C2    C     C_R   0.445281 0.396363 0.188615 0.572342
C3    C     C_2   0.280239 0.277173 0.279049 -0.078698
C4    C     C_3   0.540362 0.639453 0.630075 0.336541
C5    C     C_3   0.274335 0.247577 0.337205 -0.052745
C6    C     C_1   0.474820 0.143865 0.341379 -0.018403
C7    C     C_2   0.513890 0.188115 0.293388 -0.118688
C8    C     C_2   0.408342 0.257821 0.258495 0.195554
C9    C     C_R   0.520357 0.402149 0.102897 -0.079449
C10   C     C_R   0.521736 0.311267 0.119870 -0.036801
C11   C     C_R   0.560272 0.269133 0.085126 -0.059769
C12   C     C_3   0.061407 0.621238 0.604850 0.352016
C13   C     C_R   0.481573 0.444571 0.137696 -0.024231
C14   C     C_2   0.358028 0.165632 0.363665 -0.188648
C15   C     C_2   0.839374 0.838273 0.637778 -0.279357
C16   C     C_3   0.519423 0.564567 0.679099 -0.317266
C17   C     C_R   0.632369 0.455316 0.964621 0.019967
C18   C     C_R   0.591807 0.590948 0.983103 0.020272
C19   C     C_R   0.630223 0.547124 0.948277 0.049752
C20   C     C_R   0.671228 0.415169 0.928261 -0.101297
C21   C     C_R   0.706697 0.462941 0.878198 -0.060116
C22   C     C_R   0.705463 0.553252 0.861632 -0.024476
C23   C     C_3   0.080533 0.015578 0.646730 0.292708
C24   C     C_R   0.667125 0.595658 0.896495 -0.079419
C25   C     C_R   0.666267 0.686553 0.879598 -0.036153
C26   C     C_R   0.704372 0.733678 0.828378 0.597523
C27   C     C_R   0.741749 0.601504 0.810705 0.573903
C28   C     C_3   0.598059 0.885103 0.389723 0.298243
C29   C     C_2   0.906573 0.720819 0.720087 -0.087135
C30   C     C_3   0.915036 0.753493 0.662042 -0.046572
C31   C     C_1   0.717130 0.857293 0.659007 0.032388
C32   C     C_2   0.675468 0.811369 0.706438 -0.102658
C33   C     C_2   0.779001 0.740252 0.740887 0.193765
C34   C     C_3   0.084154 0.976830 0.705451 -0.354956
C35   C     C_R   0.595911 0.406849 0.016315 0.020229
C36   C     C_R   0.557276 0.450670 0.051116 0.049774
C37   C     C_R   0.554954 0.542471 0.034749 0.020045
C38   C     C_R   0.596526 0.315454 0.034764 -0.098634
C39   C     C_R   0.479876 0.534855 0.121076 -0.060560
C40   C     C_3   0.570552 0.812805 0.364094 -0.387919
C41   C     C_R   0.591885 0.682370 0.964740 -0.098789
C42   C     C_R   0.628277 0.728700 0.914403 -0.060147
C43   C     C_R   0.515458 0.582608 0.071031 -0.101518
C44   C     C_2   0.402576 0.245384 0.513011 -0.294738
C45   C     C_3   0.650358 0.359420 0.368108 0.345185
C46   C     C_R   0.802018 0.759689 0.490723 -0.305588
C47   C     C_2   0.256517 0.312200 0.563290 -0.130310
C48   C     C_2   0.270213 0.245129 0.545301 0.039412
C49   C     C_2   0.509831 0.313906 0.499202 0.007090
C50   C     C_3   0.467675 0.398869 0.504548 -0.050234
C51   C     C_3   0.381205 0.388137 0.553479 0.018286
C52   C     C_3   0.599653 0.115511 0.610104 0.312037
C53   C     C_2   0.607246 0.465643 0.501012 -0.067310
C54   C     C_2   0.574017 0.548440 0.486169 -0.073140
C55   C     C_R   0.841390 0.617380 0.457142 -0.000356
C56   C     C_3   0.672526 0.432996 0.318518 -0.314075
C57   C     C_R   0.703421 0.618337 0.482573 -0.040748
C58   C     C_R   0.955526 0.688408 0.446828 -0.134949
C59   C     C_R   0.932703 0.760754 0.462219 0.054320
C60   C     C_R   0.683411 0.690304 0.499309 0.003484
C61   C     C_3   0.640160 0.188864 0.634596 -0.375857
C62   C     C_3   0.134326 0.982962 0.355408 0.887600
C63   C     C_3   0.146613 0.008931 0.296990 -0.297957
C64   C     C_3   0.131822 0.379435 0.395116 0.344203
C65   C     C_3   0.119903 0.475255 0.387584 -0.359600
C66   C     C_R   0.483698 0.264173 0.171113 0.598853
F1    F     F_    0.060870 0.046355 0.367080 -0.694967
H1    H     H_    0.101058 0.657319 0.565819 0.074535
H2    H     H_    0.259137 0.976853 0.375458 -0.062736
H3    H     H_    0.196887 0.511810 0.607847 0.147793
H4    H     H_    0.211670 0.960312 0.287116 0.065357
H5    H     H_    0.215147 0.072907 0.284036 0.072511
H6    H     H_    0.022069 0.013090 0.275928 0.119298
H7    H     H_    0.930917 0.631864 0.606051 -0.057041
H8    H     H_    0.984413 0.504280 0.583438 0.069625
H9    H     H_    0.951304 0.015327 0.629804 0.014087
H10   H     H_    0.149495 0.974746 0.631495 0.070226
H11   H     H_    0.010670 0.014327 0.721689 0.135298
H12   H     H_    0.647710 0.827318 0.331117 0.133205
H13   H     H_    0.032144 0.908765 0.715189 0.071579
H14   H     H_    0.212497 0.978090 0.723423 0.132935
H15   H     H_    0.038739 0.487424 0.652287 0.122467
H16   H     H_    0.539723 0.589322 0.713370 0.124298
H17   H     H_    0.710170 0.302982 0.365336 0.085749
H18   H     H_    0.517434 0.342566 0.371219 -0.061534
H19   H     H_    0.798805 0.464096 0.319184 0.142706
H20   H     H_    0.652291 0.407027 0.284712 0.119353
H21   H     H_    0.584198 0.482430 0.314137 0.120973
H22   H     H_    0.261973 0.369828 0.392682 -0.065151
H23   H     H_    0.603221 0.750584 0.392404 0.061123
H24   H     H_    0.095900 0.342785 0.434538 0.069808
H25   H     H_    0.206701 0.496366 0.416832 0.067540
H26   H     H_    0.994076 0.487783 0.392680 0.149733
H27   H     H_    0.478120 0.694705 0.633461 0.094688
H28   H     H_    0.151577 0.513505 0.348011 0.119095
H29   H     H_    0.623533 0.174788 0.279440 0.138555
H30   H     H_    0.562689 0.199371 0.096787 0.122476
H31   H     H_    0.989391 0.672955 0.743195 0.119534
H32   H     H_    0.735525 0.428217 0.852273 0.122133
H33   H     H_    0.675564 0.346342 0.936982 0.069472
H34   H     H_    0.439535 0.806295 0.349367 0.117830
H35   H     H_    0.624603 0.276841 0.011309 0.069368
H36   H     H_    0.196420 0.324184 0.255539 0.112577
H37   H     H_    0.450567 0.569572 0.146943 0.121780
H38   H     H_    0.564468 0.721016 0.988261 0.069278
H39   H     H_    0.673070 0.657733 0.627269 -0.050670
H40   H     H_    0.626395 0.798485 0.902811 0.122333
H41   H     H_    0.566053 0.824889 0.720419 0.132117
H42   H     H_    0.510503 0.651406 0.062247 0.069276
H43   H     H_    0.344970 0.136551 0.404841 0.090753
H44   H     H_    0.869170 0.875643 0.598984 0.075744
H45   H     H_    0.467458 0.111419 0.597916 -0.007260
H46   H     H_    0.163769 0.308860 0.589281 0.077878
H47   H     H_    0.057118 0.688358 0.424925 0.089420
H48   H     H_    0.420582 0.185934 0.504661 0.061243
H49   H     H_    0.785935 0.815904 0.502647 0.067936
H50   H     H_    0.732011 0.447358 0.513597 0.097745
H51   H     H_    0.393392 0.533242 0.678350 0.141533
H52   H     H_    0.447221 0.564776 0.477157 0.102533
H53   H     H_    0.608269 0.515714 0.682717 0.120398
H54   H     H_    0.729060 0.892190 0.403179 0.024067
H55   H     H_    0.522888 0.868114 0.423273 0.057828
H56   H     H_    0.670985 0.129263 0.575895 0.071014
H57   H     H_    0.564053 0.179229 0.667379 0.126982
H58   H     H_    0.615843 0.251766 0.605454 0.059914
H59   H     H_    0.771838 0.190687 0.649347 0.127315
N1    N     N_R   0.446467 0.306586 0.205330 -0.421643
N2    N     N_R   0.740881 0.691302 0.794041 -0.421434
O1    O     O_2   0.431310 0.922990 0.623550 -0.460687
O2    O     O_2   0.848142 0.306818 0.503786 -0.487385
O3    O     O_3   0.722449 0.385916 0.410914 -0.601573
O4    O     O_3   0.663280 0.983100 0.563360 -0.500705
O5    O     O_3   0.016420 0.932050 0.462720 -0.433769
O6    O     O_2   0.959730 0.164640 0.549160 -0.457816
O7    O     O_3   0.152153 0.100467 0.635398 -0.640372
O8    O     O_2   0.926394 0.214528 0.327692 -0.449851
O9    O     O_3   0.026817 0.353243 0.356700 -0.611128
O10   O     O_2   0.481312 0.185292 0.184820 -0.595280
O11   O     O_2   0.773265 0.562882 0.781089 -0.621565
O12   O     O_3   0.039731 0.904337 0.369924 -0.666840
O13   O     O_2   0.413562 0.434998 0.218206 -0.622093
O14   O     O_2   0.707548 0.812578 0.814808 -0.597175
O15   O     O_3   0.126250 0.812630 0.574830 -0.486960
O16   O     O_2   0.262376 0.787116 0.672303 -0.495467
O17   O     O_3   0.638754 0.038138 0.647363 -0.626376
O18   O     O_3   0.163883 0.647186 0.643871 -0.597599
O19   O     O_2   0.229950 0.835370 0.450810 -0.484118
O20   O     O_3   0.517580 0.797570 0.545130 -0.495712
O21   O     O_2   0.344138 0.695101 0.494321 -0.493384
O22   O     O_3   0.470530 0.613915 0.586682 -0.602578
O23   O     O_2   0.758370 0.077020 0.376420 -0.376305
O24   O     O_3   0.526390 0.016840 0.436620 -0.507611
O25   O     O_3   0.063420 0.187310 0.425160 -0.441474
O26   O     O_3   0.552924 0.961734 0.352731 -0.632389
O27   O     O_3   0.173250 0.067890 0.537260 -0.477109
O28   O     O_3   0.672100 0.202370 0.454860 -0.500461
P1    P     P_3+3 0.610630 0.953360 0.619150 0.988258
P2    P     P_3+3 0.057260 0.861390 0.437850 1.018971
P3    P     P_3+3 0.502575 0.699409 0.530519 0.938438
P4    P     P_3+3 0.579040 0.046590 0.380840 1.017502
P5    P     P_3+3 0.689141 0.302200 0.467781 0.938941
P6    P     P_3+3 0.119792 0.752096 0.639794 0.944145
P7    P     P_3+3 0.142745 0.145239 0.567757 0.949211
P8    P     P_3+3 0.070246 0.248488 0.360283 1.027255

loop_
_geom_bond_atom_site_label_1
_geom_bond_atom_site_label_2
_ccdc_geom_bond_type
C19   C24   A    
C7    H29   S    
C9    C36   A    
Ba1   O15   S    
C53   C54   D    
O17   P1    S    
C40   H34   S    
Ba2   P4    S    
C2    O13   D    
O7    P7    S    
C15   H44   S    
C53   H50   S    
C10   C66   A    
C24   C25   A    
Ba2   O4    S    
C17   C19   A    
C22   C24   A    
C32   C33   S    
C35   C38   A    
C36   C37   A    
C55   C57   A    
C60   P3    S    
C52   C61   S    
C34   H14   S    
C12   O18   S    
C63   H4    S    
Ba1   Ba2   S    
C62   H2    S    
C22   C27   A    
C11   C38   A    
C17   C35   A    
C9    C13   A    
C25   C42   A    
C64   O9    S    
C29   C30   S    
C34   H13   S    
C6    C7    D    
O21   P3    D    
C65   H25   S    
C21   C22   A    
Ba1   O19   S    
C26   O14   D    
C7    C8    S    
C40   H23   S    
O22   P3    S    
C50   C53   S    
C37   C43   A    
C4    O22   S    
C42   H40   S    
C28   O26   S    
O4    P1    S    
O26   P4    S    
Ba2   O24   S    
C45   O3    S    
C65   H26   S    
C12   H1    S    
C66   N1    Am   
C40   H12   S    
C15   C31   D    
O3    P5    S    
C56   H20   S    
C4    C16   S    
C52   H56   S    
C16   H16   S    
C39   H37   S    
C49   C50   S    
O18   P6    S    
C45   H17   S    
Ba1   P1    S    
C17   C20   A    
C13   C39   A    
C34   H11   S    
C59   P2    S    
O27   P7    S    
C3    C5    S    
C18   C37   A    
C55   C58   A    
C3    H36   S    
C29   H31   S    
O16   P6    D    
C44   C49   D    
Ba2   O6    S    
C63   H5    S    
C23   H9    S    
C44   H48   S    
C58   C59   A    
C45   H18   S    
C11   H30   S    
O9    P8    S    
C23   O7    S    
C41   C42   A    
C35   C36   A    
C38   H35   S    
C46   C60   A    
C27   N2    Am   
Ba2   O28   S    
C27   O11   D    
C18   C19   A    
C48   P7    S    
C31   C32   D    
Ba1   O20   S    
Ba2   O25   S    
C41   H38   S    
C62   F1    S    
C28   H54   S    
C49   P5    S    
C56   H21   S    
C33   N2    S    
C2    N1    Am   
C1    C12   S    
O28   P5    S    
C16   H53   S    
C64   H24   S    
C5    C14   S    
C47   H46   S    
C5    P8    S    
C28   H55   S    
Ba2   O23   S    
C4    H27   S    
C32   H41   S    
C29   C33   D    
C66   O10   D    
Ba1   O4    S    
C1    H8    S    
C16   H51   S    
C25   C26   A    
C18   C41   A    
C50   C51   S    
C14   H43   S    
O20   P3    S    
O1    P1    D    
C57   C60   A    
C4    H39   S    
O5    P2    S    
C23   H10   S    
O24   P4    S    
Ba1   P2    S    
C61   H59   S    
O12   P2    S    
Ba1   O1    S    
C56   H19   S    
C52   H45   S    
C46   H49   S    
C9    C10   A    
C43   H42   S    
C64   H22   S    
O15   P6    S    
C44   C48   S    
Ba2   O5    S    
C20   H33   S    
C54   C57   S    
O23   P4    D    
O8    P8    D    
C62   C63   S    
C2    C13   A    
Ba1   O27   S    
C1    H3    S    
C8    N1    S    
C3    C8    D    
C6    P4    S    
C54   H52   S    
C45   C56   S    
C46   C59   A    
C21   H32   S    
C62   O12   S    
Ba2   O27   S    
C47   C51   S    
C30   P6    S    
C64   C65   S    
C26   N2    Am   
Ba1   O24   S    
O19   P2    D    
O2    P5    D    
C61   H57   S    
C58   H47   S    
C65   H28   S    
C23   C34   S    
C10   C11   A    
C6    C14   D    
C47   C48   D    
O6    P7    D    
C1    H15   S    
C15   C30   S    
C39   C43   A    
C20   C21   A    
C28   C40   S    
O25   P8    S    
Ba1   O5    S    
C61   H58   S    
C63   H6    S    
C31   P1    S    
C12   H7    S    
C52   O17   S    
