data_mof_unit_16576.cif
_audit_creation_date              2012-12-11T16:25:37-0500
_audit_creation_method            fapswitch 2.2
_symmetry_space_group_name_H-M    P1
_symmetry_Int_Tables_number       1
_space_group_crystal_system       triclinic
_cell_length_a                    20.183972
_cell_length_b                    7.264749
_cell_length_c                    13.444778
_cell_angle_alpha                 90.507445
_cell_angle_beta                  103.247823
_cell_angle_gamma                 89.313191
_cell_volume                      1918.78846393

loop_
_atom_site_label
_atom_site_type_symbol
_atom_type_description
_atom_site_fract_x
_atom_site_fract_y
_atom_site_fract_z
_atom_type_partial_charge
O1    O     O_R   0.449520 0.506760 0.599710 -0.541299
O2    O     O_R   0.550480 0.006760 0.400290 -0.535455
O3    O     O_R   0.587930 0.180200 0.595790 -0.537585
O4    O     O_R   0.412070 0.680200 0.404210 -0.540663
C1    C     C_R   0.614436 0.343914 0.617502 0.686707
C2    C     C_R   0.385486 0.844689 0.382766 0.688883
O5    O     O_R   0.452350 0.177380 0.611700 -0.530353
O6    O     O_R   0.547650 0.677380 0.388300 -0.540339
O7    O     O_R   0.413930 0.001760 0.416320 -0.532709
O8    O     O_R   0.586070 0.501760 0.583680 -0.534606
C3    C     C_R   0.436569 0.346853 0.637990 0.686542
C4    C     C_R   0.563428 0.844236 0.361795 0.689482
O9    O     O_3   0.487550 0.337460 0.435880 -0.376752
O10   O     O_3   0.512450 0.837460 0.564120 -0.374858
V1    V     V_3+5 0.502310 0.064670 0.511900 1.482685
V2    V     V_3+5 0.497690 0.564670 0.488100 1.459417
C5    C     C_R   0.611314 0.767087 0.111521 -0.012702
C6    C     C_R   0.390002 0.417215 0.889972 -0.004750
H1    H     H_    0.518544 0.754917 0.162921 0.141493
H2    H     H_    0.483571 0.406679 0.840373 0.148148
H3    H     H_    0.585845 0.725687 0.034812 0.181533
H4    H     H_    0.416342 0.448150 0.967875 0.186852
C7    C     C_R   0.602496 0.844689 0.282690 -0.080447
C8    C     C_R   0.396854 0.359415 0.715918 -0.080752
C9    C     C_R   0.930483 0.901276 0.317110 -0.288471
C10   C     C_R   0.069766 0.295742 0.686166 -0.286831
C11   C     C_R   0.895328 0.905217 0.394321 -0.179978
C12   C     C_R   0.106160 0.252643 0.613230 -0.177071
C13   C     C_R   0.825013 0.882534 0.372294 0.597345
C14   C     C_R   0.176817 0.266268 0.635817 0.605203
C15   C     C_R   0.787224 0.859076 0.269401 -0.057638
C16   C     C_R   0.213118 0.334441 0.732729 -0.060310
C17   C     C_R   0.824643 0.843656 0.191477 -0.040438
C18   C     C_R   0.175250 0.372493 0.808238 -0.039582
C19   C     C_R   0.714481 0.845500 0.240825 0.006889
C20   C     C_R   0.285379 0.358981 0.759197 0.012783
C21   C     C_R   0.682079 0.796355 0.138301 0.075950
C22   C     C_R   0.318531 0.403044 0.862127 0.069383
C23   C     C_R   0.720130 0.776983 0.063491 0.334625
C24   C     C_R   0.280403 0.435454 0.935823 0.331558
C25   C     C_R   0.790381 0.805012 0.090156 -0.260278
C26   C     C_R   0.209472 0.423380 0.907839 -0.256242
C27   C     C_R   0.672176 0.880518 0.309798 -0.155878
C28   C     C_R   0.326102 0.346914 0.686589 -0.151465
C29   C     C_R   0.572363 0.785802 0.183966 -0.130130
C30   C     C_R   0.428785 0.393591 0.817556 -0.136363
C31   C     C_R   0.896212 0.867360 0.216305 -0.044929
C32   C     C_R   0.103536 0.352400 0.783831 -0.044724
H5    H     H_    0.691085 0.935338 0.385273 0.197461
H6    H     H_    0.304749 0.337412 0.605807 0.189361
H7    H     H_    0.985025 0.921884 0.336365 0.133714
H8    H     H_    0.015133 0.277037 0.667632 0.131821
H9    H     H_    0.923079 0.924519 0.472727 0.151618
H10   H     H_    0.079458 0.200818 0.539280 0.150641
H11   H     H_    0.818282 0.793050 0.030562 0.124741
H12   H     H_    0.181232 0.451447 0.965788 0.123123
H13   H     H_    0.101342 0.688110 0.463232 0.109357
H14   H     H_    0.897649 0.482605 0.529059 0.108175
C33   C     C_R   0.233764 0.937790 0.039905 -0.246770
C34   C     C_R   0.767352 0.288944 0.962522 -0.245929
C35   C     C_R   0.290368 0.974785 0.000680 -0.171535
C36   C     C_R   0.711285 0.252210 0.003062 -0.173137
C37   C     C_R   0.355141 0.974232 0.064613 0.699911
C38   C     C_R   0.646423 0.246387 0.939627 0.697279
C39   C     C_R   0.363799 0.935394 0.168219 -0.207148
C40   C     C_R   0.637154 0.278193 0.835165 -0.204719
C41   C     C_R   0.307332 0.895940 0.210106 -0.012481
C42   C     C_R   0.693106 0.315765 0.791743 -0.008959
C43   C     C_R   0.240963 0.897652 0.144717 0.056275
C44   C     C_R   0.759586 0.320593 0.856672 0.057419
C45   C     C_R   0.316215 0.852104 0.314923 -0.135061
C46   C     C_R   0.683625 0.350160 0.685666 -0.133877
C47   C     C_R   0.258849 0.807938 0.354144 0.065456
C48   C     C_R   0.740704 0.387159 0.644332 0.064056
C49   C     C_R   0.192484 0.809959 0.288765 0.068687
C50   C     C_R   0.807157 0.392338 0.709305 0.069827
C51   C     C_R   0.183510 0.856314 0.184290 -0.147795
C52   C     C_R   0.816580 0.359089 0.815431 -0.146316
C53   C     C_R   0.266189 0.762549 0.458368 -0.096400
C54   C     C_R   0.733100 0.415938 0.538245 -0.115241
C55   C     C_R   0.209778 0.719470 0.496831 -0.029749
C56   C     C_R   0.789341 0.449423 0.497503 -0.011134
C57   C     C_R   0.145009 0.721410 0.432948 -0.090711
C58   C     C_R   0.854138 0.456050 0.561067 -0.070989
C59   C     C_R   0.136166 0.766344 0.330108 -0.134782
C60   C     C_R   0.863221 0.427913 0.665770 -0.135515
H15   H     H_    0.184506 0.939170 0.986940 0.141694
H16   H     H_    0.816665 0.292977 0.015211 0.141641
H17   H     H_    0.283840 0.004000 0.920161 0.145062
H18   H     H_    0.718293 0.228108 0.084197 0.141079
H19   H     H_    0.415169 0.935425 0.214892 0.113823
H20   H     H_    0.585742 0.273413 0.788916 0.111242
H21   H     H_    0.315449 0.760265 0.511312 0.103818
H22   H     H_    0.683813 0.411505 0.485493 0.103984
H23   H     H_    0.216370 0.684756 0.576688 0.111517
H24   H     H_    0.782566 0.470646 0.416153 0.117268
H25   H     H_    0.084805 0.766175 0.283469 0.091819
H26   H     H_    0.914637 0.433223 0.711965 0.090033
O11   O     O_R   0.913760 0.203480 0.916370 -0.531908
O12   O     O_R   0.086240 0.703480 0.083630 -0.538035
O13   O     O_R   0.047590 0.535230 0.888250 -0.541904
O14   O     O_R   0.952410 0.035230 0.111750 -0.540698
C61   C     C_R   0.063707 0.367036 0.862084 0.697688
C62   C     C_R   0.935943 0.869721 0.137642 0.696950
O15   O     O_R   0.912020 0.532880 0.904260 -0.540334
O16   O     O_R   0.087980 0.032880 0.095740 -0.534563
O17   O     O_R   0.949590 0.708460 0.099750 -0.539809
O18   O     O_R   0.050410 0.208460 0.900250 -0.536909
C63   C     C_R   0.885788 0.365368 0.883409 0.680137
C64   C     C_R   0.114205 0.864461 0.116610 0.681300
O19   O     O_3   0.012370 0.375360 0.064120 -0.377341
O20   O     O_3   0.987630 0.875360 0.935880 -0.375619
V3    V     V_3+5 0.997700 0.648160 0.988110 1.419296
V4    V     V_3+5 0.002300 0.148160 0.011890 1.431899
F1    F     F_    0.410002 0.010668 0.025972 -0.673270
F2    F     F_    0.592094 0.210209 0.979568 -0.675920
O21   O     O_3   0.687444 0.733557 0.964051 -0.646853
H27   H     H_    0.721298 0.725024 0.921094 0.295259
O22   O     O_3   0.313454 0.480641 0.034837 -0.647555
H28   H     H_    0.279490 0.498585 0.077028 0.294705
F3    F     F_    0.796921 0.872368 0.454304 -0.723881
F4    F     F_    0.207811 0.196461 0.564269 -0.718171

loop_
_geom_bond_atom_site_label_1
_geom_bond_atom_site_label_2
_ccdc_geom_bond_type
C40   C42   A    
C37   C39   A    
O12   C64   A    
C38   F2    S    
C11   C13   A    
O13   V3    S    
C43   C51   A    
O1    C3    A    
O2    C4    A    
O11   V4    S    
C34   H16   S    
C23   C25   A    
O5    C3    A    
C4    C7    S    
C48   C50   A    
O16   V4    S    
C7    C29   A    
C16   C20   A    
O15   V3    S    
C19   C21   A    
C50   C52   A    
C53   H21   S    
C1    C46   S    
C10   H8    S    
C55   H23   S    
C44   C52   A    
O11   C63   A    
C3    C8    S    
C7    C27   A    
C34   C36   A    
O18   V4    S    
C35   C37   A    
O17   V3    S    
C36   C38   A    
C26   H12   S    
C49   C59   A    
C25   H11   S    
C14   F4    S    
C18   C26   A    
C39   C41   A    
C13   F3    S    
C15   C17   A    
C61   O18   A    
C52   C63   S    
C19   C27   A    
C9    C31   A    
C10   C32   A    
C37   F1    S    
C24   C26   A    
O6    V2    S    
C22   C24   A    
C48   C54   A    
C11   H9    S    
C13   C15   A    
C47   C49   A    
C2    O7    A    
C6    C30   A    
O20   V3    S    
C55   C57   A    
C35   H17   S    
C2    C45   S    
C33   C35   A    
C56   H24   S    
C46   C48   A    
C53   C55   A    
C12   H10   S    
C27   H5    S    
C40   H20   S    
O5    V1    S    
C23   O21   S    
C32   C61   S    
C5    H3    S    
C5    C29   A    
C42   C46   A    
C41   C43   A    
C16   C18   A    
O4    V2    S    
C9    H7    S    
O14   V4    S    
H14   C58   S    
C34   C44   A    
O6    C4    A    
H13   C57   S    
C47   C53   A    
O1    V2    S    
C5    C21   A    
O14   C62   A    
O2    V1    S    
C49   C51   A    
C33   C43   A    
C54   C56   A    
C57   C59   A    
C56   C58   A    
C17   C31   A    
C15   C19   A    
C20   C28   A    
O4    C2    A    
C18   C32   A    
C54   H22   S    
C50   C60   A    
O3    V1    S    
C45   C47   A    
O16   C64   A    
C28   H6    S    
C39   H19   S    
O15   C63   A    
C31   C62   S    
C6    H4    S    
O12   V3    S    
C58   C60   A    
O3    C1    A    
O22   H28   S    
H1    C29   S    
C9    C11   A    
C10   C12   A    
C8    C30   A    
C12   C14   A    
C6    C22   A    
C17   C25   A    
C1    O8    A    
C21   C23   A    
O8    V2    S    
O21   H27   S    
C14   C16   A    
C8    C28   A    
C36   H18   S    
C20   C22   A    
O19   V4    S    
C41   C45   A    
O7    V1    S    
C51   C64   S    
C60   H26   S    
C33   H15   S    
C59   H25   S    
C24   O22   S    
O13   C61   A    
O9    V2    S    
C42   C44   A    
O10   V1    S    
C62   O17   A    
H2    C30   S    
C38   C40   A    
