data_mof_unit_16683.cif
_audit_creation_date              2012-12-10T18:12:33-0500
_audit_creation_method            fapswitch 2.2
_symmetry_space_group_name_H-M    P1
_symmetry_Int_Tables_number       1
_space_group_crystal_system       triclinic
_cell_length_a                    12.667461
_cell_length_b                    13.130938
_cell_length_c                    15.714975
_cell_angle_alpha                 91.316848
_cell_angle_beta                  103.03952
_cell_angle_gamma                 82.015412
_cell_volume                      2521.77631776

loop_
_atom_site_label
_atom_site_type_symbol
_atom_type_description
_atom_site_fract_x
_atom_site_fract_y
_atom_site_fract_z
_atom_type_partial_charge
C1    C     C_R   0.438769 0.691104 0.486914 0.850773
C2    C     C_R   0.596467 0.199819 0.501248 -0.043582
C3    C     C_R   0.301167 0.839286 0.500368 -0.180895
C4    C     C_R   0.501404 0.500471 0.661821 0.902640
C5    C     C_R   0.273211 0.944367 0.508853 -0.150233
C6    C     C_R   0.346362 0.011104 0.500089 -0.194297
C7    C     C_R   0.447319 0.973451 0.478220 0.086449
C8    C     C_R   0.466982 0.869082 0.456251 0.091092
C9    C     C_R   0.529404 0.035843 0.477280 0.079991
C10   C     C_R   0.620503 0.998733 0.441220 0.173345
C11   C     C_R   0.629932 0.899516 0.408011 -0.244757
C12   C     C_3   0.501617 0.502925 0.917153 0.071181
C13   C     C_R   0.554137 0.835309 0.415357 -0.182769
C14   C     C_R   0.524099 0.133902 0.512689 -0.256457
C15   C     C_R   0.686639 0.163685 0.466019 -0.203149
C16   C     C_R   0.561046 0.308820 0.508636 0.849638
C17   C     C_R   0.399604 0.800892 0.477014 -0.113256
C18   C     C_R   0.093152 0.334881 0.389491 -0.311660
C19   C     C_R   0.800924 0.625928 0.607273 0.626214
C20   C     C_R   0.908914 0.644694 0.636583 -0.398504
C21   C     C_R   0.989672 0.593360 0.598646 -0.176508
C22   C     C_R   0.963342 0.525977 0.527938 0.039255
C23   C     C_3   0.445714 0.427888 0.014980 0.439281
C24   C     C_R   0.854709 0.502921 0.505321 0.125445
C25   C     C_R   0.041661 0.475620 0.483012 -0.019775
C26   C     C_R   0.014204 0.392273 0.427194 0.119913
C27   C     C_R   0.908062 0.367484 0.409245 -0.263323
C28   C     C_R   0.498444 0.499927 0.338120 0.871423
C29   C     C_R   0.828847 0.423981 0.445933 -0.182749
C30   C     C_R   0.146315 0.504765 0.490661 0.495192
C31   C     C_R   0.198299 0.361058 0.406575 -0.062676
C32   C     C_3   0.444818 0.594807 0.018833 -0.235940
C33   C     C_3   0.551362 0.580541 0.983890 -0.170467
C34   C     C_3   0.494594 0.503964 0.082213 0.122922
C35   C     C_1   0.504256 0.501753 0.751292 -0.176938
C36   C     C_1   0.494584 0.501100 0.248456 -0.172819
C37   C     C_3   0.395814 0.517016 0.950883 0.048114
C38   C     C_3   0.610238 0.311086 0.956671 -0.421193
C39   C     C_3   0.654327 0.240241 0.036588 -0.320138
C40   C     C_3   0.713308 0.138388 0.011896 -0.883996
C41   C     C_3   0.281395 0.531550 0.891083 -0.425742
C42   C     C_3   0.192183 0.547778 0.943446 -0.316272
C43   C     C_3   0.078576 0.563750 0.882798 -0.883906
C44   C     C_3   0.550924 0.413154 0.981016 0.044108
C45   C     C_3   0.601241 0.490067 0.049064 -0.234733
C46   C     C_1   0.504458 0.502579 0.826669 -0.067231
C47   C     C_1   0.493122 0.502549 0.172858 -0.009165
C48   C     C_R   0.699745 0.062377 0.437506 -0.196186
H1    H     H_    0.595073 0.643182 0.968962 0.154950
H2    H     H_    0.401496 0.668963 0.036333 0.148316
H3    H     H_    0.072334 0.603881 0.629510 0.208191
H4    H     H_    0.930980 0.696901 0.689976 0.152353
H5    H     H_    0.748665 0.402062 0.428871 0.204936
H6    H     H_    0.685136 0.479399 0.091186 0.149997
H7    H     H_    0.743287 0.214626 0.456481 0.146727
H8    H     H_    0.696904 0.870898 0.377629 0.150833
H9    H     H_    0.769022 0.035162 0.409348 0.136836
H10   H     H_    0.243602 0.588940 0.559833 0.366219
H11   H     H_    0.749156 0.723466 0.688797 0.306599
H12   H     H_    0.461119 0.162867 0.546654 0.147381
H13   H     H_    0.656302 0.097821 0.962956 0.263982
H14   H     H_    0.783708 0.151893 0.984433 0.263647
H15   H     H_    0.744395 0.088695 0.070926 0.250127
H16   H     H_    0.712513 0.278212 0.086780 0.217420
H17   H     H_    0.585819 0.224339 0.065443 0.254951
H18   H     H_    0.552246 0.273189 0.906294 0.197048
H19   H     H_    0.679069 0.327164 0.928272 0.212070
H20   H     H_    0.368669 0.313112 0.978300 0.322595
H21   H     H_    0.069101 0.632970 0.840978 0.257911
H22   H     H_    0.065441 0.495557 0.840559 0.266650
H23   H     H_    0.247492 0.787975 0.514855 0.192941
H24   H     H_    0.015409 0.574900 0.922234 0.253178
H25   H     H_    0.198652 0.479666 0.985923 0.255048
H26   H     H_    0.202580 0.616423 0.985639 0.220187
H27   H     H_    0.273997 0.599431 0.848106 0.210420
H28   H     H_    0.271568 0.462458 0.849382 0.198435
H29   H     H_    0.320589 0.091787 0.508548 0.134247
H30   H     H_    0.196648 0.973913 0.525994 0.147046
H31   H     H_    0.563745 0.759320 0.387635 0.164461
H32   H     H_    0.260861 0.315750 0.379631 0.162961
H33   H     H_    0.885704 0.304872 0.365709 0.147101
H34   H     H_    0.074042 0.269733 0.348089 0.159022
N1    N     N_R   0.222180 0.444680 0.455580 -0.140527
N2    N     N_R   0.776980 0.554790 0.543960 -0.144799
O1    O     O_R   0.366730 0.627160 0.478790 -0.611656
O2    O     O_3   0.718543 0.674524 0.644025 -0.728414
O3    O     O_3   0.390736 0.349159 0.034261 -0.787226
O4    O     O_R   0.544830 0.662520 0.507160 -0.558174
O5    O     O_R   0.410960 0.482330 0.609040 -0.651959
O6    O     O_R   0.589060 0.517690 0.637410 -0.551991
O7    O     O_R   0.455170 0.337480 0.492840 -0.619806
O8    O     O_R   0.633270 0.372840 0.521210 -0.639652
O9    O     O_R   0.410940 0.482310 0.362590 -0.595652
O10   O     O_R   0.589040 0.517670 0.390960 -0.645653
O11   O     O_3   0.168041 0.598577 0.524907 -0.810970
Zn1   Zn    Zn3+2 0.381080 0.476390 0.481050 0.947737
Zn2   Zn    Zn3+2 0.618920 0.523610 0.518950 0.976295

loop_
_geom_bond_atom_site_label_1
_geom_bond_atom_site_label_2
_ccdc_geom_bond_type
C13   H31   S    
C43   H24   S    
C27   C29   A    
C33   C45   S    
C41   C42   S    
C19   C20   A    
C18   C26   A    
H10   O11   S    
C19   O2    S    
C31   N1    A    
C7    C8    A    
C39   H16   S    
C26   C27   A    
C8    C13   A    
C40   H15   S    
N2    Zn2   S    
C5    C6    A    
O1    Zn1   S    
C33   H1    S    
C12   C37   S    
C40   H14   S    
C36   C47   T    
C28   O10   A    
C30   N1    A    
C24   C29   A    
O7    Zn1   S    
C38   H18   S    
C22   C25   A    
C2    C16   S    
C9    C10   A    
O6    Zn2   S    
O4    Zn2   S    
C1    O4    A    
C4    C35   S    
C43   H21   S    
C23   O3    S    
C21   C22   A    
C39   H17   S    
C15   C48   A    
O8    Zn2   S    
C4    O6    A    
C1    O1    A    
C42   H26   S    
C27   H33   S    
C31   H32   S    
C39   C40   S    
C6    H29   S    
O10   Zn2   S    
C25   C26   A    
C23   C37   S    
C40   H13   S    
C28   O9    A    
C15   H7    S    
C3    H23   S    
C9    C14   A    
C38   C44   S    
C30   O11   S    
C41   H27   S    
C23   C34   S    
C34   C45   S    
C32   C37   S    
C38   H19   S    
C2    C15   A    
C32   H2    S    
C12   C46   S    
C45   H6    S    
C16   O8    A    
O9    Zn1   S    
C10   C48   A    
C22   C24   A    
C42   C43   S    
C19   N2    A    
C21   H3    S    
C44   C45   S    
C4    O5    A    
C25   C30   A    
C7    C9    A    
C42   H25   S    
C3    C5    A    
C6    C7    A    
C34   C47   S    
C43   H22   S    
C14   H12   S    
C1    C17   S    
C8    C17   A    
C32   C33   S    
O5    Zn1   S    
C24   N2    A    
H11   O2    S    
C12   C44   S    
C41   H28   S    
C11   C13   A    
C38   C39   S    
C29   H5    S    
N1    Zn1   S    
C18   H34   S    
C3    C17   A    
C37   C41   S    
C2    C14   A    
C10   C11   A    
C23   C44   S    
C5    H30   S    
C48   H9    S    
C20   C21   A    
C28   C36   S    
C16   O7    A    
C20   H4    S    
H20   O3    S    
C18   C31   A    
C12   C33   S    
C35   C46   T    
C11   H8    S    
C32   C34   S    
