data_mof_unit_67416.cif
_audit_creation_date              2012-10-26T19:39:11-0400
_audit_creation_method            fapswitch 2.2
_symmetry_space_group_name_H-M    P1
_symmetry_Int_Tables_number       1
_space_group_crystal_system       triclinic
_cell_length_a                    12.065534
_cell_length_b                    12.544256
_cell_length_c                    7.54612
_cell_angle_alpha                 90.374483
_cell_angle_beta                  108.30194
_cell_angle_gamma                 89.86565
_cell_volume                      1084.33102669

loop_
_atom_site_label
_atom_site_type_symbol
_atom_type_description
_atom_site_fract_x
_atom_site_fract_y
_atom_site_fract_z
_atom_type_partial_charge
C1    C     C_R   0.345881 0.854595 0.453107 0.560207
C2    C     C_2   0.754287 0.788922 0.564690 0.014377
C3    C     C_2   0.751892 0.214633 0.568599 -0.019257
C4    C     C_2   0.248108 0.785366 0.431401 -0.019258
C5    C     C_2   0.745713 0.711078 0.435310 0.014378
C6    C     C_2   0.254286 0.288921 0.564690 0.014378
C7    C     C_2   0.251892 0.714634 0.568599 -0.019257
C8    C     C_2   0.748109 0.285366 0.431401 -0.019256
C9    C     C_2   0.632568 0.672417 0.302144 0.596284
C10   C     C_2   0.367432 0.327582 0.697856 0.596286
C11   C     C_2   0.360823 0.686899 0.721667 0.585055
C12   C     C_R   0.654119 0.145405 0.546893 0.560204
C13   C     C_2   0.639177 0.313101 0.278333 0.585058
C14   C     C_2   0.132568 0.172418 0.302144 0.596285
C15   C     C_2   0.867432 0.827583 0.697855 0.596284
C16   C     C_2   0.860824 0.186898 0.721667 0.585057
C17   C     C_2   0.139176 0.813102 0.278333 0.585054
C18   C     C_2   0.344527 0.027051 0.907946 0.493266
C19   C     C_2   0.655474 0.972949 0.092054 0.493265
C20   C     C_2   0.844527 0.527051 0.907946 0.493264
C21   C     C_2   0.155473 0.472949 0.092054 0.493264
C22   C     C_R   0.655071 0.855791 0.546254 0.568863
C23   C     C_R   0.344929 0.144208 0.453746 0.568861
C24   C     C_R   0.845881 0.354595 0.453107 0.560207
C25   C     C_R   0.154119 0.645405 0.546893 0.560206
C26   C     C_R   0.155071 0.355791 0.546254 0.568861
C27   C     C_R   0.844929 0.644208 0.453746 0.568863
C28   C     C_2   0.245713 0.211078 0.435310 0.014378
Cu1   Cu    Cu3+1 0.517640 0.000000 0.687200 1.119047
Cu2   Cu    Cu3+1 0.482360 0.000000 0.312800 1.119048
Cu3   Cu    Cu3+1 0.017640 0.500000 0.687200 1.119046
Cu4   Cu    Cu3+1 0.982360 0.500000 0.312800 1.119047
H1    H     H_    0.460169 0.645950 0.250937 0.372346
H2    H     H_    0.703519 0.027934 0.199231 0.090703
H3    H     H_    0.796481 0.472068 0.800766 0.090704
H4    H     H_    0.203519 0.527933 0.199232 0.090702
H5    H     H_    0.539830 0.354051 0.749063 0.372347
H6    H     H_    0.533866 0.656558 0.797327 0.396830
H7    H     H_    0.466136 0.343446 0.202676 0.396830
H8    H     H_    0.960169 0.145950 0.250936 0.372346
H9    H     H_    0.039830 0.854051 0.749062 0.372346
H10   H     H_    0.033866 0.156558 0.797325 0.396830
H11   H     H_    0.966135 0.843448 0.202676 0.396828
H12   H     H_    0.296481 0.972067 0.800768 0.090703
N1    N     N_2   0.455760 0.000000 0.031460 -0.183475
N2    N     N_2   0.544240 0.000000 0.968540 -0.183475
N3    N     N_2   0.955760 0.500000 0.031460 -0.183475
N4    N     N_2   0.044240 0.500000 0.968540 -0.183475
O1    O     O_R   0.398880 0.887420 0.621600 -0.542995
O2    O     O_R   0.630920 0.112580 0.694560 -0.460140
O3    O     O_R   0.630920 0.887420 0.694560 -0.420592
O4    O     O_R   0.369080 0.112580 0.305440 -0.420592
O5    O     O_R   0.869080 0.387420 0.305440 -0.460142
O6    O     O_R   0.130920 0.612580 0.694560 -0.460141
O7    O     O_R   0.130920 0.387420 0.694560 -0.420592
O8    O     O_R   0.869080 0.612580 0.305440 -0.420590
O9    O     O_2   0.630820 0.630741 0.154442 -0.441616
O10   O     O_R   0.529699 0.677986 0.349870 -0.645693
O11   O     O_2   0.369180 0.369254 0.845561 -0.441614
O12   O     O_R   0.601120 0.112580 0.378400 -0.542996
O13   O     O_R   0.470300 0.322016 0.650129 -0.645694
O14   O     O_2   0.357026 0.669883 0.878995 -0.475462
O15   O     O_R   0.466560 0.676855 0.683613 -0.634800
O16   O     O_2   0.642974 0.330113 0.121003 -0.475461
O17   O     O_R   0.533441 0.323148 0.316389 -0.634801
O18   O     O_2   0.130820 0.130743 0.154441 -0.441614
O19   O     O_R   0.029699 0.177985 0.349870 -0.645694
O20   O     O_2   0.869180 0.869258 0.845558 -0.441614
O21   O     O_R   0.970301 0.822015 0.650129 -0.645693
O22   O     O_2   0.857026 0.169881 0.878994 -0.475461
O23   O     O_R   0.601120 0.887420 0.378400 -0.526774
O24   O     O_R   0.966560 0.176855 0.683613 -0.634800
O25   O     O_2   0.142974 0.830119 0.121004 -0.475459
O26   O     O_R   0.033440 0.823147 0.316389 -0.634799
O27   O     O_2   0.299111 0.111510 0.926748 -0.446172
O28   O     O_2   0.700890 0.888490 0.073253 -0.446174
O29   O     O_2   0.799111 0.611510 0.926750 -0.446173
O30   O     O_2   0.200889 0.388489 0.073252 -0.446172
O31   O     O_R   0.398880 0.112580 0.621600 -0.526776
O32   O     O_R   0.898880 0.387420 0.621600 -0.542995
O33   O     O_R   0.101120 0.612580 0.378400 -0.542995
O34   O     O_R   0.101120 0.387420 0.378400 -0.526775
O35   O     O_R   0.898880 0.612580 0.621600 -0.526776
O36   O     O_R   0.369080 0.887420 0.305440 -0.460141

loop_
_geom_bond_atom_site_label_1
_geom_bond_atom_site_label_2
_ccdc_geom_bond_type
C17   O25   D    
C18   O27   D    
Cu4   O5    S    
Cu2   N1    S    
C16   O24   S    
C11   O14   D    
C26   O7    A    
Cu2   O23   S    
C19   N2    S    
Cu3   O32   S    
C21   H4    S    
Cu1   O1    S    
N1    N2    D    
C1    O36   A    
C7    C11   S    
Cu4   O33   S    
H1    O10   S    
C20   O29   D    
C19   O28   D    
C11   O15   S    
Cu3   O35   S    
C9    O10   S    
C3    C12   S    
C5    C27   S    
C20   H3    S    
C24   O32   A    
C6    C28   D    
Cu3   Cu4   S    
H8    O19   S    
Cu2   O12   S    
C21   O30   D    
C2    C22   S    
C14   O19   S    
C21   N4    S    
H11   O26   S    
C26   O34   A    
C25   O33   A    
H7    O17   S    
C4    C7    D    
Cu1   O2    S    
C15   O21   S    
C16   O22   D    
C25   O6    A    
C3    C8    D    
C27   O8    A    
C13   O17   S    
C24   O5    A    
C12   O12   A    
C5    C9    S    
Cu1   Cu2   S    
C18   H12   S    
H5    O13   S    
N3    N4    D    
Cu1   O31   S    
H10   O24   S    
C14   O18   D    
C23   C28   S    
C2    C15   S    
C4    C17   S    
Cu3   N4    S    
C17   O26   S    
Cu4   N3    S    
C2    C5    D    
C18   N1    S    
C22   O23   A    
H9    O21   S    
H6    O15   S    
Cu1   O3    S    
Cu2   O4    S    
C19   H2    S    
C6    C10   S    
C12   O2    A    
C23   O31   A    
Cu4   O34   S    
C7    C25   S    
Cu1   N2    S    
C1    C4    S    
C14   C28   S    
C27   O35   A    
C10   O11   D    
C23   O4    A    
C6    C26   S    
C13   O16   D    
C15   O20   D    
C8    C24   S    
C9    O9    D    
Cu3   O6    S    
Cu2   O36   S    
C20   N3    S    
C10   O13   S    
C8    C13   S    
Cu3   O7    S    
C1    O1    A    
Cu4   O8    S    
C3    C16   S    
C22   O3    A    
