data_mof_unit_60661.cif
_audit_creation_date              2012-12-10T16:59:19-0500
_audit_creation_method            fapswitch 2.2
_symmetry_space_group_name_H-M    P1
_symmetry_Int_Tables_number       1
_space_group_crystal_system       triclinic
_cell_length_a                    13.130394
_cell_length_b                    13.136357
_cell_length_c                    17.893594
_cell_angle_alpha                 110.18128
_cell_angle_beta                  72.720548
_cell_angle_gamma                 91.003947
_cell_volume                      2753.70092472

loop_
_atom_site_label
_atom_site_type_symbol
_atom_type_description
_atom_site_fract_x
_atom_site_fract_y
_atom_site_fract_z
_atom_type_partial_charge
Br1   Br    Br    0.270496 0.785443 0.153300 -0.365898
Br2   Br    Br    0.018741 0.677022 0.648149 -0.378879
Br3   Br    Br    0.665580 0.098026 0.505389 -0.364411
Br4   Br    Br    0.549433 0.639944 0.226422 -0.476783
Br5   Br    Br    0.714972 0.196649 0.849396 -0.347642
Br6   Br    Br    0.373793 0.902886 0.021005 -0.312926
Br7   Br    Br    0.379834 0.829548 0.826129 -0.329043
Br8   Br    Br    0.697753 0.405987 0.790156 -0.363400
C1    C     C_R   0.216594 0.543492 0.532208 0.807636
C2    C     C_R   0.607687 0.411218 0.899408 0.210769
C3    C     C_R   0.632066 0.331133 0.928699 0.234568
C4    C     C_R   0.782117 0.456192 0.468179 0.850081
C5    C     C_R   0.601595 0.352575 0.015478 -0.016400
C6    C     C_R   0.553259 0.457359 0.072224 0.016661
C7    C     C_R   0.622332 0.273712 0.047261 -0.075848
C8    C     C_R   0.601118 0.299996 0.132978 -0.222696
C9    C     C_R   0.552336 0.488501 0.156772 0.199593
C10   C     C_2   0.896387 0.442000 0.455117 -0.266457
C11   C     C_2   0.935571 0.487022 0.518560 -0.068550
C12   C     C_R   0.407847 0.718350 0.867710 0.228722
C13   C     C_2   0.099563 0.556303 0.551313 0.143907
C14   C     C_2   0.052084 0.483220 0.502158 -0.207039
C15   C     C_2   0.535190 0.895996 0.531663 -0.216929
C16   C     C_R   0.474037 0.216511 0.473788 0.882350
C17   C     C_2   0.522597 0.929702 0.472128 -0.198509
C18   C     C_2   0.469164 0.099672 0.460634 -0.366174
C19   C     C_2   0.538494 0.042630 0.477728 0.324555
C20   C     C_R   0.527696 0.782484 0.523856 0.866085
C21   C     C_R   0.551565 0.433636 0.276726 0.845274
C22   C     C_R   0.450850 0.568990 0.723854 0.862237
C23   C     C_R   0.476072 0.536218 0.844929 -0.207282
C24   C     C_R   0.441079 0.608482 0.814037 -0.164371
C25   C     C_R   0.570248 0.407691 0.187345 -0.058055
C26   C     C_R   0.397909 0.749268 0.953438 0.279004
C27   C     C_R   0.480754 0.570039 0.927002 0.046136
C28   C     C_R   0.423361 0.670825 0.984733 -0.059949
C29   C     C_R   0.532022 0.501783 0.954860 -0.025951
C30   C     C_R   0.507038 0.525746 0.042224 0.003716
C31   C     C_R   0.427389 0.610357 0.097181 -0.160653
C32   C     C_R   0.389136 0.685225 0.070632 0.315910
H1    H     H_    0.100907 0.418786 0.446180 0.180473
H2    H     H_    0.390126 0.616246 0.161253 0.201076
H3    H     H_    0.881518 0.530363 0.581030 0.207369
H4    H     H_    0.499373 0.874452 0.420037 0.182417
H5    H     H_    0.404668 0.059719 0.439001 0.161310
H6    H     H_    0.548779 0.952969 0.587673 0.190545
H7    H     H_    0.614412 0.237310 0.156534 0.169073
H8    H     H_    0.653469 0.191027 0.006798 0.204836
H9    H     H_    0.949878 0.406349 0.391332 0.157620
H10   H     H_    0.496567 0.451684 0.804855 0.214956
O1    O     O_3   0.500000 0.500000 0.500000 -0.525502
O2    O     O_R   0.474570 0.394560 0.317400 -0.636778
O3    O     O_R   0.403380 0.624270 0.695980 -0.599592
O4    O     O_R   0.609140 0.497770 0.314440 -0.598026
O5    O     O_R   0.512900 0.483390 0.672170 -0.623356
O6    O     O_R   0.526170 0.271940 0.521690 -0.589576
O7    O     O_R   0.451880 0.756290 0.574830 -0.613402
O8    O     O_R   0.271960 0.460780 0.472050 -0.656336
O9    O     O_R   0.749980 0.510990 0.431420 -0.631003
O10   O     O_R   0.262540 0.611050 0.579000 -0.590307
O11   O     O_R   0.715520 0.417170 0.517520 -0.596663
O12   O     O_R   0.426070 0.262540 0.438550 -0.634824
O13   O     O_R   0.595870 0.709230 0.464930 -0.603142
Zn1   Zn    Zn3+2 0.562560 0.419520 0.551940 1.052290
Zn2   Zn    Zn3+2 0.419550 0.406100 0.433160 1.003722
Zn3   Zn    Zn3+2 0.611810 0.553570 0.428930 1.041598
Zn4   Zn    Zn3+2 0.406080 0.620810 0.585960 1.067862

loop_
_geom_bond_atom_site_label_1
_geom_bond_atom_site_label_2
_ccdc_geom_bond_type
O11   Zn1   S    
O6    Zn1   S    
C29   C30   A    
O4    Zn3   S    
C5    C6    A    
C8    C25   A    
C6    C30   A    
Br7   C12   S    
C22   O5    A    
O8    Zn2   S    
C23   C24   A    
O12   Zn2   S    
C21   O2    A    
C1    O10   A    
C12   C26   A    
O5    Zn1   S    
Br1   C32   S    
Br2   C13   S    
Br3   C19   S    
O13   Zn3   S    
O10   Zn4   S    
C15   H6    S    
O1    Zn4   S    
C20   O7    A    
C22   C24   S    
C4    O11   A    
C3    C5    A    
C6    C9    A    
C1    C13   S    
C18   C19   D    
C9    C25   A    
C7    H8    S    
O7    Zn4   S    
C2    C29   A    
Br4   C9    S    
C8    H7    S    
C13   C14   D    
C27   C29   A    
C11   H3    S    
Br5   C3    S    
C31   H2    S    
C26   C28   A    
C5    C7    A    
O9    Zn3   S    
C12   C24   A    
C30   C31   A    
O3    Zn4   S    
C22   O3    A    
C23   C27   A    
C14   H1    S    
C16   O6    A    
C2    C3    A    
O1    Zn1   S    
C23   H10   S    
C7    C8    A    
C20   O13   A    
C21   C25   S    
C28   C32   A    
C11   C14   S    
C17   H4    S    
Br8   C2    S    
C1    O8    A    
O1    Zn2   S    
C21   O4    A    
C4    C10   S    
C31   C32   A    
C10   C11   D    
C16   O12   A    
C27   C28   A    
C18   H5    S    
C15   C17   D    
C15   C20   S    
C4    O9    A    
O1    Zn3   S    
O2    Zn2   S    
Br6   C26   S    
C10   H9    S    
C16   C18   S    
C17   C19   S    
