data_mof_unit_5618.cif
_audit_creation_date              2012-12-10T16:50:07-0500
_audit_creation_method            fapswitch 2.2
_symmetry_space_group_name_H-M    P1
_symmetry_Int_Tables_number       1
_space_group_crystal_system       triclinic
_cell_length_a                    23.524485
_cell_length_b                    8.752956
_cell_length_c                    7.414202
_cell_angle_alpha                 102.789483
_cell_angle_beta                  93.446895
_cell_angle_gamma                 92.641151
_cell_volume                      1483.31142971

loop_
_atom_site_label
_atom_site_type_symbol
_atom_type_description
_atom_site_fract_x
_atom_site_fract_y
_atom_site_fract_z
_atom_type_partial_charge
C1    C     C_R   0.497124 0.200396 0.454456 0.833813
C2    C     C_R   0.502877 0.799604 0.545544 0.833814
C3    C     C_R   0.238078 0.557042 0.367658 -0.095640
C4    C     C_R   0.761904 0.442614 0.632051 -0.095565
C5    C     C_R   0.297208 0.553819 0.369574 -0.194742
C6    C     C_R   0.702776 0.445875 0.630181 -0.194865
C7    C     C_R   0.328416 0.501700 0.510077 -0.082424
C8    C     C_R   0.671578 0.498309 0.489907 -0.082327
C9    C     C_R   0.298793 0.452172 0.650097 -0.057044
C10   C     C_R   0.701204 0.548142 0.350093 -0.057126
C11   C     C_R   0.239427 0.455924 0.646427 -0.129238
C12   C     C_R   0.760568 0.544358 0.353718 -0.129181
C13   C     C_R   0.209144 0.507725 0.505685 0.338738
C14   C     C_R   0.790845 0.492227 0.494221 0.338601
C15   C     C_2   0.488806 0.034620 0.434088 -0.259031
C16   C     C_2   0.511195 0.965380 0.565911 -0.259034
C17   C     C_R   0.390950 0.498862 0.503485 0.794456
C18   C     C_R   0.609048 0.501148 0.496515 0.794459
C19   C     C_R   0.882876 0.632655 0.555870 0.559851
C20   C     C_R   0.117116 0.367293 0.444023 0.559872
C21   C     C_R   0.877064 0.354503 0.442236 0.535377
C22   C     C_R   0.122927 0.645444 0.557657 0.535382
C23   C     C_R   0.937178 0.352423 0.440565 -0.057500
C24   C     C_R   0.062812 0.647527 0.559323 -0.057506
C25   C     C_R   0.969880 0.497424 0.499525 -0.022799
C26   C     C_R   0.030112 0.502524 0.500362 -0.022798
C27   C     C_R   0.942437 0.637797 0.557726 -0.014051
C28   C     C_R   0.057554 0.362151 0.442160 -0.014068
C29   C     C_R   0.965910 0.212563 0.381882 -0.051961
C30   C     C_R   0.034081 0.787386 0.617999 -0.051964
C31   C     C_R   0.025286 0.219258 0.383383 -0.198727
C32   C     C_R   0.974706 0.780690 0.616499 -0.198724
Cu1   Cu    Cu3+1 0.506340 0.517380 0.684380 1.005489
Cu2   Cu    Cu3+1 0.493660 0.482620 0.315620 1.005516
H1    H     H_    0.046386 0.111148 0.337999 0.188454
H2    H     H_    0.953605 0.888801 0.661878 0.188455
H3    H     H_    0.214642 0.596796 0.258178 0.149034
H4    H     H_    0.785334 0.402611 0.741354 0.149142
H5    H     H_    0.318622 0.592943 0.261006 0.180464
H6    H     H_    0.681355 0.406535 0.738603 0.180330
H7    H     H_    0.216302 0.416910 0.751906 0.149315
H8    H     H_    0.783696 0.583617 0.248405 0.149456
H9    H     H_    0.459932 0.368461 0.947384 0.246423
H10   H     H_    0.540072 0.631529 0.052615 0.246429
N1    N     N_R   0.851768 0.492933 0.498518 -0.470673
N2    N     N_R   0.148222 0.507015 0.501375 -0.470696
N3    N     N_2   0.484110 0.456420 0.038520 -0.200965
N4    N     N_2   0.515890 0.543580 0.961480 -0.201013
O1    O     O_R   0.504120 0.286130 0.619770 -0.588690
O2    O     O_R   0.495880 0.713870 0.380230 -0.588663
O3    O     O_R   0.493410 0.256770 0.308360 -0.570745
O4    O     O_R   0.506590 0.743230 0.691640 -0.570741
O5    O     O_R   0.423230 0.514630 0.655730 -0.580452
O6    O     O_R   0.576770 0.485370 0.344270 -0.580462
O7    O     O_R   0.412530 0.485280 0.344320 -0.565131
O8    O     O_R   0.587470 0.514720 0.655680 -0.565195
O9    O     O_2   0.856029 0.766316 0.611389 -0.507992
O10   O     O_2   0.143964 0.233633 0.388518 -0.507947
O11   O     O_2   0.843783 0.220595 0.387268 -0.505984
O12   O     O_2   0.156208 0.779352 0.612622 -0.505952
C33   C     C_1   0.936708 0.059261 0.317662 0.342861
N5    N     N_1   0.913584 0.936273 0.265916 -0.225585
C34   C     C_1   0.063283 0.940691 0.682204 0.342858
N6    N     N_1   0.086406 0.063682 0.733937 -0.225563
C35   C     C_1   0.326995 0.390086 0.794165 0.270634
N7    N     N_1   0.348833 0.339528 0.910340 -0.275587
C36   C     C_1   0.673005 0.610618 0.206335 0.270668
N8    N     N_1   0.651173 0.661497 0.090417 -0.275506
C37   C     C_1   0.450746 0.952708 0.276636 0.311740
N9    N     N_1   0.420484 0.888026 0.151389 -0.251747
C38   C     C_1   0.549255 0.047292 0.723361 0.311723
N10   N     N_1   0.579517 0.111973 0.848607 -0.251750

loop_
_geom_bond_atom_site_label_1
_geom_bond_atom_site_label_2
_ccdc_geom_bond_type
C12   H8    S    
C19   N1    A    
C11   H7    S    
C1    C15   S    
C17   O5    A    
C25   C27   A    
Cu1   O5    S    
C19   C27   A    
C17   O7    A    
C26   C28   A    
N3    N4    D    
C3    C13   A    
C18   O8    A    
C9    C35   S    
C7    C9    A    
Cu1   O8    S    
C23   C25   A    
Cu1   Cu2   S    
C25   C26   A    
C38   N10   T    
C29   C31   A    
C4    C14   A    
C10   C36   S    
C19   O9    S    
Cu1   O4    S    
C30   C32   A    
H10   N4    S    
C1    O3    A    
C10   C12   A    
C9    C11   A    
Cu2   O3    S    
C37   N9    T    
C16   C38   S    
C2    O4    A    
C11   C13   A    
C32   H2    S    
C22   C24   A    
C8    C10   A    
H9    N3    S    
C22   N2    A    
C12   C14   A    
Cu2   O6    S    
C14   N1    S    
C21   N1    A    
C5    H5    S    
C21   C23   A    
C22   O12   S    
C33   N5    T    
C15   C37   S    
C31   H1    S    
Cu2   O2    S    
C24   C30   A    
C29   C33   S    
C18   O6    A    
C20   O10   S    
C36   N8    T    
C21   O11   S    
C23   C29   A    
Cu2   O7    S    
C6    H6    S    
C2    C16   S    
C3    H3    S    
C24   C26   A    
C4    C6    A    
C35   N7    T    
C2    O2    A    
C5    C7    A    
Cu1   N4    S    
C13   N2    S    
C6    C8    A    
Cu2   N3    S    
C20   C28   A    
C3    C5    A    
C27   C32   A    
C30   C34   S    
Cu1   O1    S    
C28   C31   A    
C8    C18   S    
C15   C16   D    
C4    H4    S    
C34   N6    T    
C7    C17   S    
C20   N2    A    
C1    O1    A    
