data_mof_unit_67090.cif
_audit_creation_date              2013-03-05T15:58:17-0500
_audit_creation_method            fapswitch 2.2
_symmetry_space_group_name_H-M    P1
_symmetry_Int_Tables_number       1
_space_group_crystal_system       triclinic
_cell_length_a                    8.220731
_cell_length_b                    12.670476
_cell_length_c                    14.378994
_cell_angle_alpha                 93.356249
_cell_angle_beta                  90.875471
_cell_angle_gamma                 98.05538
_cell_volume                      1479.98499588

loop_
_atom_site_label
_atom_site_type_symbol
_atom_site_description
_atom_site_fract_x
_atom_site_fract_y
_atom_site_fract_z
_atom_type_partial_charge
P1    P     P_3+3 0.054400 0.427280 0.286870 0.447184
O1    O     O_2   0.887370 0.460630 0.272300 -0.371272
O2    O     O_3   0.129410 0.451380 0.388510 -0.402246
O3    O     O_3   0.670210 0.653170 0.329170 -0.370316
O4    O     O_2   0.767879 0.585735 0.164695 -0.393371
O5    O     O_3   0.019372 0.289040 0.262584 -0.593799
O6    O     O_3   0.723379 0.786788 0.179203 -0.519447
H1    H     H_    0.740632 0.899779 0.289108 0.132880
C1    C     C_3   0.601545 0.946876 0.173635 -1.092881
H2    H     H_    0.549178 0.009051 0.216902 0.268546
H3    H     H_    0.710974 0.984981 0.137496 0.262723
P2    P     P_3+3 0.668300 0.742890 0.573060 0.458832
P3    P     P_3+3 0.131121 0.843195 0.378277 0.443761
O7    O     O_2   0.845380 0.761330 0.544970 -0.394272
O8    O     O_3   0.088930 0.704860 0.376040 -0.386227
O9    O     O_2   0.002949 0.888166 0.440819 -0.377916
O10   O     O_3   0.681407 0.763672 0.694486 -0.552322
O11   O     O_3   0.091117 0.886552 0.267952 -0.529241
C2    C     C_3   0.140888 0.814569 0.199783 0.502089
H4    H     H_    0.061382 0.735845 0.199914 0.143629
H5    H     H_    0.271294 0.803919 0.211386 0.013021
C3    C     C_3   0.124467 0.858969 0.104486 -0.998556
H6    H     H_    0.994487 0.869599 0.090277 0.285904
H7    H     H_    0.203336 0.937772 0.102046 0.247844
C4    C     C_3   0.221061 0.766388 0.656161 0.364264
H8    H     H_    0.355983 0.785664 0.652594 0.093302
H9    H     H_    0.171402 0.724414 0.589832 0.131346
C5    C     C_3   0.148264 0.869301 0.668546 -0.924727
H10   H     H_    0.186339 0.910695 0.736692 0.252625
H11   H     H_    0.183067 0.921083 0.610645 0.258651
H12   H     H_    0.014493 0.850731 0.672188 0.268077
Ba1   Ba    Ba6+2 0.855630 0.555280 0.454520 1.537336
C6    C     C_3   0.967607 0.237448 0.342468 0.375634
H13   H     H_    0.844737 0.257039 0.360618 0.099513
H14   H     H_    0.055061 0.260407 0.402345 0.149576
C7    C     C_3   0.958036 0.117542 0.321128 -0.916205
H15   H     H_    0.876474 0.092188 0.259227 0.252347
H16   H     H_    0.908608 0.073508 0.381135 0.237075
H17   H     H_    0.082974 0.097308 0.306634 0.277990
C8    C     C_3   0.772932 0.690631 0.732134 0.437267
H18   H     H_    0.879296 0.678846 0.689740 0.125389
H19   H     H_    0.695690 0.611829 0.733703 0.054049
C9    C     C_3   0.834823 0.732748 0.830211 -1.043732
H20   H     H_    0.963083 0.773546 0.829112 0.292436
H21   H     H_    0.828985 0.666445 0.877834 0.220877
H22   H     H_    0.760848 0.793036 0.859067 0.288248
P4    P     P_3+3 0.135310 0.572810 0.713130 0.497127
O12   O     O_2   0.302330 0.539400 0.727760 -0.343004
O13   O     O_3   0.060300 0.548700 0.611500 -0.423160
O14   O     O_3   0.519500 0.346920 0.670840 -0.364065
O15   O     O_3   0.184515 0.710743 0.736007 -0.517309
P5    P     P_3+3 0.059551 0.155935 0.622986 0.436317
O16   O     O_3   0.614310 0.373510 0.452640 -0.398741
O17   O     O_3   0.100780 0.295230 0.623970 -0.386197
O18   O     O_2   0.190768 0.112142 0.561868 -0.381874
O19   O     O_3   0.100270 0.114605 0.734100 -0.586644
Ba2   Ba    Ba6+2 0.334200 0.444810 0.545490 1.539904
P6    P     P_3+3 0.649753 0.657507 0.209737 0.449938
C10   C     C_3   0.649901 0.861636 0.234855 0.481356
H23   H     H_    0.537896 0.827019 0.270868 0.026089
H24   H     H_    0.507892 0.909786 0.120386 0.263809
O20   O     O_3   0.575400 0.626570 0.547370 -0.387926
C11   C     C_3   0.485567 0.310536 0.259134 0.437663
H25   H     H_    0.577392 0.380108 0.282978 0.131419
C12   C     C_3   0.500216 0.294171 0.154056 -1.012751
H26   H     H_    0.414608 0.222977 0.127238 0.258859
H27   H     H_    0.470192 0.365512 0.119656 0.231467
H28   H     H_    0.627709 0.281520 0.136727 0.256306
P7    P     P_3+3 0.525806 0.241501 0.421755 0.413153
O21   O     O_2   0.344320 0.238700 0.455090 -0.366965
O22   O     O_3   0.514403 0.217158 0.300553 -0.586448
H29   H     H_    0.162877 0.802701 0.049619 0.246398
C13   C     C_3   0.073939 0.195118 0.801124 0.313182
H30   H     H_    0.160157 0.268999 0.792166 0.155534
H31   H     H_    0.946498 0.213665 0.794501 0.046860
C14   C     C_3   0.103402 0.157904 0.898733 0.052425
H32   H     H_    0.237103 0.174933 0.917516 0.149198
H33   H     H_    0.065155 0.069415 0.897789 0.106919
P8    P     P_3+3 0.543423 0.346682 0.792163 0.429584
C15   C     C_3   0.541310 0.145035 0.755671 0.193127
H34   H     H_    0.676758 0.158261 0.749302 0.052823
O23   O     O_2   0.409858 0.407454 0.835658 -0.414375
O24   O     O_3   0.489523 0.215767 0.824189 -0.571973
H35   H     H_    0.484366 0.156432 0.686989 0.124728
C16   C     C_3   0.481118 0.029644 0.779930 0.182266
H36   H     H_    0.437895 0.986014 0.713052 0.085290
H37   H     H_    0.375302 0.026262 0.827880 0.108710
C17   C     C_R   0.987764 0.449747 0.061947 -0.069552
C18   C     C_R   0.181073 0.499278 0.198602 0.276567
C19   C     C_R   0.336389 0.546955 0.230267 -0.481834
C20   C     C_R   0.436831 0.610371 0.173520 0.255195
C21   C     C_R   0.376609 0.636051 0.088981 -0.339503
C22   C     C_R   0.235814 0.574897 0.045867 -0.085284
C23   C     C_R   0.133776 0.505905 0.102357 -0.058685
H38   H     H_    0.380127 0.534285 0.299539 0.164450
C24   C     C_R   0.055165 0.515593 0.906640 -0.157212
C25   C     C_R   0.946224 0.455700 0.966911 0.049634
C26   C     C_R   0.012538 0.507455 0.807661 0.304643
C27   C     C_R   0.862655 0.449731 0.776415 -0.538964
C28   C     C_R   0.749181 0.404526 0.837927 0.248587
C29   C     C_R   0.792572 0.403576 0.932155 -0.205293
C30   C     C_R   0.197103 0.581063 0.948397 0.572558
H39   H     H_    0.445667 0.702886 0.058840 0.164159
H40   H     H_    0.705356 0.363089 0.978529 0.146260
H41   H     H_    0.829166 0.444972 0.703030 0.174232
H42   H     H_    0.904682 0.399882 0.103981 0.155174
C31   C     C_R   0.764147 0.177095 0.533753 -0.521853
C32   C     C_R   0.426607 0.813836 0.464620 -0.519726
C33   C     C_R   0.403976 0.994908 0.429476 -0.202519
C34   C     C_R   0.338635 0.887726 0.426336 0.206676
C35   C     C_R   0.574328 0.846898 0.514022 0.293068
C36   C     C_R   0.639187 0.957705 0.521920 -0.078044
C37   C     C_R   0.553750 0.031857 0.477260 -0.066931
C38   C     C_R   0.618758 0.141514 0.483496 0.268264
C39   C     C_R   0.852403 0.105385 0.574183 0.225492
C40   C     C_R   0.787609 0.997039 0.571150 -0.159437
H43   H     H_    0.333601 0.048295 0.395995 0.185849
H44   H     H_    0.855295 0.944978 0.606454 0.183812
H45   H     H_    0.813901 0.260994 0.536953 0.174352
H46   H     H_    0.375255 0.730238 0.460128 0.175667
H47   H     H_    0.359891 0.327460 0.275179 0.090276
O25   O     O_3   0.012702 0.212871 0.963644 -0.623896
C41   C     C_3   0.014125 0.165465 0.049587 -0.190891
H48   H     H_    0.141622 0.168243 0.077533 0.153228
H49   H     H_    0.950928 0.081568 0.044010 0.118349
H50   H     H_    0.945384 0.210964 0.099583 0.199910
O26   O     O_3   0.604117 0.974198 0.815567 -0.588527
C42   C     C_3   0.673481 0.024634 0.900798 -0.127205
H51   H     H_    0.584800 0.064037 0.945134 0.136540
H52   H     H_    0.779820 0.085486 0.884722 0.171586
H53   H     H_    0.719721 0.963026 0.942630 0.139367
O27   O     O_3   0.279345 0.661909 0.897267 -0.605760
C43   C     C_3   0.451375 0.658584 0.891569 -0.009329
H54   H     H_    0.496587 0.589474 0.924475 0.102120
H55   H     H_    0.516490 0.736328 0.920504 0.117579
H56   H     H_    0.488104 0.656913 0.818273 0.191950

loop_
_geom_bond_atom_site_label_1
_geom_bond_atom_site_label_2
_geom_bond_distance
_ccdc_geom_bond_type
C11   C12   1.521920 S    
C22   C23   1.423376 A    
C24   C30   1.434968 A    
O12   Ba2   2.848708 S    
C13   H30   1.107344 S    
C32   H46   1.081746 S    
C2    H4    1.113413 S    
C15   H35   1.112125 S    
O16   P7    1.756787 S    
C42   H51   1.125205 S    
C33   H43   1.078581 S    
C41   H48   1.111937 S    
P4    O13   1.573679 S    
C16   H36   1.108546 S    
C4    C5    1.511595 S    
P3    C34   1.831559 S    
P4    C26   1.868540 S    
O4    P6    1.545058 D    
C1    H24   1.112785 S    
C5    H10   1.103465 S    
C2    H5    1.110414 S    
C30   O27   1.398640 S    
O11   C2    1.404351 S    
H1    C10   1.111534 S    
C41   H49   1.113692 S    
C39   C40   1.399117 A    
C6    C7    1.523054 S    
C17   H42   1.080443 S    
O1    Ba1   2.848178 S    
P1    O1    1.507337 D    
C3    H29   1.111408 S    
C18   C23   1.442126 A    
P7    O22   1.750748 S    
C21   C22   1.412393 A    
C21   H39   1.069110 S    
C8    C9    1.531766 S    
C35   C36   1.427590 A    
C40   H44   1.065775 S    
O27   C43   1.424197 S    
C12   H27   1.110773 S    
C24   C26   1.454796 A    
P2    O10   1.749822 S    
C43   H56   1.100574 S    
Ba2   O21   2.860643 S    
P6    C20   1.826049 S    
O6    P6    1.748356 S    
C17   C25   1.412347 A    
P5    O18   1.543826 D    
C33   C37   1.407902 A    
C8    H19   1.107265 S    
C10   H23   1.111892 S    
P2    Ba1   3.399889 S    
C13   H31   1.109248 S    
P7    O21   1.570329 D    
Ba1   Ba2   4.555054 S    
O6    C10   1.411049 S    
C15   O24   1.404079 S    
C31   H45   1.082267 S    
C36   C37   1.424858 A    
C11   H47   1.109143 S    
P5    O17   1.749105 S    
C16   H37   1.115912 S    
C27   H41   1.082543 S    
C17   C23   1.405563 A    
P7    C38   1.832847 S    
O14   P8    1.752788 S    
P1    O5    1.748375 S    
P4    O12   1.507697 D    
P8    C28   1.842100 S    
Ba2   O20   2.819114 S    
C2    C3    1.522580 S    
C14   H32   1.115886 S    
O7    Ba1   2.860432 S    
C20   C21   1.379026 A    
O16   Ba2   2.904621 S    
C41   H50   1.106203 S    
P4    O15   1.748344 S    
C4    H8    1.104440 S    
C7    H17   1.112723 S    
P1    Ba1   3.393651 S    
C1    C10   1.523257 S    
O10   C8    1.398938 S    
C9    H20   1.108112 S    
C4    O15   1.396932 S    
C31   C38   1.392273 A    
C15   C16   1.538302 S    
P4    Ba2   3.394104 S    
P2    O20   1.582421 S    
C27   C28   1.383963 A    
C12   H28   1.112045 S    
C24   C25   1.428019 A    
C6    H13   1.104865 S    
C9    H21   1.110861 S    
C31   C39   1.386950 A    
O3    Ba1   2.796097 S    
O8    Ba1   2.800280 S    
P3    O11   1.750214 S    
C8    H18   1.095751 S    
P2    O7    1.506840 D    
C12   H26   1.109391 S    
C29   H40   1.083254 S    
C1    H3    1.111006 S    
C43   H54   1.123907 S    
C13   C14   1.532968 S    
C3    H7    1.114413 S    
C16   O26   1.415610 S    
O26   C42   1.421373 S    
C42   H53   1.116602 S    
O2    Ba2   2.807375 S    
Ba1   O16   2.819785 S    
C36   C40   1.414247 A    
C37   C38   1.414188 A    
C1    H2    1.113024 S    
P5    C39   1.846006 S    
C7    H15   1.110367 S    
P1    C18   1.853972 S    
O19   C13   1.403378 S    
O14   Ba2   2.795507 S    
C5    H12   1.094581 S    
C14   H33   1.120448 S    
C15   H34   1.108570 S    
C42   H52   1.118148 S    
C22   C30   1.441460 A    
P8    O23   1.546354 D    
C32   C35   1.396786 A    
C4    H9    1.107697 S    
O5    C6    1.397399 S    
C14   O25   1.415222 S    
P3    O8    1.736725 S    
O25   C41   1.405871 S    
Ba1   O20   2.905402 S    
C5    H11   1.106398 S    
C33   C34   1.386533 A    
P8    O24   1.746304 S    
C19   C20   1.380083 A    
O13   Ba2   2.907455 S    
C7    H16   1.106538 S    
C28   C29   1.396968 A    
C6    H14   1.111707 S    
C32   C34   1.393020 A    
P2    C35   1.857524 S    
O2    Ba1   2.906692 S    
C9    H22   1.107369 S    
Ba1   O13   2.806811 S    
C11   H25   1.111146 S    
C26   C27   1.395360 A    
P3    O9    1.542989 D    
O3    P6    1.727803 S    
C43   H55   1.107879 S    
C3    H6    1.112897 S    
P1    O2    1.573800 S    
C18   C19   1.391526 A    
C11   O22   1.402679 S    
C19   H38   1.082197 S    
C25   C29   1.410562 A    
P5    O19   1.752050 S    
O17   Ba2   2.800868 S    
