data_mof_unit_24636.cif
_audit_creation_date              2012-12-11T16:26:26-0500
_audit_creation_method            fapswitch 2.2
_symmetry_space_group_name_H-M    P1
_symmetry_Int_Tables_number       1
_space_group_crystal_system       triclinic
_cell_length_a                    6.938236
_cell_length_b                    17.420887
_cell_length_c                    19.654875
_cell_angle_alpha                 108.704313
_cell_angle_beta                  89.806478
_cell_angle_gamma                 90.281953
_cell_volume                      2250.18854933

loop_
_atom_site_label
_atom_site_type_symbol
_atom_type_description
_atom_site_fract_x
_atom_site_fract_y
_atom_site_fract_z
_atom_type_partial_charge
O1    O     O_R   0.494330 0.415720 0.413720 -0.542472
O2    O     O_R   0.819330 0.430070 0.560210 -0.551504
O3    O     O_R   0.994320 0.584280 0.586280 -0.536273
C1    C     C_R   0.650581 0.414275 0.580909 0.703279
O4    O     O_R   0.823730 0.406300 0.412670 -0.530768
O5    O     O_R   0.998760 0.560340 0.437690 -0.531025
C2    C     C_R   0.654489 0.382877 0.385595 0.708449
O6    O     O_R   0.489890 0.439660 0.562310 -0.541745
O7    O     O_3   0.662340 0.550560 0.508380 -0.366538
V1    V     V_3+5 0.935370 0.490620 0.498450 1.443810
O8    O     O_R   0.328750 0.569930 0.439790 -0.546115
C3    C     C_R   0.160906 0.584366 0.417769 0.711937
O9    O     O_R   0.324340 0.593700 0.587330 -0.539693
C4    C     C_R   0.155410 0.616376 0.615082 0.692353
V2    V     V_3+5 0.435940 0.509380 0.501550 1.430127
O10   O     O_3   0.159100 0.449440 0.491620 -0.370825
H1    H     H_    0.343019 0.871916 0.577800 0.149988
C5    C     C_R   0.032428 0.590693 0.747186 -0.144184
C6    C     C_R   0.971415 0.576241 0.809605 -0.120735
C7    C     C_R   0.958992 0.639814 0.873846 -0.116654
C8    C     C_R   0.007563 0.718333 0.876186 -0.137088
C9    C     C_R   0.068628 0.735097 0.813604 0.067921
C10   C     C_R   0.081194 0.669899 0.747647 0.069990
C11   C     C_R   0.121202 0.814837 0.816309 -0.184046
C12   C     C_R   0.186829 0.829177 0.752963 0.074988
C13   C     C_R   0.196160 0.764255 0.686776 0.069267
C14   C     C_R   0.144879 0.684440 0.684125 -0.182695
C15   C     C_R   0.240179 0.908029 0.753787 -0.148018
C16   C     C_R   0.296994 0.922865 0.691153 -0.131770
C17   C     C_R   0.301965 0.859865 0.626435 -0.099498
C18   C     C_R   0.253042 0.781371 0.623938 -0.132936
H2    H     H_    0.042241 0.538918 0.698890 0.104565
H3    H     H_    0.934688 0.515251 0.808158 0.114904
H4    H     H_    0.912684 0.628189 0.922304 0.107972
H5    H     H_    0.998210 0.765407 0.927704 0.093212
H6    H     H_    0.236845 0.959338 0.802512 0.120585
H7    H     H_    0.335608 0.983739 0.692790 0.120504
H8    H     H_    0.258244 0.734670 0.572094 0.097633
C19   C     C_R   0.064930 0.600297 0.298907 -0.090131
C20   C     C_R   0.154767 0.631646 0.366678 -0.120181
C21   C     C_R   0.245723 0.707697 0.385228 -0.211696
C22   C     C_R   0.241509 0.755239 0.338972 0.057325
C23   C     C_R   0.141808 0.725816 0.272827 0.041926
C24   C     C_R   0.054233 0.647950 0.252382 0.062415
C25   C     C_R   0.334231 0.831669 0.357046 -0.037977
C26   C     C_R   0.318975 0.879260 0.311877 -0.199586
C27   C     C_R   0.218514 0.851574 0.246379 0.056705
C28   C     C_R   0.132383 0.773730 0.226315 0.045484
C29   C     C_R   0.035567 0.743827 0.159847 0.111475
C30   C     C_R   0.949937 0.666898 0.140153 -0.184876
C31   C     C_R   0.959077 0.619604 0.185534 -0.186291
C32   C     C_R   0.203605 0.899500 0.200170 -0.076566
C33   C     C_R   0.112493 0.867875 0.132628 -0.127074
C34   C     C_R   0.026962 0.790764 0.113598 -0.231984
H9    H     H_    0.317943 0.729923 0.436670 0.122537
H10   H     H_    0.390169 0.937820 0.327767 0.134070
H11   H     H_    0.954739 0.767009 0.062197 0.112390
H12   H     H_    0.875367 0.643052 0.089287 0.121614
H13   H     H_    0.889720 0.560726 0.167885 0.140434
C35   C     C_R   0.459500 0.185195 0.863689 -0.159837
C36   C     C_R   0.615106 0.132349 0.865784 -0.135206
C37   C     C_R   0.768390 0.122533 0.815956 0.162295
C38   C     C_R   0.775888 0.169644 0.769016 0.042160
C39   C     C_R   0.623741 0.223510 0.769128 0.009842
C40   C     C_R   0.464286 0.230532 0.815565 0.047267
C41   C     C_R   0.931871 0.163701 0.721278 -0.176302
C42   C     C_R   0.938694 0.210799 0.675715 -0.176149
C43   C     C_R   0.788849 0.264139 0.675575 0.090243
C44   C     C_R   0.629635 0.269990 0.721693 0.074186
C45   C     C_R   0.476033 0.322334 0.720228 0.093744
C46   C     C_R   0.318439 0.328441 0.765856 -0.192828
C47   C     C_R   0.312384 0.283473 0.812888 -0.167485
C48   C     C_R   0.795304 0.311591 0.629878 -0.234413
C49   C     C_R   0.642178 0.363700 0.628428 -0.081237
C50   C     C_R   0.482258 0.368110 0.673302 -0.216156
H14   H     H_    0.051514 0.123399 0.719025 0.129858
H15   H     H_    0.061836 0.205390 0.640429 0.134315
H16   H     H_    0.918700 0.307264 0.594853 0.128810
H17   H     H_    0.364015 0.408423 0.672758 0.124044
H18   H     H_    0.199138 0.368194 0.765266 0.127547
H19   H     H_    0.186477 0.290742 0.846974 0.143841
H20   H     H_    0.844257 0.128840 0.422651 0.130095
C51   C     C_R   0.518753 0.408477 0.256239 -0.098879
C52   C     C_R   0.477233 0.426201 0.193903 -0.135408
C53   C     C_R   0.505719 0.368038 0.127644 -0.139768
C54   C     C_R   0.566669 0.289924 0.122903 0.203786
C55   C     C_R   0.588788 0.267467 0.185992 0.077012
C56   C     C_R   0.580593 0.330147 0.253675 0.042198
C57   C     C_R   0.627037 0.186121 0.183565 -0.153319
C58   C     C_R   0.685553 0.170853 0.247370 0.034332
C59   C     C_R   0.695761 0.235475 0.313601 0.071707
C60   C     C_R   0.642174 0.314928 0.316821 -0.145379
C61   C     C_R   0.734359 0.091624 0.246629 -0.128976
C62   C     C_R   0.789778 0.076138 0.309530 0.265102
C63   C     C_R   0.801000 0.140078 0.373802 -0.102707
C64   C     C_R   0.754033 0.218481 0.376151 -0.192036
H21   H     H_    0.506033 0.457833 0.306071 0.120519
H22   H     H_    0.431547 0.486580 0.196984 0.125572
H23   H     H_    0.485336 0.384201 0.079337 0.119623
H24   H     H_    0.726928 0.040712 0.197626 0.095220
H25   H     H_    0.761620 0.265306 0.427891 0.108965
O11   O     O_R   0.775200 0.060470 0.937800 -0.499848
O12   O     O_R   0.441110 0.093720 0.087350 -0.529226
O13   O     O_R   0.266330 0.939630 0.062280 -0.541148
C65   C     C_R   0.610704 0.116862 0.115128 0.785012
O14   O     O_R   0.445750 0.069950 0.939820 -0.550248
O15   O     O_R   0.271000 0.915700 0.913700 -0.544276
C66   C     C_R   0.613029 0.083924 0.916900 0.782481
O16   O     O_R   0.770530 0.084400 0.086380 -0.535897
O17   O     O_3   0.602830 0.949510 0.991680 -0.383595
V3    V     V_3+5 0.329710 0.009370 0.001550 1.484302
O18   O     O_R   0.940990 0.906170 0.912570 -0.537832
C67   C     C_R   0.110098 0.883122 0.885167 0.699224
O19   O     O_R   0.936350 0.929940 0.060100 -0.551297
C68   C     C_R   0.104463 0.915217 0.081795 0.696879
V4    V     V_3+5 0.829160 0.990450 0.998310 1.481352
O20   O     O_3   0.105910 0.050480 0.008320 -0.349015
C69   C     C_1   0.453357 0.862169 0.420254 0.282174
N1    N     N_1   0.550499 0.886799 0.470357 -0.372449
C70   C     C_1   0.263557 0.983710 0.224318 0.299678
N2    N     N_1   0.307799 0.051356 0.243834 -0.363403
C71   C     C_1   0.292774 0.194032 0.910538 0.268532
N3    N     N_1   0.159579 0.201577 0.947751 -0.340906
N4    N     N_3   0.908857 0.060564 0.810437 -0.659390
H26   H     H_    0.045588 0.086928 0.819963 0.230103
H27   H     H_    0.904698 0.019329 0.758357 0.225546
N5    N     N_3   0.621621 0.236526 0.054086 -0.680812
H28   H     H_    0.501966 0.229776 0.021143 0.226355
H29   H     H_    0.730664 0.264421 0.033447 0.237374
N6    N     N_3   0.835441 0.995653 0.309001 -0.659382
H30   H     H_    0.736853 0.979829 0.342621 0.229424
H31   H     H_    0.815046 0.954123 0.257668 0.223458
C72   C     C_1   0.999941 0.516756 0.275163 0.267216
N7    N     N_1   0.951087 0.449662 0.256000 -0.353496

loop_
_geom_bond_atom_site_label_1
_geom_bond_atom_site_label_2
_ccdc_geom_bond_type
C25   C69   S    
C55   C56   A    
C61   C62   A    
C48   C49   A    
O2    C1    A    
C63   C64   A    
C42   H15   S    
C1    O6    A    
C37   N4    S    
O19   C68   A    
C53   C54   A    
C32   C33   A    
C12   C15   A    
C13   C14   A    
C37   C38   A    
C15   C16   A    
O5    C3    A    
C17   C18   A    
C16   H7    S    
V2    O10   S    
V4    O20   S    
O12   V3    S    
C5    C6    A    
C21   C22   A    
C36   C66   S    
O17   V3    S    
O18   C67   A    
O16   V4    S    
C59   C64   A    
C69   N1    T    
O8    V2    S    
O15   C67   A    
C27   C28   A    
C43   C44   A    
C48   H16   S    
O11   C66   A    
C45   C46   A    
O1    V2    S    
C10   C14   A    
C4    C14   S    
C23   C28   A    
C1    C49   S    
C47   H19   S    
C7    H4    S    
C36   C37   A    
C41   C42   A    
C38   C41   A    
C11   C67   S    
C8    C9    A    
H1    C17   S    
C62   C63   A    
C46   H18   S    
C33   C68   S    
O14   V3    S    
C49   C50   A    
C42   C43   A    
C30   H12   S    
C56   C60   A    
C64   H25   S    
C11   C12   A    
C6    H3    S    
C59   C60   A    
O4    C2    A    
C54   C55   A    
C43   C48   A    
C33   C34   A    
C5    C10   A    
C35   C36   A    
C22   C25   A    
C3    C20   S    
N6    H31   S    
C23   C24   A    
N5    H29   S    
C16   C17   A    
C53   H23   S    
O13   C68   A    
C51   C52   A    
C41   H14   S    
C30   C31   A    
O12   C65   A    
C62   N6    S    
C39   C44   A    
C52   C53   A    
C35   C71   S    
C61   H24   S    
C27   C32   A    
O3    C4    A    
C32   C70   S    
C24   C31   A    
C20   C21   A    
C35   C40   A    
O6    V2    S    
O9    V2    S    
C72   N7    T    
C9    C11   A    
C31   H13   S    
C22   C23   A    
C26   H10   S    
N5    H28   S    
O2    V1    S    
O17   V4    S    
O18   V4    S    
C70   N2    T    
C58   C61   A    
N4    H27   S    
O7    V1    S    
C65   O16   A    
C26   C27   A    
C28   C29   A    
H20   C63   S    
C54   N5    S    
O1    C2    A    
O15   V3    S    
O5    V1    S    
O13   V3    S    
O19   V4    S    
O8    C3    A    
C19   C24   A    
C8    H5    S    
C40   C47   A    
C19   C72   S    
C18   H8    S    
V3    O20   S    
C52   H22   S    
C39   C40   A    
C6    C7    A    
C55   C57   A    
N6    H30   S    
C12   C13   A    
O4    V1    S    
O3    V1    S    
V1    O10   S    
C58   C59   A    
O14   C66   A    
C21   H9    S    
C2    C60   S    
C51   C56   A    
O7    V2    S    
C44   C45   A    
O11   V4    S    
C38   C39   A    
C19   C20   A    
C25   C26   A    
C13   C18   A    
C5    H2    S    
C7    C8    A    
C15   H6    S    
C29   C30   A    
C51   H21   S    
C57   C65   S    
C45   C50   A    
C71   N3    T    
C9    C10   A    
C46   C47   A    
C57   C58   A    
O9    C4    A    
C50   H17   S    
C29   C34   A    
N4    H26   S    
C34   H11   S    
