data_mof_unit_15098.cif
_audit_creation_date              2012-12-11T17:34:18-0500
_audit_creation_method            fapswitch 2.2
_symmetry_space_group_name_H-M    P1
_symmetry_Int_Tables_number       1
_space_group_crystal_system       triclinic
_cell_length_a                    23.815037
_cell_length_b                    7.255415
_cell_length_c                    20.632366
_cell_angle_alpha                 90.327313
_cell_angle_beta                  105.436971
_cell_angle_gamma                 89.760228
_cell_volume                      3436.34320478

loop_
_atom_site_label
_atom_site_type_symbol
_atom_type_description
_atom_site_fract_x
_atom_site_fract_y
_atom_site_fract_z
_atom_type_partial_charge
O1    O     O_R   0.449110 0.494310 0.552140 -0.531699
O2    O     O_R   0.550890 0.994310 0.447860 -0.533004
O3    O     O_R   0.440010 0.824420 0.415850 -0.518558
O4    O     O_R   0.559990 0.324420 0.584150 -0.532653
C1    C     C_R   0.425773 0.656008 0.390719 0.745060
C2    C     C_R   0.574070 0.156503 0.609371 0.769549
O5    O     O_R   0.442260 0.824040 0.549660 -0.541468
O6    O     O_R   0.557740 0.324040 0.450340 -0.548267
O7    O     O_R   0.553160 0.993960 0.582620 -0.540070
O8    O     O_R   0.446840 0.493960 0.417380 -0.539434
C3    C     C_R   0.429149 0.656294 0.568071 0.668210
C4    C     C_R   0.570687 0.155240 0.431729 0.683336
O9    O     O_3   0.536380 0.660670 0.510660 -0.384604
O10   O     O_3   0.463620 0.160670 0.489340 -0.372339
V1    V     V_3+5 0.493250 0.935680 0.498020 1.432118
V2    V     V_3+5 0.506750 0.435680 0.501980 1.400002
C5    C     C_R   0.812300 0.918466 0.157973 0.343468
C6    C     C_R   0.186523 0.405624 0.839741 0.361642
C7    C     C_R   0.858854 0.901455 0.127761 0.345338
C8    C     C_R   0.140986 0.393519 0.871820 0.391125
C9    C     C_R   0.884087 0.060557 0.107554 -0.272884
C10   C     C_R   0.113695 0.553985 0.889167 -0.293146
C11   C     C_R   0.867102 0.233027 0.127604 -0.300182
C12   C     C_R   0.125445 0.721312 0.862421 -0.289517
C13   C     C_R   0.829166 0.246770 0.169250 0.440067
C14   C     C_R   0.161831 0.730987 0.819376 0.494974
C15   C     C_R   0.799199 0.090271 0.181668 -0.176192
C16   C     C_R   0.196613 0.578905 0.812056 -0.195986
C17   C     C_1   0.757553 0.103636 0.221883 0.089647
C18   C     C_1   0.239303 0.605779 0.773850 0.044751
C19   C     C_1   0.724155 0.113889 0.257028 -0.063581
C20   C     C_1   0.273193 0.623248 0.739617 -0.096194
C21   C     C_R   0.665163 0.963584 0.323659 -0.145568
C22   C     C_R   0.333691 0.471255 0.674786 -0.145399
H1    H     H_    0.677876 0.829787 0.308623 0.112459
H2    H     H_    0.321096 0.338173 0.689812 0.093897
C23   C     C_R   0.628521 0.973385 0.366679 -0.152629
C24   C     C_R   0.371038 0.478570 0.632668 -0.153661
C25   C     C_R   0.611175 0.145160 0.387436 -0.035386
C26   C     C_R   0.388142 0.649081 0.611699 -0.064348
C27   C     C_R   0.631762 0.306680 0.363773 -0.180638
C28   C     C_R   0.366679 0.812018 0.634358 -0.168614
C29   C     C_R   0.668480 0.296394 0.320762 -0.141237
C30   C     C_R   0.329277 0.804207 0.676619 -0.133546
C31   C     C_R   0.685304 0.124858 0.300425 0.118602
C32   C     C_R   0.312691 0.633728 0.697101 0.124393
C33   C     C_R   0.638171 0.208690 0.797424 0.431451
C34   C     C_R   0.360613 0.727051 0.203165 0.448765
C35   C     C_R   0.616220 0.154250 0.676654 -0.189036
C36   C     C_R   0.384510 0.651957 0.322840 -0.190234
C37   C     C_R   0.897436 0.016361 0.767745 0.428629
C38   C     C_R   0.103290 0.512644 0.232031 0.430967
C39   C     C_R   0.858424 0.032408 0.704360 -0.197234
C40   C     C_R   0.142489 0.526231 0.295478 -0.199355
C41   C     C_R   0.799836 0.068001 0.697463 -0.192700
C42   C     C_R   0.200931 0.563559 0.302503 -0.190147
C43   C     C_R   0.777391 0.082874 0.754146 0.069211
C44   C     C_R   0.223035 0.583629 0.245835 0.072715
C45   C     C_R   0.817310 0.071161 0.819502 -0.152353
C46   C     C_R   0.182853 0.574831 0.180551 -0.153726
C47   C     C_R   0.716529 0.112382 0.747264 -0.026844
C48   C     C_R   0.283785 0.615161 0.252611 -0.025751
C49   C     C_R   0.697388 0.156676 0.805292 -0.188510
C50   C     C_R   0.302153 0.667383 0.195086 -0.194616
C51   C     C_R   0.737139 0.140807 0.869888 0.422558
C52   C     C_R   0.262272 0.651410 0.130428 0.424278
C53   C     C_R   0.794433 0.077578 0.876137 0.333007
C54   C     C_R   0.205472 0.584892 0.123912 0.332791
C55   C     C_R   0.674111 0.100655 0.684100 -0.269075
C56   C     C_R   0.326558 0.600063 0.315261 -0.253765
C57   C     C_R   0.599477 0.222065 0.732402 0.328587
C58   C     C_R   0.401467 0.719730 0.267083 0.362171
C59   C     C_R   0.878619 0.048675 0.825941 -0.162540
C60   C     C_R   0.121683 0.549480 0.174048 -0.169270
O11   O     O_R   0.053190 0.709680 0.082610 -0.540854
O12   O     O_R   0.946810 0.209680 0.917390 -0.543912
O13   O     O_R   0.057740 0.380240 0.950340 -0.522552
O14   O     O_R   0.942260 0.880240 0.049660 -0.517460
C61   C     C_R   0.071042 0.547730 0.931741 0.807234
C62   C     C_R   0.928489 0.049241 0.067538 0.805602
O15   O     O_R   0.060000 0.379940 0.084150 -0.542420
O16   O     O_R   0.940000 0.879940 0.915850 -0.544050
O17   O     O_R   0.949110 0.210100 0.052140 -0.537242
O18   O     O_R   0.050890 0.710100 0.947860 -0.537312
C63   C     C_R   0.075977 0.547825 0.108291 0.828380
C64   C     C_R   0.924135 0.047524 0.891692 0.812412
O19   O     O_3   0.963630 0.543720 0.989330 -0.383452
O20   O     O_3   0.036370 0.043720 0.010670 -0.385509
V3    V     V_3+5 0.006750 0.268680 0.001980 1.442666
V4    V     V_3+5 0.993250 0.768680 0.998020 1.447089
O21   O     O_3   0.783495 0.763822 0.170602 -0.514774
C65   C     C_3   0.740444 0.717704 0.111342 -0.091558
H3    H     H_    0.760180 0.679470 0.069879 0.139965
H4    H     H_    0.708464 0.832006 0.095390 0.065965
H5    H     H_    0.716152 0.596011 0.121602 0.165814
O22   O     O_3   0.221388 0.248020 0.844055 -0.511538
C66   C     C_3   0.243529 0.215918 0.788084 -0.094462
H6    H     H_    0.286203 0.284984 0.795569 0.109093
H7    H     H_    0.211903 0.252872 0.739626 0.097996
H8    H     H_    0.253443 0.067158 0.785702 0.186298
O23   O     O_3   0.722512 0.209021 0.926319 -0.517578
C67   C     C_3   0.711816 0.064321 0.966866 -0.116630
H9    H     H_    0.681503 0.115679 0.995458 0.139448
H10   H     H_    0.752550 0.024580 0.004635 0.149224
H11   H     H_    0.690892 0.942159 0.937374 0.086283
O24   O     O_3   0.277067 0.712990 0.073563 -0.514422
C68   C     C_3   0.291871 0.563338 0.037218 -0.090691
H12   H     H_    0.320917 0.614523 0.007329 0.141154
H13   H     H_    0.252591 0.509330 0.000298 0.166800
H14   H     H_    0.315663 0.451201 0.070171 0.088229
O25   O     O_3   0.618623 0.254132 0.853050 -0.526598
C69   C     C_3   0.579427 0.117908 0.862811 -0.186388
H15   H     H_    0.575838 0.129161 0.915191 0.141886
H16   H     H_    0.594530 0.975237 0.855958 0.095146
H17   H     H_    0.535177 0.140790 0.829150 0.174952
O26   O     O_3   0.375663 0.811356 0.149905 -0.514194
C70   C     C_3   0.419195 0.709290 0.130354 -0.136822
H18   H     H_    0.412987 0.727703 0.075599 0.139055
H19   H     H_    0.417662 0.558340 0.139663 0.083505
H20   H     H_    0.462867 0.765441 0.155182 0.164366
H21   H     H_    0.684834 0.051413 0.639435 0.126949
H22   H     H_    0.316042 0.549419 0.359636 0.127587
O27   O     O_3   0.955216 0.977175 0.772753 -0.584304
C71   C     C_3   0.960774 0.786285 0.762446 -0.319333
H23   H     H_    0.939462 0.746811 0.709457 0.147688
H24   H     H_    0.942957 0.703024 0.797578 0.148871
H25   H     H_    0.007667 0.751920 0.772569 0.150270
O28   O     O_3   0.045567 0.473424 0.226756 -0.583183
C72   C     C_3   0.040176 0.282965 0.237164 -0.312767
H26   H     H_    0.061924 0.244367 0.289998 0.145180
H27   H     H_    0.057665 0.198499 0.201664 0.149302
H28   H     H_    0.993269 0.249450 0.227655 0.147993
H29   H     H_    0.773240 0.085552 0.646735 0.124572
H30   H     H_    0.227640 0.578632 0.353336 0.124017
H31   H     H_    0.873907 0.017733 0.659763 0.129653
H32   H     H_    0.127262 0.508509 0.340051 0.128641
O29   O     O_3   0.826350 0.011369 0.937545 -0.566560
C73   C     C_3   0.818943 0.817421 0.936794 -0.239548
H33   H     H_    0.838836 0.749172 0.899892 0.148003
H34   H     H_    0.772337 0.777082 0.925215 0.107468
H35   H     H_    0.840444 0.761950 0.987136 0.201166
O30   O     O_3   0.174260 0.516159 0.062398 -0.567852
C74   C     C_3   0.182110 0.322136 0.063801 -0.216911
H36   H     H_    0.162404 0.255704 0.100876 0.140136
H37   H     H_    0.228854 0.282161 0.075534 0.121793
H38   H     H_    0.160667 0.264245 0.013727 0.214122
O31   O     O_3   0.881152 0.728369 0.122160 -0.542614
C75   C     C_3   0.929407 0.703047 0.178489 -0.099887
H39   H     H_    0.966676 0.791693 0.175795 0.110208
H40   H     H_    0.943937 0.558678 0.178947 0.181654
H41   H     H_    0.918189 0.729227 0.226791 0.106006
O32   O     O_3   0.122395 0.220791 0.884204 -0.534252
C76   C     C_3   0.069338 0.183437 0.835425 -0.100967
H42   H     H_    0.040262 0.305372 0.820056 0.073099
H43   H     H_    0.044315 0.084638 0.857323 0.176295
H44   H     H_    0.078085 0.122342 0.789863 0.163395
H45   H     H_    0.885002 0.357519 0.113169 0.211652
H46   H     H_    0.104036 0.844422 0.872280 0.201746
O33   O     O_3   0.820602 0.415543 0.196128 -0.506995
C77   C     C_3   0.856151 0.424853 0.262823 -0.159810
H47   H     H_    0.902895 0.401273 0.265238 0.097919
H48   H     H_    0.841940 0.325330 0.295980 0.108473
H49   H     H_    0.852160 0.564794 0.283082 0.169184
O34   O     O_3   0.164884 0.894819 0.786987 -0.521283
C78   C     C_3   0.129207 0.881370 0.720447 -0.298347
H50   H     H_    0.083472 0.846501 0.719208 0.128712
H51   H     H_    0.146609 0.779070 0.690432 0.139414
H52   H     H_    0.128464 0.017199 0.695849 0.155103
H53   H     H_    0.613787 0.845821 0.383534 0.119039
H54   H     H_    0.386555 0.350042 0.616739 0.136817
H55   H     H_    0.619384 0.441463 0.378168 0.115446
H56   H     H_    0.378880 0.945962 0.619729 0.129750
H57   H     H_    0.683789 0.422513 0.303422 0.115464
H58   H     H_    0.313264 0.931181 0.693207 0.097451
O35   O     O_3   0.543207 0.287045 0.723678 -0.562641
C79   C     C_3   0.544697 0.481077 0.728967 -0.204144
H59   H     H_    0.499308 0.533093 0.717959 0.152323
H60   H     H_    0.565186 0.544066 0.691821 0.132956
H61   H     H_    0.567569 0.527341 0.780664 0.159728
O36   O     O_3   0.456324 0.795594 0.275112 -0.542080
C80   C     C_3   0.499299 0.655235 0.287642 -0.265561
H62   H     H_    0.483419 0.521021 0.263023 0.115811
H63   H     H_    0.517646 0.635626 0.342470 0.149143
H64   H     H_    0.535754 0.700285 0.267448 0.152889

loop_
_geom_bond_atom_site_label_1
_geom_bond_atom_site_label_2
_ccdc_geom_bond_type
C44   C48   A    
C74   H38   S    
C52   C54   A    
C49   C51   A    
C78   H50   S    
C15   C17   S    
C21   C31   A    
O25   C69   S    
O1    C3    A    
C75   H41   S    
C51   O23   S    
O2    C4    A    
O28   C72   S    
C2    O7    A    
C69   H16   S    
C66   H6    S    
C38   O28   S    
O27   C71   S    
C25   C27   A    
C80   H62   S    
O14   V4    S    
O5    C3    A    
C27   H55   S    
O13   V3    S    
O23   C67   S    
C28   C30   A    
O34   C78   S    
C7    C9    A    
C30   H58   S    
C10   C61   S    
O13   C61   A    
C38   C60   A    
C70   H19   S    
C33   C49   A    
C61   O18   A    
C21   H1    S    
C12   H46   S    
C43   C45   A    
O24   C68   S    
C44   C46   A    
C74   H36   S    
C6    O22   S    
O26   C70   S    
C48   C56   A    
C67   H11   S    
C14   O34   S    
C47   C49   A    
C36   C58   A    
C48   C50   A    
O11   V4    S    
C45   C53   A    
C41   H29   S    
O11   C63   A    
C79   H61   S    
O31   C75   S    
C30   C32   A    
C51   C53   A    
C5    O21   S    
C13   O33   S    
C68   H12   S    
C54   O30   S    
C22   C32   A    
C42   C44   A    
C76   H43   S    
C45   C59   A    
C6    C8    A    
O12   V3    S    
C34   O26   S    
C72   H28   S    
O15   V3    S    
C80   H63   S    
C78   H51   S    
C35   C55   A    
C17   C19   T    
C68   H13   S    
C28   H56   S    
C3    C26   S    
O18   V4    S    
C34   C58   A    
C62   O17   A    
C53   O29   S    
C69   H15   S    
C66   H7    S    
C38   C40   A    
C24   H54   S    
C39   C41   A    
C79   H60   S    
O17   V3    S    
C40   C42   A    
C5    C15   A    
C77   H49   S    
C6    C16   A    
C75   H39   S    
O4    C2    A    
C70   H20   S    
O21   C65   S    
O5    V1    S    
O16   C64   A    
C65   H5    S    
C7    O31   S    
C8    O32   S    
C37   C39   A    
C77   H48   S    
O4    V2    S    
C18   C20   T    
C56   H22   S    
O33   C77   S    
C55   H21   S    
O6    C4    A    
C40   H32   S    
O22   C66   S    
C37   O27   S    
C65   H4    S    
O14   C62   A    
O1    V2    S    
O32   C76   S    
C76   H44   S    
C67   H10   S    
O2    V1    S    
C29   C31   A    
C33   C57   A    
C73   H34   S    
C71   H25   S    
C79   H59   S    
C8    C10   A    
C78   H52   S    
C41   C43   A    
C35   C57   A    
C68   H14   S    
C10   C12   A    
C39   H31   S    
O19   V4    S    
C58   O36   S    
O12   C64   A    
C66   H8    S    
O3    V1    S    
O36   C80   S    
C71   H24   S    
C72   H26   S    
C80   H64   S    
C47   C55   A    
C74   H37   S    
C22   C24   A    
C20   C32   S    
C27   C29   A    
C37   C59   A    
C75   H40   S    
C26   C28   A    
O3    C1    A    
C73   H35   S    
C42   H30   S    
C43   C47   A    
C13   C15   A    
O29   C73   S    
C14   C16   A    
O16   V4    S    
C77   H47   S    
C4    C25   S    
C9    C11   A    
C36   C56   A    
C16   C18   S    
C23   C25   A    
O35   C79   S    
O8    V2    S    
C70   H18   S    
C23   H53   S    
C24   C26   A    
C29   H57   S    
C12   C14   A    
C52   O24   S    
C33   O25   S    
C11   H45   S    
C9    C62   S    
C46   C60   A    
C65   H3    S    
C5    C7    A    
C57   O35   S    
C22   H2    S    
C11   C13   A    
C60   C63   S    
O7    V1    S    
C67   H9    S    
C1    C36   S    
C21   C23   A    
C59   C64   S    
C34   C50   A    
C73   H33   S    
C1    O8    A    
O20   V3    S    
C46   C54   A    
O6    V2    S    
C19   C31   S    
O9    V2    S    
O30   C74   S    
O10   V1    S    
C76   H42   S    
C69   H17   S    
O15   C63   A    
C2    C35   S    
C50   C52   A    
C71   H23   S    
C72   H27   S    
