data_mof_unit_30596.cif
_audit_creation_date              2012-12-10T21:29:44-0500
_audit_creation_method            fapswitch 2.2
_symmetry_space_group_name_H-M    P1
_symmetry_Int_Tables_number       1
_space_group_crystal_system       triclinic
_cell_length_a                    10.778603
_cell_length_b                    16.108617
_cell_length_c                    16.896455
_cell_angle_alpha                 86.698698
_cell_angle_beta                  90.663631
_cell_angle_gamma                 89.097497
_cell_volume                      2928.24322037

loop_
_atom_site_label
_atom_site_type_symbol
_atom_type_description
_atom_site_fract_x
_atom_site_fract_y
_atom_site_fract_z
_atom_type_partial_charge
C1    C     C_R   0.497686 0.488273 0.653221 1.042189
C2    C     C_R   0.474326 0.527676 0.095881 0.084289
C3    C     C_R   0.533643 0.403981 0.866452 0.412463
C4    C     C_R   0.500989 0.599832 0.134775 0.331353
C5    C     C_R   0.508352 0.404244 0.785130 0.386955
C6    C     C_R   0.503523 0.597334 0.218173 0.291388
C7    C     C_R   0.461473 0.770367 0.452486 0.581320
C8    C     C_R   0.550932 0.235052 0.545335 0.579508
C9    C     C_R   0.470041 0.856269 0.457080 -0.348640
C10   C     C_R   0.549745 0.147622 0.543508 -0.480855
C11   C     C_R   0.531047 0.890078 0.521459 0.205808
C12   C     C_R   0.496433 0.512001 0.347000 1.013497
C13   C     C_R   0.480434 0.109868 0.484671 0.275932
C14   C     C_R   0.586906 0.834808 0.579319 0.363485
C15   C     C_R   0.412663 0.161188 0.428912 0.358887
C16   C     C_R   0.739960 0.497381 0.500691 1.055455
C17   C     C_R   0.259261 0.503067 0.501678 0.884271
C18   C     C_R   0.578090 0.747874 0.571764 -0.243313
C19   C     C_R   0.416249 0.248436 0.433107 -0.232533
C20   C     C_R   0.877294 0.400720 0.625069 0.441409
C21   C     C_R   0.098684 0.646103 0.434647 0.362887
C22   C     C_R   0.943005 0.340664 0.672786 0.300828
C23   C     C_R   0.500719 0.481331 0.740074 -0.287695
C24   C     C_R   0.041967 0.685163 0.367182 0.333222
C25   C     C_R   0.072511 0.346083 0.677506 0.358732
C26   C     C_R   0.930794 0.654212 0.337760 0.271324
C27   C     C_R   0.132799 0.406297 0.629730 0.298937
C28   C     C_R   0.877414 0.583491 0.376373 0.294202
C29   C     C_R   0.067699 0.452469 0.567282 -0.163750
C30   C     C_R   0.934901 0.546483 0.446261 -0.094125
C31   C     C_R   0.938014 0.447024 0.563191 -0.222951
C32   C     C_R   0.055670 0.567828 0.465201 -0.221176
C33   C     C_R   0.126622 0.510479 0.514482 -0.027077
C34   C     C_R   0.486219 0.520497 0.260672 -0.209281
C35   C     C_R   0.873063 0.492548 0.500774 -0.029573
C36   C     C_3   0.791398 0.756404 0.301529 -0.224472
C37   C     C_3   0.137573 0.338836 0.806457 -0.197319
C38   C     C_3   0.789919 0.491080 0.707060 -0.328141
C39   C     C_3   0.128915 0.717332 0.545820 -0.196924
C40   C     C_3   0.893985 0.207245 0.709843 -0.240030
C41   C     C_3   0.157934 0.740583 0.267085 -0.127236
C42   C     C_3   0.496689 0.316931 0.113424 -0.197291
C43   C     C_3   0.675499 0.659832 0.872691 -0.304372
C44   C     C_3   0.662074 0.301826 0.917505 -0.247976
C45   C     C_R   0.512481 0.555865 0.778317 -0.442681
C46   C     C_3   0.654750 0.679110 0.082520 -0.243891
C47   C     C_R   0.455552 0.449680 0.220651 -0.432117
C48   C     C_R   0.539343 0.555435 0.858485 0.495007
C49   C     C_R   0.450477 0.452299 0.138397 0.468712
C50   C     C_R   0.541385 0.479309 0.903594 0.001319
H1    H     H_    0.603177 0.109998 0.587227 0.193561
H2    H     H_    0.041807 0.343222 0.829844 0.162597
H3    H     H_    0.178775 0.401744 0.800156 0.162352
H4    H     H_    0.194451 0.301494 0.851032 0.205600
H5    H     H_    0.681942 0.820086 0.677598 0.321981
H6    H     H_    0.302834 0.169129 0.336706 0.331455
H7    H     H_    0.735005 0.547884 0.689031 0.171974
H8    H     H_    0.888561 0.511002 0.711403 0.115207
H9    H     H_    0.761802 0.468221 0.767271 0.181434
H10   H     H_    0.115387 0.663702 0.589108 0.141204
H11   H     H_    0.039390 0.751401 0.533504 0.149248
H12   H     H_    0.426543 0.896015 0.410509 0.223910
H13   H     H_    0.192997 0.760631 0.573681 0.180554
H14   H     H_    0.987420 0.182953 0.728432 0.210219
H15   H     H_    0.877321 0.197557 0.645815 0.144697
H16   H     H_    0.824985 0.169977 0.743994 0.179575
H17   H     H_    0.095433 0.723367 0.218079 0.166575
H18   H     H_    0.228855 0.690417 0.280080 0.153843
H19   H     H_    0.207861 0.797298 0.246311 0.197538
H20   H     H_    0.250115 0.488140 0.654691 0.296920
H21   H     H_    0.752192 0.574300 0.292938 0.376358
H22   H     H_    0.594920 0.336217 0.106005 0.148134
H23   H     H_    0.621266 0.704907 0.615740 0.154144
H24   H     H_    0.478307 0.269525 0.069871 0.215512
H25   H     H_    0.482928 0.286674 0.173340 0.141006
H26   H     H_    0.750288 0.614290 0.891829 0.137088
H27   H     H_    0.691865 0.717755 0.903347 0.196711
H28   H     H_    0.681237 0.675885 0.807927 0.145113
H29   H     H_    0.720349 0.346509 0.948652 0.133279
H30   H     H_    0.701094 0.290783 0.858208 0.221894
H31   H     H_    0.665843 0.241792 0.953127 0.178126
H32   H     H_    0.693437 0.627310 0.049071 0.174094
H33   H     H_    0.702737 0.680649 0.141052 0.181371
H34   H     H_    0.364901 0.288786 0.390571 0.151653
H35   H     H_    0.674729 0.738336 0.048718 0.188930
H36   H     H_    0.422081 0.333598 0.715598 0.400641
H37   H     H_    0.519627 0.717805 0.221841 0.368295
H38   H     H_    0.653591 0.230964 0.640478 0.339270
H39   H     H_    0.372873 0.685135 0.402901 0.399110
H40   H     H_    0.433451 0.392154 0.253343 0.202495
H41   H     H_    0.506099 0.615701 0.745704 0.218486
H42   H     H_    0.843856 0.804837 0.331527 0.186735
H43   H     H_    0.720972 0.728566 0.342369 0.203390
H44   H     H_    0.740953 0.787677 0.250262 0.184198
N1    N     N_2   0.543550 0.476883 0.986824 -0.111525
N2    N     N_2   0.475005 0.531599 0.012912 -0.040671
N3    N     N_R   0.515300 0.716920 0.509720 -0.158982
N4    N     N_R   0.484700 0.283080 0.490280 -0.111790
N5    N     N_2   0.537577 0.978234 0.529733 -0.110355
N6    N     N_2   0.476321 0.021528 0.478646 -0.117600
O1    O     O_R   0.494530 0.422540 0.612660 -0.501109
O2    O     O_3   0.139797 0.298626 0.734409 -0.568215
O3    O     O_3   0.648673 0.866835 0.642432 -0.746418
O4    O     O_3   0.344374 0.124766 0.371032 -0.743319
O5    O     O_3   0.765532 0.428828 0.652834 -0.543942
O6    O     O_3   0.183237 0.691630 0.475518 -0.553330
O7    O     O_3   0.878585 0.291328 0.727426 -0.578633
O8    O     O_3   0.089726 0.758529 0.334962 -0.551448
O9    O     O_3   0.249653 0.426658 0.653373 -0.760485
O10   O     O_3   0.773187 0.547486 0.345661 -0.767096
O11   O     O_3   0.412397 0.384135 0.098358 -0.571801
O12   O     O_R   0.505470 0.577460 0.387340 -0.570648
O13   O     O_3   0.557414 0.629766 0.893829 -0.542294
O14   O     O_3   0.537430 0.329492 0.911273 -0.556134
O15   O     O_3   0.525043 0.672627 0.090582 -0.575966
O16   O     O_3   0.493833 0.328500 0.752597 -0.671628
O17   O     O_3   0.524711 0.667892 0.258820 -0.735406
O18   O     O_3   0.618911 0.273759 0.601589 -0.671172
O19   O     O_3   0.396961 0.742590 0.389085 -0.711520
O20   O     O_R   0.504350 0.561840 0.618900 -0.667386
O21   O     O_R   0.495650 0.438160 0.381100 -0.649416
O22   O     O_R   0.678310 0.430340 0.496890 -0.568043
O23   O     O_R   0.321690 0.569660 0.503110 -0.611942
O24   O     O_R   0.688140 0.569650 0.503130 -0.631114
O25   O     O_R   0.311860 0.430350 0.496870 -0.594391
O26   O     O_3   0.872020 0.695208 0.273301 -0.620514
Zn1   Zn    Zn3+2 0.493440 0.406980 0.495830 1.049010
Zn2   Zn    Zn3+2 0.506560 0.593020 0.504170 0.978842

loop_
_geom_bond_atom_site_label_1
_geom_bond_atom_site_label_2
_ccdc_geom_bond_type
C39   O6    S    
C23   C45   A    
C41   O8    S    
C29   C33   A    
C27   C29   A    
C14   C18   A    
C4    O15   S    
N1    N2    D    
C14   O3    S    
C8    O18   S    
C47   C49   A    
C43   H28   S    
C15   C19   A    
C42   H25   S    
C30   C35   A    
H36   O16   S    
C2    C49   A    
C24   C26   A    
H37   O17   S    
C16   C35   S    
C37   O2    S    
C11   C14   A    
C25   O2    S    
C22   O7    S    
H21   O10   S    
H5    O3    S    
C11   N5    S    
C26   O26   S    
O22   Zn1   S    
C16   O22   A    
C8    N4    A    
C38   H8    S    
C36   H43   S    
C3    C50   A    
C12   O21   A    
H39   O19   S    
C22   C25   A    
C24   O8    S    
C18   N3    A    
C15   O4    S    
C6    O17   S    
C21   O6    S    
O24   Zn2   S    
C46   H35   S    
C37   H3    S    
C38   H9    S    
C36   H42   S    
C48   C50   A    
C44   O14   S    
C46   H32   S    
C17   C33   S    
N3    Zn2   S    
C45   H41   S    
C10   H1    S    
C19   N4    A    
C17   O23   A    
C41   H18   S    
C39   H11   S    
C21   C32   A    
C42   H24   S    
C9    H12   S    
C7    O19   S    
C44   H30   S    
H6    O4    S    
C41   H17   S    
C44   H31   S    
C37   H2    S    
C28   O10   S    
C10   C13   A    
C6    C34   A    
C1    O20   A    
C2    C4    A    
C42   O11   S    
H20   O9    S    
C38   H7    S    
N5    N6    D    
C5    C23   A    
C42   H22   S    
C9    C11   A    
C40   O7    S    
C37   H4    S    
C46   O15   S    
C4    C6    A    
N4    Zn1   S    
C20   C22   A    
C1    C23   S    
C18   H23   S    
C40   H15   S    
C13   C15   A    
C5    O16   S    
C47   H40   S    
C31   C35   A    
C43   H27   S    
C12   C34   S    
C19   H34   S    
C1    O1    A    
C12   O12   A    
C41   H19   S    
C20   O5    S    
C45   C48   A    
C43   H26   S    
C7    C9    A    
C7    N3    A    
C44   H29   S    
C36   O26   S    
C3    C5    A    
C3    O14   S    
O20   Zn2   S    
O21   Zn1   S    
C25   C27   A    
C39   H13   S    
C26   C28   A    
C40   H14   S    
C49   O11   S    
C32   C33   A    
C13   N6    S    
C2    N2    S    
C16   O24   A    
C29   C31   A    
C43   O13   S    
C30   C32   A    
C17   O25   A    
O23   Zn2   S    
C38   O5    S    
C39   H10   S    
C28   C30   A    
O1    Zn1   S    
C50   N1    S    
O12   Zn2   S    
C46   H33   S    
C36   H44   S    
C27   O9    S    
C8    C10   A    
C21   C24   A    
O25   Zn1   S    
C40   H16   S    
C34   C47   A    
H38   O18   S    
C48   O13   S    
C20   C31   A    
