data_mof_unit_8565.cif
_audit_creation_date              2013-03-05T15:45:30-0500
_audit_creation_method            fapswitch 2.2
_symmetry_space_group_name_H-M    P1
_symmetry_Int_Tables_number       1
_space_group_crystal_system       triclinic
_cell_length_a                    11.044106
_cell_length_b                    11.077194
_cell_length_c                    18.807095
_cell_angle_alpha                 90.373239
_cell_angle_beta                  89.709534
_cell_angle_gamma                 60.757856
_cell_volume                      2007.47525448

loop_
_atom_site_label
_atom_site_type_symbol
_atom_site_description
_atom_site_fract_x
_atom_site_fract_y
_atom_site_fract_z
_atom_type_partial_charge
O1    O     O_R   0.507430 0.255570 0.581420 -0.430094
O2    O     O_R   0.280190 0.527390 0.578910 -0.470065
C1    C     C_R   0.240533 0.645736 0.610521 0.618571
O3    O     O_R   0.260310 0.739740 0.584580 -0.505487
O4    O     O_R   0.532250 0.695150 0.573830 -0.483256
C2    C     C_R   0.653738 0.618731 0.601633 0.620599
O5    O     O_R   0.744930 0.503430 0.576380 -0.463588
O6    O     O_R   0.699250 0.276390 0.571950 -0.465494
C3    C     C_R   0.630825 0.219713 0.599654 0.628914
O7    O     O_R   0.499020 0.256400 0.419850 -0.415922
O8    O     O_R   0.272400 0.528160 0.429140 -0.473625
C4    C     C_R   0.213357 0.653611 0.404563 0.595166
O9    O     O_R   0.251910 0.740570 0.423020 -0.468497
O10   O     O_R   0.524460 0.695920 0.424060 -0.440465
C5    C     C_R   0.639796 0.617322 0.390016 0.608373
O11   O     O_R   0.736530 0.504260 0.414810 -0.492733
O12   O     O_R   0.691460 0.277160 0.422180 -0.526574
C6    C     C_R   0.619390 0.224704 0.396818 0.591704
Cr1   Cr    Cr6+3 0.392930 0.397900 0.502230 1.180267
Cr2   Cr    Cr6+3 0.398240 0.708600 0.501260 1.165801
Cr3   Cr    Cr6+3 0.708800 0.393470 0.496460 1.132272
O13   O     O_3   0.499990 0.499990 0.499980 -0.298506
C7    C     C_3   0.672980 0.822514 0.765409 -0.286500
H1    H     H_    0.748030 0.861140 0.771151 0.148336
H2    H     H_    0.573077 0.903265 0.788490 0.168198
C8    C     C_3   0.649861 0.796367 0.686082 0.043011
H3    H     H_    0.537961 0.860764 0.675446 0.171793
H4    H     H_    0.933292 0.620622 0.773429 0.110079
C9    C     C_3   0.860833 0.578541 0.772394 -0.192300
C10   C     C_3   0.611087 0.645119 0.808310 -0.000870
C11   C     C_3   0.724953 0.688381 0.808771 -0.032062
H5    H     H_    0.513936 0.735342 0.829251 0.144204
C12   C     C_3   0.682203 0.643612 0.676018 0.005148
C13   C     C_3   0.840873 0.547134 0.694930 0.278267
C14   C     C_3   0.581611 0.622112 0.729442 0.092930
H6    H     H_    0.477345 0.709356 0.719607 0.057326
H7    H     H_    0.906556 0.481174 0.802960 0.168603
C15   C     C_R   0.795464 0.122403 0.700766 -0.017227
H8    H     H_    0.877199 0.122496 0.668735 0.203047
C16   C     C_R   0.810100 0.108481 0.775256 0.086819
C17   C     C_R   0.696409 0.126291 0.816552 0.017854
C18   C     C_R   0.572580 0.150765 0.782514 0.165567
C19   C     C_R   0.571031 0.130796 0.708673 0.147817
C20   C     C_R   0.672284 0.144955 0.667867 0.042981
C21   C     C_R   0.214867 0.547158 0.723942 0.060145
C22   C     C_R   0.186014 0.556658 0.796951 0.113142
C23   C     C_R   0.175624 0.671881 0.834669 0.038095
C24   C     C_R   0.193360 0.772868 0.799471 -0.138895
H9    H     H_    0.192105 0.857786 0.828950 0.167425
C25   C     C_R   0.198465 0.775565 0.726144 0.068820
C26   C     C_R   0.206360 0.661344 0.686872 0.122966
C27   C     C_R   0.724214 0.521674 0.268393 0.101578
C28   C     C_R   0.712132 0.533905 0.194460 0.122761
C29   C     C_R   0.640507 0.666709 0.164574 -0.022445
C30   C     C_R   0.552719 0.782096 0.208039 0.148223
C31   C     C_R   0.562648 0.770910 0.282815 0.144072
C32   C     C_R   0.649330 0.640021 0.313227 -0.014845
C33   C     C_R   0.575512 0.270567 0.270734 0.171186
C34   C     C_R   0.595919 0.232571 0.199733 0.164711
C35   C     C_R   0.682434 0.092085 0.182792 0.003185
C36   C     C_R   0.748833 0.993501 0.236004 -0.151095
H10   H     H_    0.809868 0.884947 0.221721 0.081841
C37   C     C_R   0.731334 0.034108 0.307565 0.072039
C38   C     C_R   0.647565 0.174155 0.324125 0.029724
C39   C     C_R   0.103451 0.810681 0.303901 0.050380
C40   C     C_R   0.101466 0.809370 0.230753 -0.138158
H11   H     H_    0.092410 0.899947 0.204230 0.188874
C41   C     C_R   0.107372 0.697040 0.192802 -0.014283
C42   C     C_R   0.101483 0.590364 0.230578 0.235119
C43   C     C_R   0.093709 0.597112 0.305733 0.082643
C44   C     C_R   0.123730 0.692382 0.340982 0.042922
O14   O     O_R   0.089490 0.825610 0.930610 -0.506233
O15   O     O_R   0.818370 0.054540 0.929880 -0.492318
C45   C     C_R   0.706493 0.091777 0.893176 0.571144
O16   O     O_R   0.605870 0.077310 0.915530 -0.441244
O17   O     O_R   0.646440 0.806700 0.917570 -0.491511
C46   C     C_R   0.754408 0.709295 0.883382 0.539761
O18   O     O_R   0.837200 0.593290 0.915250 -0.507147
O19   O     O_R   0.065330 0.635370 0.931590 -0.501831
C47   C     C_R   0.116882 0.707028 0.905935 0.570306
O20   O     O_R   0.068300 0.828790 0.091860 -0.512401
O21   O     O_R   0.798730 0.057480 0.079370 -0.514891
C48   C     C_R   0.700344 0.044369 0.110691 0.551440
O22   O     O_R   0.584680 0.080480 0.076790 -0.406275
O23   O     O_R   0.626790 0.809640 0.067050 -0.469108
C49   C     C_R   0.692700 0.689277 0.096130 0.539216
O24   O     O_R   0.816010 0.596460 0.076500 -0.463958
O25   O     O_R   0.045680 0.638310 0.081070 -0.446602
C50   C     C_R   0.082341 0.715776 0.115965 0.564627
Cr4   Cr    Cr6+3 0.937620 0.938540 0.007640 1.067279
Cr5   Cr    Cr6+3 0.625150 0.937450 0.994520 1.153661
Cr6   Cr    Cr6+3 0.937990 0.625080 0.001190 1.108580
O26   O     O_3   0.833590 0.833690 0.001120 -0.357111
N1    N     N_R   0.565646 0.499755 0.714742 0.093590
O27   O     O_R   0.547112 0.431695 0.765487 -0.372292
O28   O     O_R   0.521402 0.489139 0.652732 -0.353990
N2    N     N_R   0.886025 0.398200 0.688151 0.092408
O29   O     O_R   0.838474 0.342037 0.732012 -0.398854
O30   O     O_R   0.985630 0.317729 0.644619 -0.326784
N3    N     N_3   0.933822 0.090310 0.809323 -0.580328
H12   H     H_    0.905323 0.172738 0.845057 0.262742
H13   H     H_    0.996303 0.103422 0.772254 0.269778
N4    N     N_R   0.445729 0.218070 0.823155 0.097787
O31   O     O_R   0.384005 0.148514 0.841999 -0.292971
O32   O     O_R   0.429755 0.320130 0.864282 -0.279898
N5    N     N_R   0.461058 0.111850 0.676006 0.054398
O33   O     O_R   0.472344 0.066171 0.611024 -0.261309
O34   O     O_R   0.361345 0.114180 0.713904 -0.355225
N6    N     N_3   0.279465 0.415060 0.689689 -0.544922
H14   H     H_    0.374216 0.361199 0.713837 0.306685
H15   H     H_    0.223207 0.362696 0.692651 0.269754
N7    N     N_3   0.174656 0.447302 0.833056 -0.492342
H16   H     H_    0.077010 0.481879 0.854512 0.235530
H17   H     H_    0.182974 0.369595 0.799034 0.264486
N8    N     N_3   0.198225 0.893390 0.692952 -0.555504
H18   H     H_    0.295052 0.863201 0.670171 0.263086
H19   H     H_    0.193111 0.964493 0.730993 0.239904
N9    N     N_3   0.813562 0.387779 0.298252 -0.561917
H20   H     H_    0.913684 0.346623 0.277438 0.297977
H21   H     H_    0.776864 0.320058 0.285951 0.211590
N10   N     N_3   0.786000 0.412065 0.149953 -0.507901
H22   H     H_    0.739661 0.430440 0.100019 0.253194
H23   H     H_    0.771400 0.332457 0.169691 0.217971
N11   N     N_R   0.453604 0.909614 0.175951 0.119145
O35   O     O_R   0.366102 0.909481 0.129914 -0.290578
O36   O     O_R   0.450422 0.025525 0.191858 -0.238156
N12   N     N_R   0.489009 0.892264 0.327573 0.112249
O37   O     O_R   0.549324 0.911579 0.382275 -0.268570
O38   O     O_R   0.361866 0.984848 0.314145 -0.264809
N13   N     N_R   0.457741 0.397712 0.289703 0.077347
O39   O     O_R   0.444669 0.514952 0.268412 -0.372230
O40   O     O_R   0.348895 0.388988 0.306919 -0.245118
N14   N     N_R   0.515042 0.337212 0.148326 -0.118858
O41   O     O_R   0.561234 0.338420 0.084715 -0.000001
O42   O     O_R   0.561234 0.338421 0.084715 -0.000001
N15   N     N_3   0.785299 0.934009 0.363407 -0.538902
H24   H     H_    0.836477 0.833742 0.342231 0.223958
H25   H     H_    0.856384 0.949871 0.392727 0.244970
N16   N     N_3   0.087576 0.931908 0.340251 -0.575310
H26   H     H_    0.994578 0.016716 0.324187 0.217840
H27   H     H_    0.166955 0.949740 0.322911 0.311463
N17   N     N_R   0.118831 0.469080 0.193831 0.142031
O43   O     O_R   0.226348 0.399064 0.152748 -0.217528
O44   O     O_R   0.024807 0.431635 0.198333 -0.320255
N18   N     N_3   0.070943 0.498405 0.344606 -0.494590
H28   H     H_    0.059034 0.523275 0.398788 0.227488
H29   H     H_    0.973778 0.513250 0.329673 0.240759
N19   N     N_R   0.727603 0.835152 0.635244 0.098532
O45   O     O_R   0.832328 0.849881 0.655382 -0.371913
O46   O     O_R   0.701879 0.840384 0.567520 -0.281210
N20   N     N_3   0.928668 0.579435 0.648183 -0.541928
H30   H     H_    0.031330 0.512938 0.658443 0.243111
H31   H     H_    0.916894 0.563928 0.594495 0.278126
N21   N     N_3   0.644368 0.532442 0.858788 -0.554519
H32   H     H_    0.720348 0.436401 0.839967 0.308358
H33   H     H_    0.554655 0.530594 0.875168 0.286560

loop_
_geom_bond_atom_site_label_1
_geom_bond_atom_site_label_2
_geom_bond_distance
_ccdc_geom_bond_type
C40   C41   1.403784 A    
C30   C31   1.412683 A    
O11   Cr3   2.084458 S    
C22   N7    1.450011 S    
C17   C18   1.415084 A    
C14   H6    1.100637 S    
C18   N4    1.436655 S    
N7    H17   1.036218 S    
N2    O29   1.290263 A    
O23   Cr5   1.966169 S    
O4    Cr2   1.970563 S    
C46   O18   1.309261 A    
C4    O9    1.275742 A    
O8    Cr1   1.977711 S    
C8    H3    1.104187 S    
C10   C14   1.565906 S    
H4    C9    1.105696 S    
C15   C16   1.411839 A    
N19   O46   1.301879 A    
O15   Cr4   1.978632 S    
N6    H15   1.038160 S    
N18   H28   1.044578 S    
C10   C11   1.549185 S    
C35   C48   1.429354 S    
C21   N6    1.424176 S    
C31   N12   1.444732 S    
N5    O33   1.301500 A    
C21   C26   1.410961 A    
C5    O11   1.277791 A    
C13   N2    1.476320 S    
C31   C32   1.416346 A    
C25   N8    1.449278 S    
O15   C45   1.299136 A    
C7    C8    1.563773 S    
C36   C37   1.398410 A    
N9    H20   1.041411 S    
Cr6   O26   2.016490 S    
N2    O30   1.303195 A    
C17   C45   1.484075 S    
C22   C23   1.410584 A    
N4    O32   1.303800 A    
O25   Cr6   1.969385 S    
O6    C3    1.304031 A    
N8    H19   1.041232 S    
N20   H30   1.026380 S    
C43   C44   1.413532 A    
O22   Cr5   2.091222 S    
N21   H33   1.045859 S    
O16   Cr5   2.088865 S    
O20   C50   1.270903 A    
C24   C25   1.381045 A    
C40   H11   1.083749 S    
C34   C35   1.404974 A    
Cr3   O13   2.013394 S    
N20   H31   1.042513 S    
C5    C32   1.479536 S    
C42   C43   1.414903 A    
C23   C47   1.451381 S    
N7    H16   1.030786 S    
N18   H29   1.043413 S    
C11   C46   1.484082 S    
C33   C38   1.404933 A    
C15   H8    1.083118 S    
O7    C6    1.270564 A    
N16   H26   1.045404 S    
O1    Cr1   2.098750 S    
C45   O16   1.267881 A    
C23   C24   1.396543 A    
O10   Cr2   1.963794 S    
Cr1   O13   1.996289 S    
O1    C3    1.268945 A    
O17   C46   1.313639 A    
N15   H25   1.043632 S    
C29   C49   1.479599 S    
C1    C26   1.470303 S    
C49   O24   1.292280 A    
C41   C42   1.410976 A    
O18   Cr6   2.090274 S    
C42   N17   1.433305 S    
C39   C44   1.407283 A    
C9    C13   1.537432 S    
C34   N14   1.444979 S    
O12   Cr3   1.966855 S    
C1    O3    1.264026 A    
O19   C47   1.277015 A    
C35   C36   1.403967 A    
C19   N5    1.466817 S    
O3    Cr2   2.085754 S    
N13   O40   1.291977 A    
C19   C20   1.424172 A    
N12   O38   1.298958 A    
C15   C20   1.405163 A    
O6    Cr3   1.965941 S    
Cr5   O26   2.013835 S    
O14   Cr4   2.092532 S    
C8    C12   1.559239 S    
C48   O22   1.307909 A    
C10   N21   1.471394 S    
O7    Cr1   2.094213 S    
C7    H1    1.108396 S    
N3    H13   1.038099 S    
O12   C6    1.284822 A    
N10   H22   1.044450 S    
N1    O27   1.295860 A    
C25   C26   1.425970 A    
C43   N18   1.438873 S    
N19   O45   1.302219 A    
N1    O28   1.293383 A    
N21   H32   1.039779 S    
O19   Cr6   1.960648 S    
O20   Cr4   2.098526 S    
C16   C17   1.401712 A    
C4    C44   1.482389 S    
Cr2   O13   2.016234 S    
O21   C48   1.302897 A    
N14   O41   1.300916 A    
N17   O44   1.295335 A    
C18   C19   1.406331 A    
N12   O37   1.300482 A    
C27   C28   1.398642 A    
Cr4   O26   1.996818 S    
N11   O36   1.300045 A    
C14   N1    1.474328 S    
C29   C30   1.417580 A    
C24   H9    1.082954 S    
C3    C20   1.480053 S    
O9    Cr2   2.091433 S    
O2    Cr1   1.974194 S    
N17   O43   1.300628 A    
N15   H24   1.044173 S    
O23   C49   1.293043 A    
C16   N3    1.435241 S    
C13   N20   1.474975 S    
C28   C29   1.408592 A    
C2    O5    1.265563 A    
O21   Cr4   1.972313 S    
C2    C12   1.488628 S    
C37   N15   1.436485 S    
O2    C1    1.300034 A    
C33   C34   1.381293 A    
C9    C11   1.547688 S    
O5    Cr3   2.087857 S    
N6    H14   1.027441 S    
C10   H5    1.117182 S    
N16   H27   1.039736 S    
C6    C38   1.447390 S    
O4    C2    1.301319 A    
N5    O34   1.298254 A    
C33   N13   1.414791 S    
N3    H12   1.045706 S    
C12   C14   1.597096 S    
C12   C13   1.587768 S    
N13   O39   1.300749 A    
C7    H2    1.109848 S    
C36   H10   1.083754 S    
N9    H21   1.037435 S    
N10   H23   1.041162 S    
C27   C32   1.425768 A    
O17   Cr5   1.970763 S    
C37   C38   1.395738 A    
C39   N16   1.434631 S    
C21   C22   1.399597 A    
C8    N19   1.480988 S    
O25   C50   1.290654 A    
O14   C47   1.278554 A    
C39   C40   1.376086 A    
C30   N11   1.436953 S    
C9    H7    1.107978 S    
N4    O31   1.303148 A    
N14   O42   1.300917 A    
O10   C5    1.300557 A    
C28   N10   1.445804 S    
C41   C50   1.469590 S    
O24   Cr6   2.079711 S    
N8    H18   1.040693 S    
O8    C4    1.302334 A    
C7    C11   1.545795 S    
N11   O35   1.301311 A    
C27   N9    1.440651 S    
