data_mof_unit_31227.cif
_audit_creation_date              2012-12-11T15:13:48-0500
_audit_creation_method            fapswitch 2.2
_symmetry_space_group_name_H-M    P1
_symmetry_Int_Tables_number       1
_space_group_crystal_system       triclinic
_cell_length_a                    6.94788
_cell_length_b                    13.735164
_cell_length_c                    19.990195
_cell_angle_alpha                 103.7779
_cell_angle_beta                  90.362412
_cell_angle_gamma                 90.481865
_cell_volume                      1852.6452077

loop_
_atom_site_label
_atom_site_type_symbol
_atom_type_description
_atom_site_fract_x
_atom_site_fract_y
_atom_site_fract_z
_atom_type_partial_charge
O1    O     O_R   0.506780 0.600060 0.449950 -0.537240
O2    O     O_R   0.179840 0.597110 0.589410 -0.569425
O3    O     O_R   0.004570 0.399940 0.550050 -0.547119
C1    C     C_R   0.348388 0.617156 0.617121 0.751348
O4    O     O_R   0.177380 0.612160 0.452890 -0.557558
O5    O     O_R   0.002100 0.415100 0.412560 -0.543942
C2    C     C_R   0.346705 0.639298 0.437034 0.758937
O6    O     O_R   0.509250 0.584900 0.587440 -0.526070
O7    O     O_3   0.337570 0.435330 0.486930 -0.376595
V1    V     V_3+5 0.064650 0.512000 0.502430 1.412607
O8    O     O_R   0.672090 0.402890 0.410590 -0.549461
C3    C     C_R   0.840067 0.380994 0.383017 0.661344
O9    O     O_R   0.674540 0.387840 0.547110 -0.524206
C4    C     C_R   0.843840 0.363874 0.565381 0.777634
V2    V     V_3+5 0.564040 0.488000 0.497570 1.477024
O10   O     O_3   0.840990 0.564670 0.513070 -0.381443
C5    C     C_R   0.043453 0.149159 0.622594 -0.111308
H1    H     H_    0.027814 0.192024 0.527215 0.135568
H2    H     H_    0.137017 0.087288 0.600885 0.196291
C6    C     C_R   0.862861 0.289898 0.606208 -0.115988
C7    C     C_R   0.757278 0.310964 0.935980 -0.154471
C8    C     C_R   0.716965 0.384528 0.900844 -0.159623
C9    C     C_R   0.759882 0.369547 0.831074 -0.084934
C10   C     C_R   0.845154 0.279521 0.794358 0.089263
C11   C     C_R   0.901604 0.208862 0.832780 -0.026750
C12   C     C_R   0.879837 0.256823 0.721464 -0.113041
C13   C     C_R   0.993488 0.171709 0.692275 -0.048330
C14   C     C_R   0.055564 0.108249 0.732399 0.572289
C15   C     C_R   0.003123 0.123490 0.800265 -0.283329
C16   C     C_R   0.807869 0.313471 0.675727 0.555201
C17   C     C_R   0.979762 0.208057 0.580185 -0.280384
C18   C     C_R   0.851384 0.223359 0.902845 -0.062795
H3    H     H_    0.715240 0.322420 0.989386 0.100967
H4    H     H_    0.730073 0.431363 0.808417 0.190684
H5    H     H_    0.649450 0.453432 0.927707 0.120583
H6    H     H_    0.044042 0.067026 0.826900 0.157749
C19   C     C_3   0.778810 0.160530 0.251440 -0.141117
C20   C     C_3   0.954473 0.210092 0.295094 -0.137035
H7    H     H_    0.035245 0.177532 0.332506 0.101841
H8    H     H_    0.715089 0.086451 0.252190 0.108242
C21   C     C_3   0.847768 0.310734 0.312329 -0.001530
C22   C     C_3   0.671908 0.261909 0.269441 -0.121459
C23   C     C_3   0.758628 0.289462 0.205026 -0.141116
C24   C     C_3   0.934339 0.339009 0.248661 -0.139184
C25   C     C_3   0.041176 0.237609 0.230669 -0.117642
C26   C     C_3   0.865292 0.188847 0.187787 -0.003273
H9    H     H_    0.519379 0.271933 0.285634 0.105090
H10   H     H_    0.677924 0.321941 0.167560 0.098850
H11   H     H_    0.998662 0.412973 0.247816 0.099232
H12   H     H_    0.193680 0.227416 0.214467 0.105157
C27   C     C_3   0.531039 0.713359 0.734355 -0.164565
C28   C     C_3   0.479625 0.825675 0.748500 0.429332
H13   H     H_    0.677321 0.682145 0.722730 0.140675
C29   C     C_3   0.357007 0.815323 0.810624 -0.126294
C30   C     C_3   0.406012 0.702961 0.796328 -0.153024
C31   C     C_3   0.227425 0.677593 0.748035 -0.179630
C32   C     C_3   0.176877 0.790949 0.762755 -0.238474
C33   C     C_3   0.302208 0.799439 0.700306 0.400145
C34   C     C_3   0.353659 0.688290 0.686542 -0.173401
H14   H     H_    0.448358 0.662241 0.835815 0.125828
H15   H     H_    0.123263 0.615681 0.747546 0.146915
H16   H     H_    0.031121 0.822817 0.774312 0.176677
C35   C     C_R   0.404782 0.888822 0.393124 -0.243109
H17   H     H_    0.423703 0.013144 0.310306 0.116734
H18   H     H_    0.429541 0.966409 0.419845 0.140416
C36   C     C_R   0.357850 0.716394 0.398038 -0.143742
C37   C     C_R   0.331959 0.684538 0.066852 -0.167422
C38   C     C_R   0.317341 0.609137 0.102135 -0.125075
C39   C     C_R   0.325460 0.632207 0.173856 -0.163505
C40   C     C_R   0.349018 0.732596 0.212479 0.102246
C41   C     C_R   0.365274 0.809505 0.175856 0.065382
C42   C     C_R   0.358646 0.759136 0.286030 0.081789
C43   C     C_R   0.388280 0.861242 0.321011 0.060556
C44   C     C_R   0.402599 0.935112 0.283917 -0.183086
C45   C     C_R   0.390615 0.909919 0.212558 -0.199984
C46   C     C_R   0.340861 0.687876 0.326321 -0.314853
C47   C     C_R   0.392059 0.816610 0.431421 0.578045
C48   C     C_R   0.355916 0.784308 0.102959 -0.074504
H19   H     H_    0.315250 0.609388 0.303831 0.118670
H20   H     H_    0.324383 0.665085 0.011067 0.101027
H21   H     H_    0.313904 0.569448 0.197215 0.102840
H22   H     H_    0.299351 0.531965 0.073662 0.118203
H23   H     H_    0.402909 0.970161 0.186347 0.114556
O11   O     O_R   0.203580 0.914920 0.912610 -0.541682
O12   O     O_R   0.535710 0.887810 0.047120 -0.543187
O13   O     O_R   0.710730 0.084950 0.087430 -0.543161
C49   C     C_R   0.366611 0.861191 0.063483 0.687222
O14   O     O_R   0.533010 0.902850 0.910600 -0.528748
O15   O     O_R   0.708010 0.100090 0.949930 -0.543160
C50   C     C_R   0.364266 0.883167 0.882264 0.714321
O16   O     O_R   0.206300 0.899780 0.050100 -0.538519
O17   O     O_3   0.375170 0.064580 0.013100 -0.377310
V3    V     V_3+5 0.648200 0.988020 0.997570 1.440172
O18   O     O_R   0.038030 0.112330 0.952840 -0.545354
C51   C     C_R   0.867985 0.142058 0.939165 0.681152
O19   O     O_R   0.040730 0.097300 0.089360 -0.545581
C52   C     C_R   0.872814 0.118861 0.117032 0.669763
V4    V     V_3+5 0.148780 0.012220 0.002360 1.421517
O20   O     O_3   0.871930 0.935430 0.986900 -0.364534
O21   O     O_3   0.636122 0.893350 0.751570 -0.578570
C53   C     C_3   0.583750 0.980770 0.731041 0.109146
H24   H     H_    0.494771 0.966424 0.683798 0.233905
H25   H     H_    0.716374 0.015096 0.716787 0.127106
C54   C     C_3   0.494858 0.057019 0.790093 -0.623700
H26   H     H_    0.596796 0.074085 0.833507 0.211447
H27   H     H_    0.463350 0.127256 0.773989 0.202940
H28   H     H_    0.361885 0.026481 0.807489 0.214552
F1    F     F_    0.159601 0.026932 0.704476 -0.703933
O22   O     O_3   0.247322 0.850593 0.649412 -0.516415
C55   C     C_3   0.085016 0.805030 0.610865 0.241985
H29   H     H_    0.986557 0.766565 0.640383 0.087107
H30   H     H_    0.136468 0.751978 0.564103 0.149267
C56   C     C_3   0.968816 0.881363 0.584244 -0.592633
H31   H     H_    0.061384 0.919355 0.553019 0.233633
H32   H     H_    0.849071 0.842627 0.550994 0.179090
H33   H     H_    0.905734 0.937092 0.627382 0.231604
F2    F     F_    0.414271 0.844314 0.500896 -0.708941
F3    F     F_    0.685742 0.391109 0.696299 -0.729401

loop_
_geom_bond_atom_site_label_1
_geom_bond_atom_site_label_2
_ccdc_geom_bond_type
C24   H11   S    
C48   C49   S    
C30   C31   S    
C35   H18   S    
C53   H24   S    
C49   O16   A    
C33   O22   S    
C21   C22   S    
C46   H19   S    
C42   C46   A    
C54   H27   S    
O17   V4    S    
C32   H16   S    
C6    C16   A    
C25   C26   S    
C8    H5    S    
C15   H6    S    
C12   C13   A    
C19   C20   S    
C14   C15   A    
C10   C12   A    
C29   C50   S    
C19   H8    S    
C47   F2    S    
O5    C3    A    
C20   H7    S    
C7    H3    S    
O18   V4    S    
V2    O10   S    
C31   C32   S    
C43   C44   A    
C19   C22   S    
O13   C52   A    
C55   H29   S    
O17   V3    S    
C20   C25   S    
O14   V3    S    
O12   V3    S    
C38   C39   A    
O19   V4    S    
C9    C10   A    
C40   C41   A    
O1    V2    S    
C23   H10   S    
V3    O20   S    
C1    O6    A    
C56   H33   S    
C30   H14   S    
C11   C18   A    
C35   C47   A    
C53   H25   S    
O9    C4    A    
O18   C51   A    
C37   C48   A    
O11   C50   A    
C54   H26   S    
C28   C29   S    
O12   C49   A    
C11   C15   A    
C7    C18   A    
C44   C45   A    
C37   C38   A    
C5    C13   A    
C4    C6    S    
C10   C11   A    
C20   C21   S    
O4    C2    A    
C35   C43   A    
C33   C34   S    
C28   O21   S    
C27   C28   S    
C27   H13   S    
O15   C51   A    
O2    C1    A    
C23   C24   S    
C3    C21   S    
O13   V3    S    
C9    H4    S    
C36   C46   A    
O19   C52   A    
C31   H15   S    
C55   C56   S    
O3    C4    A    
C28   C33   S    
C26   C52   S    
O14   C50   A    
C12   C16   A    
O6    V2    S    
O8    V2    S    
O9    V2    S    
C5    C17   A    
C21   C24   S    
C27   C34   S    
C22   C23   S    
O2    V1    S    
C24   C25   S    
C56   H31   S    
O7    V1    S    
C36   C47   A    
C29   C30   S    
O1    C2    A    
C37   H20   S    
C42   C43   A    
O5    V1    S    
O8    C3    A    
C53   C54   S    
C16   F3    S    
C31   C34   S    
C38   H22   S    
O7    V2    S    
O11   V4    S    
O4    V1    S    
O3    V1    S    
V1    O10   S    
O22   C55   S    
C2    C36   S    
C41   C45   A    
C45   H23   S    
C32   C33   S    
C25   H12   S    
C14   F1    S    
C1    C34   S    
O21   C53   S    
C5    H2    S    
C27   C30   S    
C22   H9    S    
C41   C48   A    
O16   V4    S    
O15   V3    S    
C39   C40   A    
C23   C26   S    
C55   H30   S    
C39   H21   S    
C18   C51   S    
V4    O20   S    
C13   C14   A    
H17   C44   S    
C8    C9    A    
C40   C42   A    
H1    C17   S    
C19   C26   S    
C7    C8    A    
C29   C32   S    
C54   H28   S    
C56   H32   S    
C6    C17   A    
