data_mof_unit_17399.cif
_audit_creation_date              2012-12-10T17:40:54-0500
_audit_creation_method            fapswitch 2.2
_symmetry_space_group_name_H-M    P1
_symmetry_Int_Tables_number       1
_space_group_crystal_system       triclinic
_cell_length_a                    14.822113
_cell_length_b                    15.439295
_cell_length_c                    9.900978
_cell_angle_alpha                 86.639981
_cell_angle_beta                  89.775938
_cell_angle_gamma                 89.373549
_cell_volume                      2261.72700459

loop_
_atom_site_label
_atom_site_type_symbol
_atom_type_description
_atom_site_fract_x
_atom_site_fract_y
_atom_site_fract_z
_atom_type_partial_charge
C1    C     C_R   0.376418 0.882780 0.503500 0.861455
C2    C     C_R   0.379439 0.118774 0.497098 0.872504
C3    C     C_R   0.876417 0.382774 0.503493 0.861426
C4    C     C_R   0.879444 0.618780 0.497098 0.872547
C5    C     C_R   0.327413 0.261780 0.435646 -0.205903
C6    C     C_R   0.264203 0.803390 0.388342 -0.235598
C7    C     C_R   0.827435 0.761799 0.435678 -0.205811
C8    C     C_R   0.764428 0.303179 0.388191 -0.235698
C9    C     C_R   0.763028 0.825727 0.438988 0.295409
C10   C     C_R   0.709058 0.233481 0.378152 0.271131
C11   C     C_R   0.263002 0.325702 0.438942 0.295492
C12   C     C_R   0.208742 0.733754 0.378342 0.270842
C13   C     C_R   0.682246 0.808922 0.511193 -0.156038
C14   C     C_R   0.700415 0.173569 0.490697 -0.153707
C15   C     C_R   0.182228 0.308907 0.511177 -0.156051
C16   C     C_R   0.200291 0.673696 0.490727 -0.153844
C17   C     C_R   0.335390 0.007575 0.141022 -0.157130
C18   C     C_R   0.835390 0.507580 0.141024 -0.157107
C19   C     C_R   0.254123 0.010436 0.071292 -0.157451
C20   C     C_R   0.754123 0.510456 0.071293 -0.157491
C21   C     C_R   0.253970 0.008995 0.931738 -0.157368
C22   C     C_R   0.753970 0.509027 0.931738 -0.157444
C23   C     C_R   0.335107 0.005367 0.861070 -0.175214
C24   C     C_R   0.835107 0.505394 0.861071 -0.175157
C25   C     C_R   0.418769 0.003293 0.928114 0.174033
C26   C     C_R   0.918769 0.503302 0.928114 0.174093
C27   C     C_R   0.418841 0.003764 0.072688 0.173003
C28   C     C_R   0.918841 0.503769 0.072689 0.173037
C29   C     C_R   0.577638 0.996669 0.071483 -0.047609
C30   C     C_R   0.077639 0.496667 0.071482 -0.047802
C31   C     C_R   0.625154 0.115016 0.497083 0.964622
C32   C     C_R   0.615923 0.876299 0.503545 0.982529
C33   C     C_R   0.125113 0.615062 0.497086 0.964834
C34   C     C_R   0.115914 0.376292 0.503543 0.982657
C35   C     C_R   0.577509 0.996545 0.928528 -0.044382
C36   C     C_R   0.077510 0.496542 0.928526 -0.044451
C37   C     C_R   0.197493 0.069894 0.564697 -0.199868
C38   C     C_R   0.310249 0.784489 0.761272 -0.114713
C39   C     C_R   0.697494 0.569909 0.564677 -0.199869
C40   C     C_R   0.810115 0.284565 0.761261 -0.114887
C41   C     C_R   0.114207 0.049201 0.621741 -0.180951
C42   C     C_R   0.308146 0.721563 0.867874 -0.108306
C43   C     C_R   0.614208 0.549222 0.621728 -0.181024
C44   C     C_R   0.807972 0.221686 0.867933 -0.107968
C45   C     C_R   0.559847 0.614564 0.669455 -0.123169
C46   C     C_R   0.790916 0.136209 0.841735 -0.171113
C47   C     C_R   0.059834 0.114540 0.669443 -0.123082
C48   C     C_R   0.291038 0.636112 0.841595 -0.171484
C49   C     C_R   0.585521 0.701516 0.652103 0.255612
C50   C     C_R   0.765330 0.115683 0.712121 0.267741
C51   C     C_R   0.085495 0.201495 0.652077 0.255559
C52   C     C_R   0.265366 0.615659 0.711987 0.267879
C53   C     C_R   0.662705 0.724561 0.571001 -0.006774
C54   C     C_R   0.752149 0.182651 0.609040 0.012391
C55   C     C_R   0.162687 0.224546 0.570991 -0.006819
C56   C     C_R   0.252139 0.682679 0.608995 0.012409
C57   C     C_R   0.223060 0.157383 0.542135 0.076526
C58   C     C_R   0.289876 0.763684 0.627553 0.054826
C59   C     C_R   0.723070 0.657396 0.542128 0.076521
C60   C     C_R   0.789843 0.263683 0.627544 0.054817
C61   C     C_R   0.308001 0.179550 0.489653 -0.128070
C62   C     C_R   0.305859 0.818812 0.510504 -0.160193
C63   C     C_R   0.808013 0.679562 0.489651 -0.128094
C64   C     C_R   0.805899 0.318753 0.510450 -0.160184
H1    H     H_    0.392568 0.275823 0.389559 0.191281
H2    H     H_    0.273585 0.846721 0.299411 0.191317
H3    H     H_    0.892596 0.775845 0.389609 0.191445
H4    H     H_    0.773917 0.346415 0.299171 0.191465
H5    H     H_    0.190532 0.009415 0.878167 0.171435
H6    H     H_    0.690532 0.509458 0.878166 0.171421
H7    H     H_    0.329667 0.000341 0.754735 0.192820
H8    H     H_    0.829665 0.500367 0.754737 0.192797
H9    H     H_    0.640772 0.993274 0.875409 0.183871
H10   H     H_    0.140774 0.493272 0.875402 0.183824
H11   H     H_    0.240850 0.017329 0.535366 0.112981
H12   H     H_    0.325624 0.848777 0.787221 0.178032
H13   H     H_    0.740845 0.517342 0.535335 0.112959
H14   H     H_    0.825451 0.348875 0.787136 0.177931
H15   H     H_    0.094768 0.981981 0.637745 0.172005
H16   H     H_    0.325335 0.738278 0.969238 0.190701
H17   H     H_    0.594762 0.482004 0.637726 0.171960
H18   H     H_    0.825092 0.238460 0.969298 0.190873
H19   H     H_    0.500475 0.596860 0.728524 0.187771
H20   H     H_    0.799210 0.085734 0.921485 0.182006
H21   H     H_    0.000456 0.096832 0.728499 0.187814
H22   H     H_    0.299359 0.585597 0.921277 0.181907
H23   H     H_    0.641127 0.994109 0.125059 0.190717
H24   H     H_    0.141127 0.494107 0.125057 0.190610
H25   H     H_    0.329914 0.007593 0.248153 0.193582
H26   H     H_    0.829914 0.507588 0.248156 0.193597
H27   H     H_    0.190883 0.012776 0.126156 0.172436
H28   H     H_    0.690883 0.512798 0.126156 0.172362
N1    N     N_R   0.498810 0.000000 0.142780 -0.122175
N2    N     N_R   0.998810 0.500000 0.142780 -0.122149
N3    N     N_R   0.498740 0.000000 0.857170 -0.112108
N4    N     N_R   0.998740 0.500000 0.857170 -0.112088
O1    O     O_R   0.408390 0.908380 0.614690 -0.636733
O2    O     O_R   0.408390 0.091620 0.614690 -0.626126
O3    O     O_R   0.908390 0.408380 0.614690 -0.636630
O4    O     O_R   0.908390 0.591620 0.614690 -0.626163
O5    O     O_R   0.408370 0.908380 0.385360 -0.643022
O6    O     O_R   0.408370 0.091620 0.385360 -0.635009
O7    O     O_R   0.908370 0.408380 0.385360 -0.643098
O8    O     O_R   0.908370 0.591620 0.385360 -0.634931
O9    O     O_R   0.591620 0.091610 0.614640 -0.611704
O10   O     O_R   0.591620 0.908390 0.614640 -0.547032
O11   O     O_R   0.091620 0.591610 0.614640 -0.611721
O12   O     O_R   0.091620 0.408390 0.614640 -0.547016
O13   O     O_R   0.591610 0.091610 0.385310 -0.559044
O14   O     O_R   0.591610 0.908390 0.385310 -0.599904
O15   O     O_R   0.091610 0.591610 0.385310 -0.559041
O16   O     O_R   0.091610 0.408390 0.385310 -0.599879
Zn1   Zn    Zn3+2 0.500010 0.000000 0.653130 0.997371
Zn2   Zn    Zn3+2 0.000010 0.500000 0.653130 0.997408
Zn3   Zn    Zn3+2 0.499980 0.000000 0.346870 0.999429
Zn4   Zn    Zn3+2 0.999980 0.500000 0.346870 0.999463
Br1   Br    Br    0.534451 0.771656 0.786791 -0.508058
Br2   Br    Br    0.774321 0.996067 0.674197 -0.507608
Br3   Br    Br    0.034349 0.271645 0.786693 -0.507980
Br4   Br    Br    0.274292 0.496061 0.673962 -0.507672
Br5   Br    Br    0.790881 0.934581 0.342869 -0.465881
Br6   Br    Br    0.648863 0.228091 0.206209 -0.511566
Br7   Br    Br    0.290844 0.434531 0.342737 -0.466207
Br8   Br    Br    0.148040 0.728718 0.206778 -0.511116

loop_
_geom_bond_atom_site_label_1
_geom_bond_atom_site_label_2
_ccdc_geom_bond_type
C58   C62   A    
C18   C28   A    
C42   H16   S    
C40   C60   A    
C34   O16   A    
C13   C32   S    
C33   O11   A    
C14   C31   S    
C1    C62   S    
O3    Zn2   S    
C53   C59   A    
C54   C60   A    
C3    C64   S    
C20   H28   S    
C4    C63   S    
C50   C54   A    
C6    H2    S    
C32   O14   A    
C17   H25   S    
C39   H13   S    
C22   C24   A    
O9    Zn1   S    
C19   C21   A    
C24   C26   A    
C5    C11   A    
C44   H18   S    
C6    C12   A    
C2    O6    A    
C38   C58   A    
C28   N2    A    
N1    Zn3   S    
O12   Zn2   S    
C9    C13   A    
O6    Zn3   S    
O8    Zn4   S    
C11   C15   A    
C49   Br1   S    
C12   C16   A    
C51   Br3   S    
C40   C44   A    
O15   Zn4   S    
C33   O15   A    
C15   C34   S    
C51   C55   A    
C2    C61   S    
C37   H11   S    
C32   O10   A    
C38   H12   S    
C31   O9    A    
N4    Zn2   S    
C45   H19   S    
C41   C47   A    
C44   C46   A    
C13   C53   A    
C21   C23   A    
C26   N4    A    
O10   Zn1   S    
C18   H26   S    
C23   H7    S    
O4    Zn2   S    
O5    Zn3   S    
C5    H1    S    
C10   C14   A    
C1    O1    A    
N2    Zn4   S    
O2    Zn1   S    
C39   C43   A    
C21   H5    S    
C17   C27   A    
C16   C56   A    
O11   Zn2   S    
C16   C33   S    
C47   H21   S    
C36   N4    A    
C9    Br5   S    
C12   Br8   S    
C45   C49   A    
C39   C59   A    
C31   O13   A    
C5    C61   A    
C42   C48   A    
C43   C45   A    
C7    C63   A    
C36   H10   S    
C8    C64   A    
C46   H20   S    
C52   Br4   S    
C40   H14   S    
C14   C54   A    
C20   C22   A    
C25   N3    A    
C55   C57   A    
C43   H17   S    
C48   H22   S    
C27   N1    A    
C30   H24   S    
C1    O5    A    
O16   Zn4   S    
C24   H8    S    
C3    O7    A    
C7    C9    A    
C46   C50   A    
C35   H9    S    
C50   Br2   S    
C59   C63   A    
C11   Br7   S    
C10   Br6   S    
C41   H15   S    
C47   C51   A    
C57   C61   A    
C35   N3    A    
C25   C27   A    
C29   C35   A    
C26   C28   A    
C30   C36   A    
C60   C64   A    
C34   O12   A    
C6    C62   A    
C8    H4    S    
C4    O4    A    
O7    Zn4   S    
C30   N2    A    
C29   N1    A    
N3    Zn1   S    
C49   C53   A    
C4    O8    A    
C17   C19   A    
C56   C58   A    
C18   C20   A    
C23   C25   A    
C37   C41   A    
C29   H23   S    
C19   H27   S    
O13   Zn3   S    
C7    H3    S    
C38   C42   A    
C3    O3    A    
C48   C52   A    
C2    O2    A    
C8    C10   A    
O1    Zn1   S    
O14   Zn3   S    
C22   H6    S    
C37   C57   A    
C52   C56   A    
C15   C55   A    
