data_mof_unit_5710.cif
_audit_creation_date              2012-12-10T17:04:32-0500
_audit_creation_method            fapswitch 2.2
_symmetry_space_group_name_H-M    P1
_symmetry_Int_Tables_number       1
_space_group_crystal_system       triclinic
_cell_length_a                    14.991447
_cell_length_b                    10.707603
_cell_length_c                    10.068174
_cell_angle_alpha                 89.724114
_cell_angle_beta                  89.624402
_cell_angle_gamma                 90.4368
_cell_volume                      1616.06726939

loop_
_atom_site_label
_atom_site_type_symbol
_atom_type_description
_atom_site_fract_x
_atom_site_fract_y
_atom_site_fract_z
_atom_type_partial_charge
C1    C     C_R   0.506413 0.263126 0.500216 0.821209
C2    C     C_R   0.908274 0.569236 0.603094 0.068482
C3    C     C_R   0.952775 0.403523 0.281396 0.354040
C4    C     C_R   0.046081 0.401013 0.281074 0.323107
C5    C     C_R   0.093186 0.451569 0.389173 -0.059707
C6    C     C_R   0.046960 0.506426 0.496813 0.041758
C7    C     C_R   0.094042 0.557085 0.605468 0.150588
C8    C     C_R   0.048884 0.613186 0.710599 -0.184552
C9    C     C_R   0.956805 0.620105 0.709179 -0.092893
C10   C     C_R   0.185919 0.449395 0.392513 -0.138161
C11   C     C_R   0.231388 0.499332 0.500559 -0.095686
C12   C     C_R   0.326981 0.499155 0.500323 0.876649
C13   C     C_R   0.186059 0.551928 0.607131 -0.198964
C14   C     C_2   0.510817 0.932716 0.609576 -0.088757
C15   C     C_2   0.487786 0.869147 0.501694 -0.242778
C16   C     C_2   0.504119 0.066107 0.607179 -0.273493
C17   C     C_2   0.530885 0.134370 0.502008 0.251429
C18   C     C_2   0.512774 0.598254 0.927256 -0.013957
C19   C     C_2   0.495245 0.600236 0.074505 -0.041231
C20   C     C_R   0.497035 0.737267 0.500102 0.926714
C21   C     C_R   0.673098 0.505171 0.499801 0.957741
C22   C     C_R   0.815202 0.574373 0.601748 0.346957
C23   C     C_R   0.769102 0.513589 0.499118 -0.167114
C24   C     C_R   0.814382 0.458769 0.393384 -0.152536
C25   C     C_R   0.906826 0.457859 0.389203 -0.055087
C26   C     C_R   0.953963 0.511000 0.496312 -0.038303
H1    H     H_    0.462590 0.914986 0.413334 0.186204
H2    H     H_    0.468250 0.107563 0.689910 0.199187
H3    H     H_    0.535333 0.684688 0.881131 0.134723
H4    H     H_    0.478794 0.688501 0.120553 0.162351
H5    H     H_    0.537752 0.430084 0.108119 0.235145
H6    H     H_    0.776347 0.415130 0.315182 0.232591
H7    H     H_    0.223796 0.408258 0.312234 0.225095
H8    H     H_    0.222560 0.591447 0.689860 0.173353
H9    H     H_    0.084879 0.652197 0.793939 0.171532
H10   H     H_    0.924520 0.663977 0.792993 0.216362
H11   H     H_    0.530707 0.887371 0.701411 0.195939
N1    N     N_2   0.500970 0.501330 0.852150 0.058975
N2    N     N_2   0.500990 0.501360 0.147810 -0.146809
O1    O     O_R   0.499990 0.319060 0.613040 -0.565825
O2    O     O_R   0.500010 0.319100 0.386900 -0.592843
O3    O     O_R   0.367830 0.499950 0.613080 -0.561307
O4    O     O_R   0.367860 0.499990 0.386940 -0.608048
O5    O     O_R   0.499990 0.680900 0.613100 -0.643115
O6    O     O_R   0.500010 0.680940 0.386960 -0.614391
O7    O     O_R   0.632140 0.500010 0.613060 -0.568332
O8    O     O_R   0.632170 0.500050 0.386920 -0.634470
Zn1   Zn    Zn3+2 0.499980 0.499970 0.650990 1.102998
Zn2   Zn    Zn3+2 0.500020 0.500030 0.349010 1.034862
Cl1   Cl    Cl    0.757189 0.663393 0.723000 -0.569584
S1    S     S_3+6 0.608230 0.083302 0.378314 0.079711
O9    O     O_2   0.663537 0.976697 0.428432 -0.211544
O10   O     O_2   0.558620 0.042327 0.256534 -0.292869
O11   O     O_3   0.677294 0.202105 0.337024 -0.520308
H12   H     H_    0.650825 0.241383 0.257345 0.382850
S2    S     S_3+6 0.428521 0.381036 0.905938 0.126183
O12   O     O_2   0.481829 0.276649 0.965530 -0.301639
O13   O     O_2   0.361459 0.427341 0.005699 -0.278531
O14   O     O_3   0.369771 0.319852 0.780421 -0.503236
H13   H     H_    0.334912 0.250191 0.820529 0.373146
Cl2   Cl    Cl    0.894721 0.338765 0.144810 -0.468112
Cl3   Cl    Cl    0.102714 0.333940 0.144036 -0.485696

loop_
_geom_bond_atom_site_label_1
_geom_bond_atom_site_label_2
_ccdc_geom_bond_type
C16   H2    S    
C9    H10   S    
C12   O3    A    
C11   C12   S    
C24   H6    S    
C2    C22   A    
C6    C7    A    
C12   O4    A    
C15   H1    S    
C20   O6    A    
S2    O14   S    
O6    Zn2   S    
C23   C24   A    
S1    O11   S    
C17   S1    S    
C21   C23   S    
C18   N1    D    
O14   H13   S    
C2    C26   A    
C18   H3    S    
O3    Zn1   S    
C21   O8    A    
C24   C25   A    
C14   H11   S    
C11   C13   A    
C6    C26   A    
C19   N2    D    
O2    Zn2   S    
C20   O5    A    
S2    O13   D    
C18   C19   S    
C10   H7    S    
O7    Zn1   S    
C3    Cl2   S    
C5    C6    A    
C2    C9    A    
C14   C16   S    
C16   C17   D    
C10   C11   A    
C1    C17   S    
C5    C10   A    
S1    O9    D    
C4    Cl3   S    
C22   Cl1   S    
C7    C8    A    
C3    C25   A    
N1    S2    S    
S2    O12   D    
O8    Zn2   S    
C21   O7    A    
C1    O2    A    
O1    Zn1   S    
C14   C15   D    
C8    C9    A    
C13   H8    S    
C7    C13   A    
C1    O1    A    
N2    Zn2   S    
C25   C26   A    
O11   H12   S    
C19   H4    S    
N1    Zn1   S    
C15   C20   S    
C22   C23   A    
O4    Zn2   S    
C3    C4    A    
O5    Zn1   S    
H5    N2    S    
C4    C5    A    
S1    O10   D    
C8    H9    S    
