data_mof_unit_23678.cif
_audit_creation_date              2012-12-11T14:44:13-0500
_audit_creation_method            fapswitch 2.2
_symmetry_space_group_name_H-M    P1
_symmetry_Int_Tables_number       1
_space_group_crystal_system       triclinic
_cell_length_a                    19.089413
_cell_length_b                    11.168336
_cell_length_c                    18.785377
_cell_angle_alpha                 90.100665
_cell_angle_beta                  90.633128
_cell_angle_gamma                 89.934364
_cell_volume                      4004.73237996

loop_
_atom_site_label
_atom_site_type_symbol
_atom_type_description
_atom_site_fract_x
_atom_site_fract_y
_atom_site_fract_z
_atom_type_partial_charge
C1    C     C_R   0.729928 0.373835 0.146496 0.564271
C2    C     C_R   0.093095 0.926324 0.003005 -0.115541
C3    C     C_R   0.018636 0.758161 0.031498 -0.000160
C4    C     C_R   0.443268 0.081650 0.057233 -0.153497
C5    C     C_R   0.428544 0.072560 0.984303 -0.177084
C6    C     C_R   0.944356 0.586718 0.056509 -0.166427
C7    C     C_R   0.928278 0.578339 0.984168 -0.177364
C8    C     C_3   0.629001 0.858408 0.577986 -0.260818
C9    C     C_3   0.569480 0.935720 0.550218 -0.442331
C10   C     C_3   0.352588 0.766909 0.435682 -0.261091
C11   C     C_3   0.423406 0.746222 0.472881 -0.488925
C12   C     C_3   0.128984 0.358053 0.577985 -0.260609
C13   C     C_R   0.599106 0.378716 0.940378 -0.114664
C14   C     C_3   0.069306 0.434978 0.550172 -0.442275
C15   C     C_3   0.852337 0.266230 0.436107 -0.261198
C16   C     C_3   0.922958 0.245330 0.473651 -0.488787
C17   C     C_3   0.641162 0.788608 0.416482 -0.243876
C18   C     C_3   0.618284 0.671723 0.450190 -0.465711
C19   C     C_3   0.330330 0.735701 0.601515 -0.262930
C20   C     C_3   0.287612 0.683409 0.662674 -0.417293
C21   C     C_3   0.141266 0.288428 0.416491 -0.244080
C22   C     C_3   0.118583 0.171375 0.450152 -0.465384
C23   C     C_3   0.829334 0.234754 0.602008 -0.262417
C24   C     C_R   0.588410 0.424507 0.008417 -0.112734
C25   C     C_3   0.786089 0.182856 0.662979 -0.415941
C26   C     C_3   0.610729 0.997237 0.035061 -0.232005
C27   C     C_3   0.572864 0.881416 0.055240 -0.379813
C28   C     C_3   0.278256 0.751167 0.898637 -0.254096
C29   C     C_3   0.217553 0.726944 0.847496 -0.424373
C30   C     C_3   0.109226 0.496729 0.033331 -0.236434
C31   C     C_3   0.073696 0.380398 0.056133 -0.379125
C32   C     C_3   0.798065 0.251796 0.906388 -0.244644
C33   C     C_3   0.737237 0.216449 0.857244 -0.422069
C34   C     C_1   0.890323 0.969010 0.944204 0.232279
C35   C     C_R   0.683946 0.973072 0.015655 -0.050150
C36   C     C_1   0.255088 0.116838 0.117223 0.190369
C37   C     C_1   0.392056 0.460684 0.942261 0.245487
C38   C     C_1   0.736159 0.620541 0.114475 0.179197
C39   C     C_3   0.871039 0.917555 0.090732 -0.227511
C40   C     C_3   0.918492 0.026607 0.105277 -0.398978
C41   C     C_3   0.239391 0.184677 0.969960 -0.242767
C42   C     C_3   0.160852 0.190841 0.952048 -0.373902
C43   C     C_3   0.368222 0.594814 0.069171 -0.252380
C44   C     C_3   0.419114 0.669287 0.024110 -0.461311
C45   C     C_3   0.721263 0.679244 0.965931 -0.242209
C46   C     C_R   0.265514 0.850394 0.952358 -0.006087
C47   C     C_3   0.644282 0.683131 0.940789 -0.372723
C48   C     C_R   0.183282 0.480118 0.014251 -0.045092
C49   C     C_R   0.778600 0.352008 0.957052 -0.016530
C50   C     C_R   0.695400 0.956277 0.944085 -0.165435
C51   C     C_R   0.254326 0.820458 0.023230 -0.142844
C52   C     C_R   0.195522 0.462192 0.942928 -0.162687
C53   C     C_R   0.271088 0.381641 0.851837 0.513589
C54   C     C_R   0.771827 0.324041 0.028791 -0.145665
C55   C     C_R   0.761383 0.932152 0.921374 -0.020554
C56   C     C_R   0.250534 0.908194 0.076266 -0.011306
C57   C     C_R   0.261736 0.435206 0.921700 -0.025906
C58   C     C_R   0.753573 0.411997 0.078390 -0.005727
C59   C     C_R   0.819903 0.943557 0.968867 -0.029531
C60   C     C_R   0.256395 0.028086 0.060415 -0.030044
C61   C     C_R   0.320562 0.465417 0.966808 -0.019072
C62   C     C_R   0.746409 0.530351 0.059430 -0.031355
C63   C     C_R   0.809144 0.946182 0.041511 -0.031883
C64   C     C_R   0.228983 0.872257 0.145593 0.559896
C65   C     C_R   0.257089 0.060240 0.988891 -0.067698
C66   C     C_R   0.308975 0.518452 0.032621 -0.023809
C67   C     C_R   0.744201 0.557676 0.987184 -0.066488
C68   C     C_R   0.740324 0.966517 0.065963 0.023201
C69   C     C_R   0.264317 0.972426 0.934445 0.018575
C70   C     C_R   0.240149 0.500761 0.062359 0.005078
C71   C     C_R   0.763249 0.470551 0.935252 0.012433
C72   C     C_R   0.452390 0.070981 0.445459 -0.131641
C73   C     C_R   0.429875 0.071052 0.516066 -0.149864
C74   C     C_R   0.952461 0.570848 0.445481 -0.132532
C75   C     C_R   0.770518 0.882642 0.851009 0.512407
C76   C     C_R   0.929958 0.570923 0.516089 -0.149716
C77   C     C_R   0.448685 0.164757 0.561933 0.019031
C78   C     C_R   0.489684 0.168953 0.418663 0.030462
C79   C     C_R   0.948705 0.664705 0.561932 0.019278
C80   C     C_R   0.989671 0.668901 0.418652 0.029101
C81   C     C_R   0.526438 0.156915 0.150840 0.520178
C82   C     C_R   0.438626 0.149465 0.860746 0.532749
C83   C     C_R   0.027413 0.657114 0.150247 0.518720
C84   C     C_R   0.938446 0.649872 0.860572 0.533592
C85   C     C_R   0.477645 0.269124 0.532627 -0.135366
C86   C     C_R   0.558392 0.285195 0.915673 -0.081116
C87   C     C_R   0.495483 0.272318 0.460751 -0.140628
C88   C     C_R   0.977615 0.769094 0.532603 -0.135328
C89   C     C_R   0.995415 0.772298 0.460718 -0.141179
C90   C     C_R   0.815791 0.936050 0.457615 -0.158483
C91   C     C_R   0.177065 0.923570 0.547457 -0.163917
C92   C     C_R   0.315725 0.436465 0.457696 -0.157917
C93   C     C_R   0.676976 0.423949 0.547424 -0.163689
C94   C     C_R   0.819199 0.927286 0.530154 -0.151905
C95   C     C_R   0.169768 0.893674 0.476744 -0.167056
C96   C     C_R   0.319105 0.427775 0.530232 -0.152091
C97   C     C_R   0.543193 0.368032 0.054284 -0.074425
C98   C     C_R   0.669690 0.393949 0.476717 -0.167131
C99   C     C_R   0.759552 0.898625 0.569840 0.012819
C100  C     C_R   0.225883 0.847100 0.438701 0.006984
C101  C     C_R   0.259487 0.398819 0.569888 0.012485
C102  C     C_R   0.725750 0.346937 0.438771 0.007053
C103  C     C_R   0.695727 0.870038 0.534671 0.030873
C104  C     C_R   0.287585 0.806826 0.477111 0.004656
C105  C     C_R   0.195707 0.370002 0.534691 0.030604
C106  C     C_R   0.787274 0.306267 0.477346 0.004922
C107  C     C_R   0.696484 0.858510 0.459128 0.036915
C108  C     C_R   0.055322 0.794146 0.910339 -0.077013
C109  C     C_R   0.287507 0.817520 0.552851 0.031110
C110  C     C_R   0.196510 0.358482 0.459149 0.036728
C111  C     C_R   0.787057 0.317001 0.553098 0.030814
C112  C     C_R   0.753510 0.910470 0.422020 0.012738
C113  C     C_R   0.239289 0.897778 0.583495 0.027450
C114  C     C_R   0.253503 0.410600 0.422064 0.013399
C115  C     C_R   0.739098 0.397783 0.583564 0.027769
C116  C     C_R   0.730948 0.006912 0.139457 0.557702
C117  C     C_R   0.270736 0.011415 0.860387 0.535438
C118  C     C_R   0.228732 0.520164 0.139777 0.561678
C119  C     C_R   0.054319 0.863486 0.051600 -0.088292
C120  C     C_R   0.769925 0.508649 0.860623 0.531070
C121  C     C_R   0.713552 0.334693 0.360554 0.563744
C122  C     C_R   0.271813 0.373878 0.645511 0.520560
C123  C     C_R   0.213577 0.834741 0.360542 0.566381
C124  C     C_R   0.771842 0.873805 0.645483 0.519920
C125  C     C_R   0.530534 0.157418 0.352452 0.539115
C126  C     C_R   0.435958 0.153588 0.639115 0.562604
C127  C     C_R   0.030524 0.657411 0.352443 0.538190
C128  C     C_R   0.935968 0.653581 0.639113 0.562335
C129  C     C_R   0.742361 0.967967 0.352876 0.548772
C130  C     C_R   0.096157 0.888318 0.932939 -0.108438
C131  C     C_R   0.256876 0.967508 0.647535 0.540230
C132  C     C_R   0.242355 0.467999 0.352892 0.554945
C133  C     C_R   0.756836 0.467481 0.647567 0.540842
C134  C     C_R   0.460064 0.150710 0.935833 -0.004766
C135  C     C_R   0.487070 0.173223 0.082834 -0.006731
C136  C     C_R   0.960756 0.653529 0.934966 -0.003404
C137  C     C_R   0.991529 0.673779 0.080923 -0.025397
C138  C     C_R   0.509157 0.232708 0.960874 0.036928
C139  C     C_R   0.511104 0.260094 0.033837 0.016393
C140  C     C_R   0.010987 0.735641 0.958248 0.033263
Cr1   Cr    Cr6+3 0.772000 0.169640 0.250110 0.982073
Cr2   Cr    Cr6+3 0.383330 0.010620 0.749160 0.975449
Cr3   Cr    Cr6+3 0.116670 0.510620 0.250840 0.995239
Cr4   Cr    Cr6+3 0.883330 0.510620 0.749160 0.977080
Cr5   Cr    Cr6+3 0.228000 0.169640 0.749890 0.979974
Cr6   Cr    Cr6+3 0.272000 0.669640 0.250110 0.979557
Cr7   Cr    Cr6+3 0.728000 0.669640 0.749890 0.979346
Cr8   Cr    Cr6+3 0.614960 0.323350 0.249260 0.999038
Cr9   Cr    Cr6+3 0.385040 0.323350 0.750740 1.009831
Cr10  Cr    Cr6+3 0.114960 0.823350 0.249260 0.987037
Cr11  Cr    Cr6+3 0.885040 0.823350 0.750740 1.008266
Cr12  Cr    Cr6+3 0.616670 0.010620 0.250840 0.999474
H1    H     H_    0.423353 0.014121 0.093005 0.129422
H2    H     H_    0.121994 0.918495 0.449931 0.125601
H3    H     H_    0.144618 0.267590 0.920211 0.161938
H4    H     H_    0.251667 0.249461 0.012944 0.162863
H5    H     H_    0.275401 0.206365 0.927469 0.150623
H6    H     H_    0.468957 0.620142 0.016232 0.164099
H7    H     H_    0.396387 0.695906 0.972295 0.158079
H8    H     H_    0.433466 0.753002 0.052794 0.120805
H9    H     H_    0.343737 0.666647 0.100677 0.196646
H10   H     H_    0.399590 0.536501 0.105356 0.168015
H11   H     H_    0.628334 0.609600 0.905782 0.181671
H12   H     H_    0.610058 0.679115 0.987391 0.108527
H13   H     H_    0.369298 0.446108 0.555241 0.136015
H14   H     H_    0.631675 0.764848 0.910850 0.156958
H15   H     H_    0.727483 0.744559 0.009302 0.159774
H16   H     H_    0.760269 0.705217 0.927704 0.162100
H17   H     H_    0.622012 0.419067 0.449829 0.125622
H18   H     H_    0.565709 0.254553 0.861562 0.135999
H19   H     H_    0.533909 0.410201 0.105102 0.146520
H20   H     H_    0.060010 0.767018 0.855346 0.140070
H21   H     H_    0.050038 0.904571 0.103123 0.163830
H22   H     H_    0.128171 0.931744 0.894675 0.151516
H23   H     H_    0.121692 0.002040 0.021791 0.129652
H24   H     H_    0.635830 0.417280 0.904672 0.149162
H25   H     H_    0.396048 0.000271 0.965259 0.130957
H26   H     H_    0.615543 0.501452 0.027782 0.134954
H27   H     H_    0.652494 0.959181 0.905718 0.116826
H28   H     H_    0.244842 0.728799 0.036966 0.115266
H29   H     H_    0.152555 0.458565 0.904614 0.117363
H30   H     H_    0.777221 0.231722 0.045799 0.125357
H31   H     H_    0.444019 0.992292 0.412972 0.127162
H32   H     H_    0.401407 0.995380 0.536475 0.126073
H33   H     H_    0.944139 0.492088 0.413029 0.126619
H34   H     H_    0.901554 0.495189 0.536512 0.126027
H35   H     H_    0.488559 0.346917 0.565365 0.122398
H36   H     H_    0.922502 0.521958 0.092908 0.133049
H37   H     H_    0.517117 0.353306 0.439160 0.110642
H38   H     H_    0.988505 0.846911 0.565328 0.122196
H39   H     H_    0.016982 0.853326 0.439104 0.110327
H40   H     H_    0.586712 0.030212 0.544551 0.174703
H41   H     H_    0.548295 0.902676 0.499302 0.150727
H42   H     H_    0.526254 0.930932 0.588760 0.170362
H43   H     H_    0.613013 0.763740 0.583514 0.151116
H44   H     H_    0.636969 0.892639 0.632836 0.162992
H45   H     H_    0.433395 0.809978 0.516546 0.147239
H46   H     H_    0.428621 0.652725 0.492053 0.129320
H47   H     H_    0.893244 0.509128 0.966059 0.132241
H48   H     H_    0.465561 0.758395 0.433289 0.134715
H49   H     H_    0.340224 0.683642 0.407191 0.200753
H50   H     H_    0.363147 0.838063 0.396101 0.166873
H51   H     H_    0.086432 0.529464 0.544167 0.174919
H52   H     H_    0.047982 0.401419 0.499430 0.150527
H53   H     H_    0.026195 0.430425 0.588862 0.170433
H54   H     H_    0.113181 0.263297 0.583552 0.151417
H55   H     H_    0.136891 0.392420 0.632817 0.163166
H56   H     H_    0.932805 0.309119 0.517344 0.147527
H57   H     H_    0.927953 0.151853 0.492906 0.129421
H58   H     H_    0.861415 0.968014 0.429612 0.130608
H59   H     H_    0.965311 0.257291 0.434257 0.134033
H60   H     H_    0.839989 0.183061 0.407530 0.201009
H61   H     H_    0.863106 0.337394 0.396591 0.165980
H62   H     H_    0.662904 0.632539 0.480133 0.180238
H63   H     H_    0.572930 0.684808 0.485434 0.131950
H64   H     H_    0.600900 0.608846 0.407712 0.150627
H65   H     H_    0.595238 0.844815 0.402521 0.167313
H66   H     H_    0.664615 0.760418 0.365156 0.173226
H67   H     H_    0.266370 0.753265 0.698090 0.156684
H68   H     H_    0.243327 0.629335 0.641355 0.148130
H69   H     H_    0.135562 0.974405 0.572308 0.132709
H70   H     H_    0.322102 0.626620 0.696336 0.167361
H71   H     H_    0.348363 0.656942 0.571690 0.154793
H72   H     H_    0.376794 0.783285 0.623435 0.157714
H73   H     H_    0.163267 0.132331 0.480073 0.180720
H74   H     H_    0.073208 0.184189 0.485407 0.131783
H75   H     H_    0.101302 0.108468 0.407648 0.150084
H76   H     H_    0.095259 0.344486 0.402599 0.166817
H77   H     H_    0.164721 0.260422 0.365133 0.172985
H78   H     H_    0.764710 0.252726 0.698350 0.154738
H79   H     H_    0.741854 0.128949 0.641394 0.148129
H80   H     H_    0.361330 0.468580 0.429722 0.131554
H81   H     H_    0.820270 0.125910 0.696858 0.167431
H82   H     H_    0.847323 0.155895 0.572249 0.154903
H83   H     H_    0.875842 0.281882 0.624180 0.157770
H84   H     H_    0.608096 0.818057 0.083829 0.179367
H85   H     H_    0.526901 0.896960 0.088774 0.166090
H86   H     H_    0.551296 0.840356 0.006043 0.117357
H87   H     H_    0.614635 0.066790 0.075243 0.174335
H88   H     H_    0.581749 0.038461 0.990031 0.140718
H89   H     H_    0.173049 0.690242 0.877507 0.145617
H90   H     H_    0.201495 0.808049 0.817719 0.179846
H91   H     H_    0.635568 0.475135 0.572186 0.132824
H92   H     H_    0.233413 0.657195 0.808741 0.133634
H93   H     H_    0.327625 0.764988 0.869383 0.168820
H94   H     H_    0.286693 0.668118 0.927381 0.151588
H95   H     H_    0.108943 0.324732 0.089866 0.179599
H96   H     H_    0.025265 0.396953 0.085975 0.166506
H97   H     H_    0.055911 0.331328 0.007974 0.119681
H98   H     H_    0.111560 0.567098 0.072742 0.171050
H99   H     H_    0.079020 0.534072 0.987894 0.145805
H100  H     H_    0.692191 0.186546 0.889335 0.147138
H101  H     H_    0.720193 0.291691 0.822871 0.172919
H102  H     H_    0.869415 0.945448 0.555155 0.135986
H103  H     H_    0.753633 0.141488 0.822364 0.140381
H104  H     H_    0.845489 0.273870 0.875649 0.177136
H105  H     H_    0.813172 0.171707 0.937141 0.143110
H106  H     H_    0.956745 0.039218 0.062192 0.142790
H107  H     H_    0.888386 0.111330 0.109022 0.177881
H108  H     H_    0.948055 0.012951 0.155840 0.127031
H109  H     H_    0.853857 0.875675 0.141184 0.184748
H110  H     H_    0.901589 0.846012 0.065860 0.141795
H111  H     H_    0.142003 0.115778 0.920132 0.171434
H112  H     H_    0.132052 0.189352 0.002309 0.117972
N1    N     N_1   0.945461 0.992674 0.923628 -0.306195
N2    N     N_1   0.254092 0.187390 0.162405 -0.277462
N3    N     N_1   0.448074 0.462588 0.919788 -0.294221
N4    N     N_1   0.728143 0.691833 0.158420 -0.298704
O1    O     O_R   0.787540 0.042690 0.170470 -0.530077
O2    O     O_R   0.454130 0.051100 0.669160 -0.529096
O3    O     O_R   0.045870 0.551100 0.330840 -0.529793
O4    O     O_R   0.954130 0.551100 0.669160 -0.529017
O5    O     O_R   0.681340 0.959300 0.325510 -0.507034
O6    O     O_R   0.318660 0.959300 0.674490 -0.519328
O7    O     O_R   0.181340 0.459300 0.325510 -0.507182
O8    O     O_R   0.818660 0.459300 0.674490 -0.519484
O9    O     O_3   0.667880 0.167870 0.250070 -0.279075
O10   O     O_3   0.332120 0.167870 0.749930 -0.293871
O11   O     O_3   0.167880 0.667870 0.250070 -0.283890
O12   O     O_R   0.212460 0.042690 0.829530 -0.539893
O13   O     O_3   0.832120 0.667870 0.749930 -0.291585
O14   O     O_R   0.765660 0.292160 0.175050 -0.523211
O15   O     O_R   0.234340 0.292160 0.824950 -0.519135
O16   O     O_R   0.265660 0.792160 0.175050 -0.536684
O17   O     O_R   0.734340 0.792160 0.824950 -0.521473
O18   O     O_R   0.670190 0.408980 0.168550 -0.509391
O19   O     O_R   0.329810 0.408980 0.831450 -0.516320
O20   O     O_R   0.170190 0.908980 0.168550 -0.516353
O21   O     O_R   0.829810 0.908980 0.831450 -0.513869
O22   O     O_R   0.556580 0.251450 0.175160 -0.516739
O23   O     O_R   0.287540 0.542690 0.170470 -0.534918
O24   O     O_R   0.443420 0.251450 0.824840 -0.476058
O25   O     O_R   0.056580 0.751450 0.175160 -0.524000
O26   O     O_R   0.943420 0.751450 0.824840 -0.485883
O27   O     O_R   0.545920 0.049510 0.170320 -0.536241
O28   O     O_R   0.454080 0.049510 0.829680 -0.521802
O29   O     O_R   0.045920 0.549510 0.170320 -0.534958
O30   O     O_R   0.954080 0.549510 0.829680 -0.519592
O31   O     O_R   0.681390 0.957840 0.176710 -0.474843
O32   O     O_R   0.318610 0.957840 0.823290 -0.522810
O33   O     O_R   0.181390 0.457840 0.176710 -0.471478
O34   O     O_R   0.712460 0.542690 0.829530 -0.535261
O35   O     O_R   0.818610 0.457840 0.823290 -0.522795
O36   O     O_R   0.787500 0.044280 0.330990 -0.544738
O37   O     O_R   0.212500 0.044280 0.669010 -0.521610
O38   O     O_R   0.287500 0.544280 0.330990 -0.541803
O39   O     O_R   0.712500 0.544280 0.669010 -0.521048
O40   O     O_R   0.765610 0.293630 0.323860 -0.520872
O41   O     O_R   0.234390 0.293630 0.676140 -0.506583
O42   O     O_R   0.265610 0.793630 0.323860 -0.519127
O43   O     O_R   0.734390 0.793630 0.676140 -0.507055
O44   O     O_R   0.670140 0.410570 0.329080 -0.513339
O45   O     O_R   0.556540 0.252920 0.323970 -0.519596
O46   O     O_R   0.329860 0.410570 0.670920 -0.545285
O47   O     O_R   0.170140 0.910570 0.329080 -0.512203
O48   O     O_R   0.829860 0.910570 0.670920 -0.545561
O49   O     O_R   0.443460 0.252920 0.676030 -0.500346
O50   O     O_R   0.056540 0.752920 0.323970 -0.519883
O51   O     O_R   0.943460 0.752920 0.676030 -0.501240
O52   O     O_R   0.545870 0.051100 0.330840 -0.529937

loop_
_geom_bond_atom_site_label_1
_geom_bond_atom_site_label_2
_ccdc_geom_bond_type
C99   C103  A    
C105  C110  A    
C85   H35   S    
C55   C59   A    
C107  C112  A    
C19   C20   S    
C76   C79   A    
C136  C140  A    
C21   C110  S    
C22   H73   S    
C130  H22   S    
C135  C139  A    
C27   H85   S    
C17   C107  S    
C9    H41   S    
Cr6   O42   S    
Cr2   O28   S    
C6    H36   S    
C100  C104  A    
Cr8   O9    S    
C133  O39   A    
C98   H17   S    
C26   H87   S    
C84   C136  S    
C112  C129  S    
C81   O22   A    
C75   O21   A    
Cr8   O44   S    
C41   H4    S    
C64   O20   A    
C4    H1    S    
C133  O8    A    
Cr8   O18   S    
C21   C22   S    
Cr9   O19   S    
C1    O18   A    
C32   H104  S    
C45   C47   S    
C25   H78   S    
C122  O46   A    
C33   H103  S    
C39   H109  S    
C40   H106  S    
C72   C73   A    
C98   C102  A    
C82   C134  S    
C43   C44   S    
Cr2   O2    S    
C128  O51   A    
C10   H50   S    
C68   C116  S    
C4    C135  A    
C47   H12   S    
C60   C65   A    
C23   H83   S    
C24   H26   S    
C118  O23   A    
C116  O1    A    
C108  C140  A    
C126  O2    A    
C18   H64   S    
C19   H72   S    
C48   C70   A    
C42   H111  S    
C57   C61   A    
C6    C7    A    
C59   C63   A    
C101  C122  S    
Cr4   O8    S    
C100  C123  S    
C94   H102  S    
C30   C31   S    
C43   C66   S    
C123  O42   A    
Cr1   O14   S    
Cr12  O9    S    
C91   C113  A    
C26   C35   S    
C48   C52   A    
C88   C89   A    
C49   C71   A    
Cr4   O13   S    
C44   H7    S    
C73   C77   A    
C103  C107  A    
C78   C125  S    
C27   H86   S    
C38   C62   S    
C78   C87   A    
C129  O36   A    
C90   C94   A    
C15   H61   S    
C40   H108  S    
Cr9   O46   S    
C66   C70   A    
C28   C46   S    
C74   C76   A    
Cr3   O3    S    
C15   C106  S    
C30   C48   S    
C16   H57   S    
Cr4   O4    S    
C125  O52   A    
C121  O44   A    
C53   O19   A    
C127  O50   A    
C92   C96   A    
C30   H99   S    
C31   H97   S    
C8    H43   S    
Cr12  O31   S    
Cr10  O11   S    
C72   C78   A    
C14   H52   S    
C56   C64   S    
C92   H80   S    
C102  C121  S    
C110  C114  A    
C120  O35   A    
C108  C130  A    
C74   H33   S    
C55   C75   S    
C77   C85   A    
C127  O3    A    
C128  O4    A    
C18   H62   S    
Cr10  O20   S    
C10   H49   S    
C106  C111  A    
C19   C109  S    
C12   H55   S    
C52   C57   A    
C39   C40   S    
C46   C51   A    
C122  O41   A    
C33   H100  S    
C15   H60   S    
C2    H23   S    
Cr6   O23   S    
C64   O16   A    
Cr9   O49   S    
Cr8   O22   S    
C17   C18   S    
C28   H94   S    
C3    C119  A    
C27   H84   S    
Cr4   O35   S    
C108  H20   S    
C123  O47   A    
C20   H67   S    
C31   H96   S    
Cr5   O15   S    
Cr6   O16   S    
Cr5   O37   S    
C63   C68   A    
C86   H18   S    
C16   H59   S    
C132  O38   A    
C126  O49   A    
C22   H74   S    
Cr1   O40   S    
C23   C111  S    
C6    C137  A    
C50   H27   S    
C11   H46   S    
C7    C136  A    
C70   C118  S    
C45   H16   S    
C32   C49   S    
C10   C11   S    
C91   C95   A    
Cr7   O17   S    
C43   H10   S    
C26   H88   S    
C4    C5    A    
Cr7   O43   S    
C96   H13   S    
C97   C139  A    
C17   H66   S    
Cr6   O11   S    
C99   C124  S    
C58   C62   A    
Cr1   O36   S    
C44   H6    S    
C41   C42   S    
C34   N1    T    
C129  O5    A    
Cr2   O10   S    
C17   H65   S    
C88   H38   S    
C26   C27   S    
C28   C29   S    
C117  O12   A    
Cr12  O5    S    
C12   C105  S    
C84   O26   A    
C80   C89   A    
C18   H63   S    
C116  O31   A    
C45   C67   S    
C29   H90   S    
C81   C135  S    
C3    C137  A    
Cr1   O1    S    
C47   H11   S    
C131  O37   A    
Cr9   O24   S    
C74   C80   A    
C96   C101  A    
Cr3   O7    S    
C114  C132  S    
C120  O34   A    
C79   C88   A    
C53   O15   A    
C24   C97   A    
Cr12  O27   S    
C19   H71   S    
C52   H29   S    
C131  O6    A    
C42   H112  S    
C93   H91   S    
C23   H82   S    
C47   H14   S    
C53   C57   S    
C95   C100  A    
C115  C133  S    
C16   H56   S    
C132  O7    A    
C56   C60   A    
C118  O33   A    
C12   H54   S    
C21   H77   S    
C75   O17   A    
Cr11  O51   S    
Cr12  O52   S    
C82   O24   A    
C41   H5    S    
C83   O29   A    
C34   C59   S    
C44   H8    S    
C83   C137  S    
Cr3   O29   S    
Cr10  O47   S    
C21   H76   S    
C25   H79   S    
C9    H42   S    
Cr10  O25   S    
C72   H31   S    
C39   H110  S    
C95   H2    S    
C32   C33   S    
C42   H3    S    
C119  H21   S    
C1    O14   A    
C65   C69   A    
C10   C104  S    
C2    C130  A    
C29   H92   S    
C8    H44   S    
C67   C71   A    
C8    C103  S    
C71   C120  S    
C138  C139  A    
Cr5   O41   S    
Cr6   O38   S    
Cr2   O32   S    
C14   H53   S    
C77   C126  S    
C15   C16   S    
C13   H24   S    
C79   C128  S    
Cr11  O26   S    
Cr5   O10   S    
C90   C112  A    
Cr11  O13   S    
C117  O32   A    
C62   C67   A    
C124  O43   A    
C35   C68   A    
C32   H105  S    
C93   C115  A    
C104  C109  A    
Cr7   O13   S    
C49   C54   A    
Cr7   O39   S    
C51   C56   A    
C37   N3    T    
C124  O48   A    
C38   N4    T    
C46   C69   A    
Cr8   O45   S    
C11   H48   S    
C61   C66   A    
C8    C9    S    
C13   C86   A    
C54   H30   S    
C91   H69   S    
C9    H40   S    
Cr2   O6    S    
C109  C113  A    
C87   H37   S    
Cr7   O34   S    
C25   H81   S    
C20   H68   S    
C31   H95   S    
C40   H107  S    
C84   O30   A    
C85   C87   A    
C101  C105  A    
C5    C134  A    
C125  O45   A    
C90   H58   S    
C73   H32   S    
Cr3   O33   S    
C41   C65   S    
C22   H75   S    
C30   H98   S    
C13   C24   A    
Cr11  O21   S    
C11   H45   S    
C14   H51   S    
C35   C50   A    
Cr3   O11   S    
C89   H39   S    
Cr9   O10   S    
C45   H15   S    
C5    H25   S    
C43   H9    S    
C12   C14   S    
C121  O40   A    
Cr11  O48   S    
Cr5   O12   S    
C51   H28   S    
C76   H34   S    
C54   C58   A    
C29   H89   S    
C113  C131  S    
C36   N2    T    
C36   C60   S    
C134  C138  A    
C37   C61   S    
C2    C119  A    
C80   C127  S    
Cr10  O50   S    
C39   C63   S    
C50   C55   A    
C97   H19   S    
C33   H101  S    
C81   O27   A    
Cr1   O9    S    
C82   O28   A    
C1    C58   S    
C83   O25   A    
C94   C99   A    
C69   C117  S    
C102  C106  A    
C28   H93   S    
C23   C25   S    
C7    H47   S    
C86   C138  A    
Cr4   O30   S    
C20   H70   S    
C111  C115  A    
C3    C140  A    
C92   C114  A    
C93   C98   A    
