data_mof_unit_16667.cif
_audit_creation_date              2012-12-11T16:05:09-0500
_audit_creation_method            fapswitch 2.2
_symmetry_space_group_name_H-M    P1
_symmetry_Int_Tables_number       1
_space_group_crystal_system       triclinic
_cell_length_a                    10.647014
_cell_length_b                    10.614809
_cell_length_c                    16.849014
_cell_angle_alpha                 99.138331
_cell_angle_beta                  99.227654
_cell_angle_gamma                 61.719472
_cell_volume                      1647.68380569

loop_
_atom_site_label
_atom_site_type_symbol
_atom_type_description
_atom_site_fract_x
_atom_site_fract_y
_atom_site_fract_z
_atom_type_partial_charge
C1    C     C_R   0.380268 0.710656 0.386188 0.547318
C2    C     C_3   0.438718 0.651111 0.235002 -0.153368
C3    C     C_3   0.367887 0.756170 0.307238 0.040204
C4    C     C_R   0.367374 0.343258 0.359955 0.585257
C5    C     C_3   0.412313 0.865402 0.287430 -0.124855
C6    C     C_3   0.267877 0.935099 0.235695 -0.128972
C7    C     C_3   0.223500 0.826412 0.256591 -0.111658
C8    C     C_3   0.293251 0.721983 0.183706 -0.118833
C9    C     C_3   0.336967 0.830469 0.163307 0.066948
C10   C     C_3   0.455498 0.255962 0.774485 0.021205
C11   C     C_3   0.398411 0.397691 0.737714 0.084659
C12   C     C_3   0.753899 0.284288 0.239157 -0.156782
C13   C     C_3   0.336682 0.333770 0.662623 0.036997
C14   C     C_3   0.395033 0.191383 0.699669 -0.166251
C15   C     C_3   0.251679 0.252021 0.737141 -0.148461
C16   C     C_R   0.728206 0.402661 0.389690 0.521986
C17   C     C_3   0.193191 0.394816 0.698414 -0.138771
C18   C     C_3   0.255198 0.458070 0.774685 -0.112479
C19   C     C_3   0.314829 0.316226 0.811467 0.043701
C20   C     C_1   0.853911 0.325470 0.704428 -0.026692
C21   C     C_1   0.898993 0.291847 0.772150 -0.036506
C22   C     C_1   0.318679 0.852271 0.703989 -0.024063
C23   C     C_3   0.799273 0.356028 0.316602 0.028575
C24   C     C_1   0.281630 0.896770 0.771072 -0.031291
C25   C     C_R   0.960015 0.284112 0.103026 0.532059
C26   C     C_R   0.292300 0.261804 0.122466 0.529416
C27   C     C_R   0.297483 0.885596 0.085880 0.576254
C28   C     C_R   0.351865 0.782718 0.624655 0.571477
C29   C     C_R   0.944483 0.274874 0.856093 0.549662
C30   C     C_R   0.306811 0.292402 0.891158 0.575451
C31   C     C_R   0.245730 0.944026 0.852596 0.527074
C32   C     C_R   0.367135 0.345614 0.584953 0.592228
C33   C     C_R   0.783090 0.375343 0.627544 0.573429
C34   C     C_3   0.957165 0.258139 0.306077 0.023931
C35   C     C_1   0.327483 0.316827 0.277792 -0.040773
C36   C     C_1   0.307411 0.292649 0.206791 -0.076424
C37   C     C_3   0.913842 0.184974 0.227276 -0.152092
C38   C     C_2   0.603411 0.178266 0.815909 0.281074
C39   C     C_2   0.064953 0.181102 0.372851 0.231294
C40   C     C_2   0.611899 0.748005 0.183162 0.218612
C41   C     C_3   0.958503 0.371020 0.259303 -0.102367
C42   C     C_3   0.799024 0.469000 0.270466 -0.115331
C43   C     C_3   0.753537 0.397550 0.192091 -0.080357
C44   C     C_3   0.912079 0.300523 0.181522 0.027478
C45   C     C_3   0.480123 0.762767 0.213442 -0.002482
Cr1   Cr    Cr6+3 0.608340 0.611040 0.520430 1.033934
Cr2   Cr    Cr6+3 0.287650 0.601120 0.489350 1.038265
Cr3   Cr    Cr6+3 0.604040 0.287870 0.490280 1.027666
Cr4   Cr    Cr6+3 0.054020 0.052700 0.970850 1.053712
Cr5   Cr    Cr6+3 0.059230 0.375120 0.993390 1.053499
Cr6   Cr    Cr6+3 0.374950 0.061200 0.992340 1.072871
H1    H     H_    0.668606 0.250316 0.232845 0.137144
H2    H     H_    0.039995 0.409644 0.266567 0.130958
H3    H     H_    0.755179 0.583134 0.294971 0.120219
H4    H     H_    0.671851 0.449378 0.142014 0.194456
H5    H     H_    0.498909 0.534269 0.239619 0.091673
H6    H     H_    0.460325 0.923610 0.331848 0.147867
H7    H     H_    0.681599 0.078895 0.787111 0.096325
H8    H     H_    0.052902 0.102628 0.400742 0.124652
H9    H     H_    0.679770 0.788024 0.221655 0.092855
H10   H     H_    0.203825 0.052316 0.232011 0.112729
H11   H     H_    0.117819 0.852750 0.275364 0.126367
H12   H     H_    0.245177 0.663831 0.139277 0.147590
H13   H     H_    0.451182 0.082458 0.667806 0.128140
H14   H     H_    0.190962 0.192081 0.739344 0.087917
H15   H     H_    0.085798 0.450291 0.664981 0.142952
H16   H     H_    0.199142 0.566449 0.807127 0.152888
H17   H     H_    0.959621 0.068830 0.206582 0.124490
I1    I     I_    0.515075 0.517174 0.759144 -0.252751
O1    O     O_R   0.751220 0.499230 0.435170 -0.514685
O2    O     O_R   0.412990 0.180750 0.091610 -0.485287
O3    O     O_R   0.366620 0.943130 0.065760 -0.481212
O4    O     O_R   0.477220 0.727600 0.436870 -0.510935
O5    O     O_R   0.160510 0.906330 0.879210 -0.500550
O6    O     O_R   0.930190 0.179050 0.889450 -0.451463
O7    O     O_R   0.909140 0.398170 0.896710 -0.452409
O8    O     O_R   0.186190 0.363460 0.918830 -0.526247
O9    O     O_R   0.401670 0.173200 0.913310 -0.490531
O10   O     O_R   0.356120 0.936130 0.900470 -0.463721
O11   O     O_3   0.162740 0.163010 0.985530 -0.363744
O12   O     O_R   0.297880 0.469080 0.560050 -0.483651
O13   O     O_R   0.258650 0.745120 0.411470 -0.520644
O14   O     O_R   0.297070 0.467240 0.395960 -0.508224
O15   O     O_R   0.488830 0.252610 0.387790 -0.515809
O16   O     O_R   0.724400 0.302390 0.420980 -0.512051
O17   O     O_R   0.752100 0.501210 0.612190 -0.492327
O18   O     O_R   0.478040 0.729440 0.600970 -0.476450
O19   O     O_R   0.259530 0.747110 0.588490 -0.501857
O20   O     O_2   0.637220 0.228130 0.881199 -0.436693
O21   O     O_2   0.166355 0.205829 0.396029 -0.520026
O22   O     O_2   0.643152 0.692134 0.115324 -0.467959
O23   O     O_R   0.489720 0.254590 0.564810 -0.508865
O24   O     O_R   0.725220 0.304230 0.585080 -0.486420
O25   O     O_3   0.500010 0.500010 0.500020 -0.286055
O26   O     O_R   0.171830 0.913880 0.057510 -0.534378
O27   O     O_R   0.940690 0.186050 0.054730 -0.466819
O28   O     O_R   0.920470 0.405720 0.075010 -0.455009
O29   O     O_R   0.196690 0.370460 0.084120 -0.509874

loop_
_geom_bond_atom_site_label_1
_geom_bond_atom_site_label_2
_ccdc_geom_bond_type
C11   C18   S    
C9    C45   S    
C40   H9    S    
C34   C37   S    
C41   C42   S    
C13   C32   S    
C27   O26   A    
C35   C36   T    
C43   C44   S    
C6    C9    S    
C7    C8    S    
C29   O7    A    
C15   C19   S    
C32   O12   A    
C38   O20   D    
C17   H15   S    
C23   C42   S    
Cr3   O25   S    
C6    H10   S    
C12   C43   S    
C3    C7    S    
C4    O15   A    
C5    C6    S    
C15   H14   S    
C37   H17   S    
C26   C36   S    
C18   C19   S    
Cr2   O13   S    
C12   C37   S    
Cr6   O11   S    
C38   H7    S    
C30   O8    A    
C8    C9    S    
Cr1   O25   S    
C28   O19   A    
Cr4   O6    S    
Cr2   O14   S    
C39   O21   D    
C4    C35   S    
C39   H8    S    
Cr4   O27   S    
C22   C28   S    
C13   C14   S    
C26   O2    A    
C34   C41   S    
Cr6   O2    S    
C25   C44   S    
C12   H1    S    
C2    C45   S    
C40   C45   S    
Cr5   O29   S    
Cr1   O1    S    
Cr3   O24   S    
C34   C39   S    
C16   O1    A    
C10   C14   S    
C31   O5    A    
C1    O13   A    
C21   C29   S    
Cr3   O15   S    
C33   O24   A    
C1    C3    S    
C33   O17   A    
C7    H11   S    
Cr5   O7    S    
C12   C23   S    
C10   C19   S    
C23   C34   S    
C14   H13   S    
C28   O18   A    
C17   C18   S    
Cr4   O26   S    
C41   H2    S    
C26   O29   A    
C20   C33   S    
C43   H4    S    
C16   C23   S    
Cr3   O23   S    
C16   O16   A    
C41   C44   S    
C22   C24   T    
C42   C43   S    
Cr5   O8    S    
C9    C27   S    
Cr1   O18   S    
C25   O28   A    
C15   C17   S    
Cr5   O28   S    
C14   C15   S    
Cr3   O16   S    
C2    C8    S    
C3    C5    S    
Cr5   O11   S    
C11   I1    S    
C31   O10   A    
C6    C7    S    
C29   O6    A    
C5    H6    S    
Cr4   O11   S    
C13   C17   S    
C10   C38   S    
C1    O4    A    
Cr2   O19   S    
C37   C44   S    
C2    C3    S    
C18   H16   S    
C24   C31   S    
C2    H5    S    
C42   H3    S    
C11   C13   S    
C32   O23   A    
C4    O14   A    
C5    C45   S    
Cr2   O25   S    
Cr2   O12   S    
C40   O22   D    
Cr6   O10   S    
Cr6   O9    S    
C10   C11   S    
C8    H12   S    
C30   O9    A    
C20   C21   T    
C25   O27   A    
Cr6   O3    S    
Cr4   O5    S    
C19   C30   S    
Cr1   O4    S    
C27   O3    A    
Cr1   O17   S    
