data_mof_unit_50317.cif
_audit_creation_date              2012-10-26T20:38:54-0400
_audit_creation_method            fapswitch 2.2
_symmetry_space_group_name_H-M    P1
_symmetry_Int_Tables_number       1
_space_group_crystal_system       triclinic
_cell_length_a                    23.204608
_cell_length_b                    12.829452
_cell_length_c                    11.958235
_cell_angle_alpha                 99.16477
_cell_angle_beta                  95.414499
_cell_angle_gamma                 96.387889
_cell_volume                      3469.86351214

loop_
_atom_site_label
_atom_site_type_symbol
_atom_type_description
_atom_site_fract_x
_atom_site_fract_y
_atom_site_fract_z
_atom_type_partial_charge
C1    C     C_R   0.507474 0.302076 0.479862 0.526076
C2    C     C_R   0.710817 0.605049 0.556439 0.027171
C3    C     C_R   0.221282 0.463401 0.494654 0.031635
C4    C     C_R   0.770683 0.598417 0.576583 0.036762
C5    C     C_R   0.212065 0.565157 0.469549 0.202510
C6    C     C_R   0.795594 0.532947 0.492792 0.165186
C7    C     C_R   0.480955 0.810132 0.527798 -0.010776
C8    C     C_R   0.520449 0.190820 0.469959 0.007592
C9    C     C_R   0.509459 0.018156 0.349882 -0.071003
C10   C     C_R   0.490664 0.983735 0.646571 -0.048115
C11   C     C_R   0.524075 0.128234 0.362554 -0.027359
C12   C     C_R   0.493029 0.698334 0.519773 0.540893
C13   C     C_R   0.477155 0.873494 0.634701 -0.028362
C14   C     C_R   0.522991 0.141304 0.567543 0.257362
C15   C     C_R   0.478621 0.859242 0.429195 0.229863
C16   C     C_R   0.389979 0.495174 0.497770 0.500957
C17   C     C_R   0.609482 0.503444 0.501358 0.563867
C18   C     C_R   0.504859 0.031440 0.553533 -0.004409
C19   C     C_R   0.496397 0.969481 0.443186 -0.020114
C20   C     C_R   0.426583 0.464311 0.032493 -0.067311
C21   C     C_R   0.572989 0.544245 0.970166 -0.052985
C22   C     C_R   0.436631 0.443432 0.143330 0.384522
C23   C     C_R   0.259766 0.639902 0.460695 0.293789
C24   C     C_R   0.562726 0.560672 0.857503 0.380237
C25   C     C_R   0.533826 0.528870 0.154913 0.357929
C26   C     C_R   0.466818 0.471992 0.847251 0.368574
C27   C     C_R   0.527231 0.518665 0.032356 -0.098745
C28   C     C_R   0.472879 0.486664 0.970122 -0.098767
C29   C     C_R   0.888653 0.655088 0.523693 0.414899
C30   C     C_R   0.118737 0.551346 0.355576 0.457372
C31   C     C_R   0.874323 0.520839 0.363685 0.508300
C32   C     C_R   0.131499 0.644544 0.547256 0.464211
C33   C     C_R   0.935293 0.533399 0.351131 0.000260
C34   C     C_R   0.760381 0.433852 0.446876 0.284944
C35   C     C_R   0.070948 0.650904 0.544883 -0.001776
C36   C     C_R   0.973077 0.598367 0.442148 -0.109648
C37   C     C_R   0.034193 0.602759 0.444214 -0.118233
C38   C     C_R   0.949791 0.663573 0.528295 0.006703
C39   C     C_R   0.058141 0.557916 0.346509 -0.012295
C40   C     C_R   0.960195 0.487519 0.252531 0.241384
C41   C     C_R   0.045653 0.704413 0.637854 0.215928
C42   C     C_R   0.020393 0.516312 0.245222 0.239191
C43   C     C_R   0.988298 0.729413 0.618191 0.194712
C44   C     C_3   0.286772 0.317642 0.509914 -0.292419
C45   C     C_R   0.316233 0.613745 0.477274 -0.094135
C46   C     C_3   0.314180 0.258496 0.412634 -0.367196
C47   C     C_3   0.690174 0.713310 0.579738 -0.213714
C48   C     C_3   0.717753 0.788908 0.507306 -0.392827
C49   C     C_3   0.169175 0.391056 0.521896 -0.266906
C50   C     C_3   0.173745 0.383533 0.648749 -0.377460
C51   C     C_3   0.795796 0.607701 0.700880 -0.238876
C52   C     C_3   0.789217 0.499598 0.740312 -0.366639
C53   C     C_3   0.449677 0.829298 0.730622 -0.260684
C54   C     C_3   0.491470 0.845160 0.840296 -0.371671
C55   C     C_3   0.546455 0.174324 0.262622 -0.261433
C56   C     C_R   0.699544 0.425259 0.452650 -0.095335
C57   C     C_3   0.598837 0.123139 0.220996 -0.421389
C58   C     C_R   0.327160 0.511652 0.493257 0.024759
C59   C     C_R   0.673756 0.512240 0.503060 0.019898
C60   C     C_R   0.278849 0.432575 0.498488 0.035765
Cu1   Cu    Cu3+1 0.504210 0.507730 0.615930 1.140791
Cu2   Cu    Cu3+1 0.495790 0.492270 0.384070 1.149704
H1    H     H_    0.382044 0.454035 0.992914 0.225234
H2    H     H_    0.593568 0.756669 0.351033 0.363170
H3    H     H_    0.688413 0.764512 0.908014 0.370982
H4    H     H_    0.313784 0.231716 0.083753 0.382014
H5    H     H_    0.005392 0.528497 0.939853 0.390512
H6    H     H_    0.049599 0.950687 0.712551 0.355138
H7    H     H_    0.303977 0.898703 0.382670 0.380848
H8    H     H_    0.770978 0.156354 0.460395 0.383090
H9    H     H_    0.289150 0.261612 0.329717 0.226833
H10   H     H_    0.359961 0.292686 0.415558 0.194900
H11   H     H_    0.313841 0.173702 0.422182 0.163709
H12   H     H_    0.617526 0.557739 0.009936 0.234039
H13   H     H_    0.310616 0.314776 0.592337 0.215374
H14   H     H_    0.245640 0.266896 0.512333 0.157638
H15   H     H_    0.765074 0.810395 0.535565 0.224130
H16   H     H_    0.711513 0.751548 0.415857 0.221062
H17   H     H_    0.696901 0.863182 0.516818 0.159607
H18   H     H_    0.642425 0.707138 0.558320 0.215636
H19   H     H_    0.701494 0.749174 0.670973 0.198243
H20   H     H_    0.213246 0.348876 0.676417 0.184787
H21   H     H_    0.175407 0.464052 0.700274 0.227215
H22   H     H_    0.134819 0.332648 0.666162 0.183573
H23   H     H_    0.352676 0.673840 0.475989 0.173042
H24   H     H_    0.126864 0.420009 0.502460 0.163502
H25   H     H_    0.163650 0.311433 0.467356 0.169332
H26   H     H_    0.743688 0.459528 0.719894 0.221183
H27   H     H_    0.818538 0.447090 0.697719 0.189268
H28   H     H_    0.801427 0.510740 0.833889 0.206719
H29   H     H_    0.842836 0.637918 0.715981 0.219160
H30   H     H_    0.773722 0.664348 0.756957 0.192212
H31   H     H_    0.472601 0.728863 0.131823 0.359053
H32   H     H_    0.618321 0.162705 0.833722 0.376438
H33   H     H_    0.532271 0.811692 0.824106 0.237662
H34   H     H_    0.672368 0.350469 0.418793 0.148681
H35   H     H_    0.502277 0.931040 0.876833 0.166088
H36   H     H_    0.470617 0.804243 0.904143 0.155092
H37   H     H_    0.411357 0.871281 0.749245 0.177635
H38   H     H_    0.431670 0.744130 0.705619 0.178158
H39   H     H_    0.633395 0.127805 0.293251 0.195862
H40   H     H_    0.585912 0.038730 0.180434 0.172607
H41   H     H_    0.617212 0.166368 0.156313 0.179640
H42   H     H_    0.510759 0.163106 0.191336 0.202394
H43   H     H_    0.562577 0.260237 0.286137 0.185527
H44   H     H_    0.509637 0.970708 0.266780 0.199487
H45   H     H_    0.488018 0.032548 0.728087 0.197367
H46   H     H_    0.862994 0.239984 0.144800 0.391241
H47   H     H_    0.126522 0.619448 0.878159 0.402622
H48   H     H_    0.401692 0.319518 0.596349 0.329884
N1    N     N_R   0.854537 0.565839 0.462768 -0.392190
N2    N     N_R   0.153354 0.592050 0.455384 -0.397436
N3    N     N_R   0.510550 0.519360 0.790130 -0.256058
N4    N     N_R   0.489450 0.480640 0.209870 -0.257214
O1    O     O_R   0.502990 0.354470 0.582000 -0.425571
O2    O     O_2   0.142606 0.497950 0.268944 -0.370086
O3    O     O_2   0.835019 0.472071 0.276138 -0.343212
O4    O     O_2   0.168803 0.690231 0.639526 -0.361513
O5    O     O_2   0.878034 0.432145 0.071237 -0.195195
O6    O     O_2   0.959997 0.327501 0.072376 -0.192738
O7    O     O_3   0.883551 0.294253 0.208512 -0.414058
O8    O     O_2   0.123778 0.812658 0.810236 -0.164195
O9    O     O_2   0.032873 0.727689 0.863437 -0.181393
O10   O     O_3   0.109311 0.606941 0.797415 -0.518017
O11   O     O_2   0.383867 0.305991 0.855246 -0.201688
O12   O     O_R   0.497010 0.645530 0.418000 -0.406201
O13   O     O_2   0.356409 0.442178 0.749123 -0.337720
O14   O     O_3   0.417463 0.293522 0.664114 -0.465477
O15   O     O_2   0.647665 0.548676 0.234719 -0.270873
O16   O     O_2   0.615040 0.699719 0.158650 -0.265947
O17   O     O_3   0.593580 0.680785 0.358154 -0.509256
O18   O     O_2   0.664716 0.573245 0.774716 -0.318776
O19   O     O_2   0.600511 0.705753 0.731510 -0.332213
O20   O     O_3   0.653444 0.728045 0.933827 -0.495071
O21   O     O_2   0.405429 0.278710 0.248129 -0.312521
O22   O     O_2   0.336845 0.412798 0.237307 -0.275954
O23   O     O_R   0.495870 0.341410 0.386200 -0.499781
O24   O     O_3   0.344847 0.278560 0.057877 -0.465910
O25   O     O_2   0.091268 0.618958 0.120647 -0.193600
O26   O     O_2   0.071079 0.424951 0.067049 -0.180933
O27   O     O_3   0.989861 0.538973 0.014645 -0.438428
O28   O     O_2   0.938194 0.909988 0.622714 -0.210390
O29   O     O_2   0.928221 0.815688 0.783943 -0.174836
O30   O     O_3   0.027468 0.925465 0.772130 -0.398219
O31   O     O_2   0.201308 0.759113 0.335897 -0.196052
O32   O     O_2   0.235339 0.836188 0.535230 -0.232310
O33   O     O_3   0.311757 0.825697 0.390542 -0.471505
O34   O     O_R   0.504130 0.658590 0.613800 -0.484168
O35   O     O_2   0.774868 0.269148 0.289826 -0.221696
O36   O     O_2   0.854170 0.325176 0.447800 -0.228036
O37   O     O_3   0.757150 0.225057 0.488406 -0.523447
O38   O     O_2   0.405097 0.691361 0.302406 -0.232372
O39   O     O_2   0.406750 0.863119 0.239910 -0.251536
O40   O     O_3   0.494713 0.759429 0.207011 -0.527828
O41   O     O_2   0.603967 0.300918 0.680994 -0.254121
O42   O     O_2   0.520662 0.247245 0.780660 -0.242075
O43   O     O_3   0.601090 0.123104 0.757821 -0.525651
O44   O     O_R   0.421440 0.506500 0.597920 -0.499077
O45   O     O_R   0.578560 0.493500 0.402080 -0.453616
O46   O     O_R   0.414320 0.493440 0.402120 -0.426813
O47   O     O_R   0.585680 0.506560 0.597880 -0.412474
O48   O     O_2   0.863470 0.736984 0.573310 -0.438664
S1    S     S_3+6 0.920258 0.384795 0.145629 0.138905
S2    S     S_3+6 0.789318 0.312198 0.414958 0.060702
S3    S     S_3+6 0.443746 0.790783 0.292901 0.030768
S4    S     S_3+6 0.562379 0.208367 0.699630 0.035228
S5    S     S_3+6 0.078121 0.716767 0.781739 0.118749
S6    S     S_3+6 0.405016 0.379163 0.777360 0.064250
S7    S     S_3+6 0.598325 0.614799 0.227472 0.057919
S8    S     S_3+6 0.620799 0.642192 0.818182 0.000846
S9    S     S_3+6 0.380577 0.353160 0.177944 0.041890
S10   S     S_3+6 0.045357 0.524327 0.109647 0.141727
S11   S     S_3+6 0.968573 0.846525 0.700131 0.138264
S12   S     S_3+6 0.250111 0.767933 0.430285 0.084110

loop_
_geom_bond_atom_site_label_1
_geom_bond_atom_site_label_2
_ccdc_geom_bond_type
C7    C13   A    
C34   C56   A    
C23   C45   A    
C16   O46   A    
C1    C8    S    
C6    N1    S    
C49   H25   S    
C52   H28   S    
H46   O7    S    
O38   S3    D    
C3    C49   S    
O33   S12   S    
C50   H22   S    
C23   S12   S    
C30   O2    S    
C53   C54   S    
C53   H37   S    
C15   C19   A    
C57   H40   S    
C26   S6    S    
C55   H43   S    
Cu1   O47   S    
C48   H17   S    
O15   S7    D    
C36   C37   A    
C35   C37   A    
Cu1   O34   S    
C10   C18   A    
Cu2   N4    S    
C34   S2    S    
C1    O23   A    
C12   O12   A    
O41   S4    D    
C58   C60   A    
O7    S1    S    
C41   S5    S    
C33   C36   A    
C18   C19   A    
C48   H16   S    
C44   H14   S    
C14   C18   A    
C31   O3    S    
O6    S1    D    
C51   H29   S    
O16   S7    D    
C9    C19   A    
O13   S6    D    
C10   H45   S    
C5    C23   A    
O30   S11   S    
Cu1   O1    S    
C31   C33   A    
O40   S3    S    
O21   S9    D    
C39   C42   A    
C24   S8    S    
C46   H10   S    
C22   S9    S    
O9    S5    D    
C3    C60   A    
C40   C42   A    
C21   C27   A    
H2    O17   S    
C24   N3    A    
O26   S10   D    
C41   C43   A    
C52   H27   S    
O18   S8    D    
C47   H18   S    
C17   O45   A    
C29   O48   S    
C44   C46   S    
C50   H21   S    
O28   S11   D    
C13   C53   S    
C53   H38   S    
C7    C12   S    
C57   H41   S    
C45   C58   A    
C33   C40   A    
C4    C51   S    
C16   O44   A    
C51   C52   S    
C32   C35   A    
C52   H26   S    
O11   S6    D    
C40   S1    S    
C4    C6    A    
O5    S1    D    
Cu2   O12   S    
C2    C59   A    
C20   C28   A    
C9    H44   S    
C55   H42   S    
O27   S10   S    
C6    C34   A    
C30   N2    A    
C48   H15   S    
C29   C38   A    
C44   H13   S    
C2    C4    A    
O19   S8    D    
C51   H30   S    
O10   S5    S    
C47   C48   S    
H4    O24   S    
O22   S9    D    
O42   S4    D    
C54   H33   S    
O25   S10   D    
C54   H35   S    
O35   S2    D    
C16   C58   S    
C9    C11   A    
C46   H9    S    
C17   O47   A    
C17   C59   S    
C20   C22   A    
C49   C50   S    
H32   O43   S    
C55   C57   S    
Cu1   N3    S    
H7    O33   S    
Cu2   O46   S    
C14   S4    S    
O29   S11   D    
C21   H12   S    
C27   C28   A    
C11   C55   S    
C50   H20   S    
C25   S7    S    
C56   H34   S    
O17   S7    S    
C8    C14   A    
O8    S5    D    
C32   N2    A    
O39   S3    D    
O24   S9    S    
C49   H24   S    
C29   N1    A    
C54   H36   S    
H8    O37   S    
C42   S10   S    
C32   O4    S    
C3    C5    A    
C10   C13   A    
H31   O40   S    
O43   S4    S    
H47   O10   S    
C5    N2    S    
C2    C47   S    
C25   C27   A    
C57   H39   S    
C26   C28   A    
C56   C59   A    
C45   H23   S    
C12   O34   A    
C20   H1    S    
C36   C38   A    
C26   N3    A    
C38   C43   A    
C37   C39   A    
C25   N4    A    
C43   S11   S    
C44   C60   S    
C8    C11   A    
O32   S12   D    
C7    C15   A    
C30   C39   A    
H6    O30   S    
H3    O20   S    
C47   H19   S    
Cu2   O23   S    
Cu1   Cu2   S    
C35   C41   A    
C22   N4    A    
O31   S12   D    
O37   S2    S    
O20   S8    S    
C21   C24   A    
O36   S2    D    
O14   S6    S    
C31   N1    A    
Cu2   O45   S    
C15   S3    S    
C1    O1    A    
Cu1   O44   S    
C46   H11   S    
H48   O14   S    
H5    O27   S    
