data_mof_unit_16557.cif
_audit_creation_date              2012-12-10T17:33:57-0500
_audit_creation_method            fapswitch 2.2
_symmetry_space_group_name_H-M    P1
_symmetry_Int_Tables_number       1
_space_group_crystal_system       triclinic
_cell_length_a                    10.651252
_cell_length_b                    11.995236
_cell_length_c                    12.852019
_cell_angle_alpha                 94.212788
_cell_angle_beta                  89.959038
_cell_angle_gamma                 86.182747
_cell_volume                      1633.9334056

loop_
_atom_site_label
_atom_site_type_symbol
_atom_type_description
_atom_site_fract_x
_atom_site_fract_y
_atom_site_fract_z
_atom_type_partial_charge
C1    C     C_R   0.499803 0.523188 0.700311 0.909171
C2    C     C_R   0.546329 0.459828 0.975380 0.012802
C3    C     C_R   0.456642 0.540221 0.024624 -0.138734
C4    C     C_R   0.742246 0.500059 0.501667 0.887620
C5    C     C_R   0.434714 0.540619 0.131580 0.448238
C6    C     C_R   0.582611 0.377945 0.139967 -0.462770
C7    C     C_R   0.606740 0.375969 0.033319 0.540343
C8    C     C_R   0.377021 0.952638 0.405881 -0.325834
C9    C     C_R   0.389433 0.836929 0.415705 0.033547
C10   C     C_R   0.552686 0.859024 0.538997 0.005204
C11   C     C_R   0.543681 0.976184 0.532148 0.045742
C12   C     C_3   0.121499 0.498166 0.504439 -0.127356
C13   C     C_R   0.456219 0.024305 0.462913 -0.020032
C14   C     C_R   0.449933 0.142937 0.455970 0.532599
C15   C     C_R   0.606657 0.161819 0.586844 -0.044006
C16   C     C_R   0.499073 0.477071 0.299695 0.992719
C17   C     C_R   0.619160 0.045789 0.593810 -0.324332
C18   C     C_R   0.257853 0.499765 0.502054 0.958183
C19   C     C_3   0.936790 0.379089 0.523882 0.263402
C20   C     C_3   0.080854 0.377492 0.521034 0.300794
C21   C     C_3   0.925075 0.531111 0.396250 -0.619019
C22   C     C_3   0.920757 0.584571 0.590618 -0.338382
C23   C     C_3   0.069007 0.537527 0.398664 0.146102
C24   C     C_3   0.878737 0.498751 0.503483 -0.031054
C25   C     C_3   0.065437 0.581838 0.594452 0.241100
C26   C     C_R   0.501177 0.461627 0.188176 -0.131623
C27   C     C_R   0.498583 0.540139 0.811984 -0.248546
C28   C     C_R   0.390813 0.619321 0.966736 -0.258289
C29   C     C_R   0.411446 0.620268 0.860301 0.416652
C30   C     C_R   0.572788 0.465347 0.869460 0.372587
H1    H     H_    0.906744 0.318345 0.459974 0.033721
H2    H     H_    0.319888 0.678686 0.002567 0.170192
H3    H     H_    0.721117 0.242048 0.037621 0.325696
H4    H     H_    0.286834 0.745543 0.847675 0.338318
H5    H     H_    0.704278 0.434362 0.763728 0.342956
H6    H     H_    0.361286 0.145826 0.324282 0.310491
H7    H     H_    0.898628 0.264295 0.616528 0.331050
H8    H     H_    0.664133 0.215540 0.635146 0.195428
H9    H     H_    0.304105 0.983962 0.355153 0.150192
H10   H     H_    0.686515 0.010870 0.647735 0.169506
H11   H     H_    0.328552 0.782503 0.371609 0.158374
H12   H     H_    0.093890 0.668136 0.583361 0.090592
H13   H     H_    0.136358 0.255188 0.605555 0.330457
H14   H     H_    0.896517 0.468885 0.333632 0.198415
H15   H     H_    0.098870 0.401025 0.305200 0.338731
H16   H     H_    0.883012 0.670574 0.575162 0.126824
H17   H     H_    0.195464 0.569570 0.699663 0.360645
H18   H     H_    0.880498 0.613977 0.377937 0.210207
H19   H     H_    0.088932 0.627038 0.394019 0.178517
H20   H     H_    0.632493 0.317627 0.186469 0.175298
H21   H     H_    0.619807 0.820908 0.591218 0.121183
H22   H     H_    0.115740 0.319317 0.453937 0.059757
H23   H     H_    0.881472 0.566031 0.667324 0.235018
H24   H     H_    0.370524 0.692933 0.165634 0.315161
N1    N     N_R   0.523380 0.207800 0.519350 -0.115980
N2    N     N_R   0.476620 0.792180 0.480650 -0.104856
O1    O     O_R   0.506240 0.421700 0.658830 -0.599502
O2    O     O_3   0.688551 0.293445 0.985381 -0.673684
O3    O     O_3   0.344458 0.695747 0.801559 -0.758521
O4    O     O_3   0.670519 0.397338 0.823231 -0.658272
O5    O     O_3   0.371574 0.196548 0.387387 -0.748020
O6    O     O_3   0.894187 0.347449 0.620683 -0.691270
O7    O     O_3   0.133007 0.338323 0.613523 -0.638138
O8    O     O_3   0.128137 0.477922 0.311308 -0.699123
O9    O     O_3   0.106414 0.551086 0.692974 -0.649752
O10   O     O_R   0.491240 0.609310 0.646410 -0.578505
O11   O     O_R   0.692710 0.406190 0.506230 -0.621543
O12   O     O_R   0.677700 0.593810 0.493810 -0.650122
O13   O     O_R   0.508760 0.390690 0.353590 -0.596381
O14   O     O_R   0.493760 0.578300 0.341170 -0.602553
O15   O     O_R   0.322300 0.406190 0.506190 -0.537871
O16   O     O_R   0.307290 0.593810 0.493770 -0.651478
O17   O     O_3   0.349209 0.617260 0.183011 -0.726886
Zn1   Zn    Zn3+2 0.510020 0.374730 0.508290 1.025008
Zn2   Zn    Zn3+2 0.489980 0.625270 0.491710 0.973894

loop_
_geom_bond_atom_site_label_1
_geom_bond_atom_site_label_2
_ccdc_geom_bond_type
C8    C13   A    
C27   C29   A    
C19   C20   S    
C19   H1    S    
H7    O6    S    
H13   O7    S    
O12   Zn2   S    
C12   C23   S    
H3    O2    S    
C28   C29   A    
C4    C24   S    
C23   H19   S    
C19   O6    S    
C21   H14   S    
C2    C7    A    
N1    Zn1   S    
C11   C17   A    
C29   O3    S    
C8    C9    A    
C22   C25   S    
C30   O4    S    
C8    H9    S    
C10   N2    A    
C7    O2    S    
C21   H18   S    
C14   N1    A    
N2    Zn2   S    
C13   C14   A    
C27   C30   A    
C16   C26   S    
O16   Zn2   S    
C10   H21   S    
C22   H23   S    
C18   O16   A    
C28   H2    S    
C16   O14   A    
C4    O12   A    
C14   O5    S    
H5    O4    S    
C17   H10   S    
C15   N1    A    
O1    Zn1   S    
C15   H8    S    
C1    O1    A    
C4    O11   A    
H24   O17   S    
C12   C20   S    
C1    O10   A    
C25   O9    S    
O13   Zn1   S    
C9    N2    A    
C6    H20   S    
C23   O8    S    
C22   H16   S    
C21   C23   S    
H4    O3    S    
C22   C24   S    
H6    O5    S    
C18   O15   A    
C15   C17   A    
C3    C28   A    
C16   O13   A    
C3    C5    A    
C25   H12   S    
O15   Zn1   S    
C6    C7    A    
H15   O8    S    
C9    H11   S    
C12   C25   S    
C2    C30   A    
C20   O7    S    
C2    C3    A    
C20   H22   S    
C11   C13   A    
C6    C26   A    
O10   Zn2   S    
C19   C24   S    
O11   Zn1   S    
C5    O17   S    
C10   C11   A    
C5    C26   A    
C21   C24   S    
C12   C18   S    
O14   Zn2   S    
C1    C27   S    
H17   O9    S    
