data_mof_unit_57918.cif
_audit_creation_date              2012-12-11T14:21:21-0500
_audit_creation_method            fapswitch 2.2
_symmetry_space_group_name_H-M    P1
_symmetry_Int_Tables_number       1
_space_group_crystal_system       triclinic
_cell_length_a                    22.067565
_cell_length_b                    7.194763
_cell_length_c                    15.167154
_cell_angle_alpha                 89.740869
_cell_angle_beta                  109.096066
_cell_angle_gamma                 91.015769
_cell_volume                      2275.22844096

loop_
_atom_site_label
_atom_site_type_symbol
_atom_type_description
_atom_site_fract_x
_atom_site_fract_y
_atom_site_fract_z
_atom_type_partial_charge
O1    O     O_R   0.584770 0.505770 0.002090 -0.541507
O2    O     O_R   0.415230 0.005770 0.997910 -0.518057
O3    O     O_R   0.467060 0.173340 0.861950 -0.542393
O4    O     O_R   0.532940 0.673340 0.138050 -0.548887
C1    C     C_R   0.454824 0.345154 0.825865 0.847837
C2    C     C_R   0.544888 0.845633 0.174405 0.821450
O5    O     O_R   0.587510 0.175890 0.993210 -0.525754
O6    O     O_R   0.412490 0.675890 0.006790 -0.530664
O7    O     O_R   0.536540 0.008150 0.130100 -0.542944
O8    O     O_R   0.463460 0.508150 0.869900 -0.545636
C3    C     C_R   0.612996 0.347739 0.997310 0.653034
C4    C     C_R   0.386398 0.842736 0.998270 0.683642
O9    O     O_3   0.483140 0.340040 0.044760 -0.383954
O10   O     O_3   0.516860 0.840040 0.955240 -0.395239
V1    V     V_3+5 0.503130 0.064190 0.991700 1.493397
V2    V     V_3+5 0.496870 0.564190 0.008300 1.471831
C5    C     C_2   0.213097 0.739818 0.998296 -0.282357
C6    C     C_2   0.774471 0.300164 0.949095 -0.252848
C7    C     C_2   0.183471 0.897080 0.008536 0.301577
C8    C     C_2   0.824955 0.367498 0.019795 0.349265
H1    H     H_    0.185313 0.611861 0.979825 0.082964
H2    H     H_    0.780618 0.273753 0.882040 0.064696
C9    C     C_2   0.284444 0.727703 0.018015 0.364477
C10   C     C_2   0.709959 0.251165 0.958406 0.407901
C11   C     C_2   0.316095 0.849666 0.979415 0.286161
C12   C     C_2   0.680533 0.375977 0.996825 0.245699
C13   C     C_R   0.927220 0.871285 0.723990 -0.081780
C14   C     C_R   0.069250 0.368111 0.277059 -0.094390
C15   C     C_R   0.572536 0.861451 0.276859 -0.220521
C16   C     C_R   0.427197 0.361144 0.723797 -0.227455
C17   C     C_R   0.928577 0.686445 0.590383 0.414489
C18   C     C_R   0.070419 0.154266 0.403404 0.414796
C19   C     C_R   0.960398 0.768254 0.677599 -0.226825
C20   C     C_R   0.037983 0.241065 0.318105 -0.222556
C21   C     C_R   0.861800 0.899198 0.681953 -0.188008
C22   C     C_R   0.132894 0.416527 0.324389 -0.170120
C23   C     C_R   0.826754 0.805329 0.598601 -0.006085
C24   C     C_R   0.169548 0.314907 0.403821 -0.004099
C25   C     C_R   0.860892 0.703227 0.550158 -0.062179
C26   C     C_R   0.137363 0.187739 0.446334 -0.060556
C27   C     C_R   0.758516 0.814363 0.561411 -0.106261
C28   C     C_R   0.237575 0.337564 0.441848 -0.099299
C29   C     C_R   0.726770 0.754293 0.469006 -0.119999
C30   C     C_R   0.270970 0.262530 0.530366 -0.119519
C31   C     C_R   0.758804 0.623582 0.430696 0.331848
C32   C     C_R   0.240781 0.112648 0.561960 0.315437
C33   C     C_R   0.825500 0.609942 0.466437 0.340602
C34   C     C_R   0.174242 0.086662 0.525896 0.335563
C35   C     C_R   0.720037 0.872769 0.614437 0.239112
C36   C     C_R   0.274238 0.424420 0.392159 0.231992
C37   C     C_R   0.657545 0.933887 0.569469 0.488219
C38   C     C_R   0.335968 0.492736 0.438913 0.514185
C39   C     C_R   0.629405 0.913670 0.471493 -0.202465
C40   C     C_R   0.367667 0.443064 0.532974 -0.206380
C41   C     C_R   0.664027 0.822241 0.420246 -0.116156
C42   C     C_R   0.334131 0.332433 0.580892 -0.124431
C43   C     C_R   0.567319 0.982472 0.424159 0.401338
C44   C     C_R   0.432145 0.500254 0.579457 0.399777
C45   C     C_R   0.539397 0.957375 0.326687 0.264038
C46   C     C_R   0.460824 0.463978 0.675578 0.243506
C47   C     C_R   0.636678 0.814834 0.321043 0.256521
C48   C     C_R   0.362994 0.308246 0.679286 0.262718
H3    H     H_    0.010914 0.742674 0.712262 0.098732
H4    H     H_    0.988950 0.199546 0.280175 0.107629
H5    H     H_    0.838382 0.986772 0.718259 0.150034
H6    H     H_    0.154148 0.524759 0.293906 0.160976
O11   O     O_R   0.036450 0.233070 0.130130 -0.532465
O12   O     O_R   0.963550 0.733070 0.869870 -0.535887
O13   O     O_R   0.912470 0.560570 0.006790 -0.546063
O14   O     O_R   0.087530 0.060570 0.993210 -0.540742
C49   C     C_R   0.887823 0.389254 0.004221 0.606489
C50   C     C_R   0.113611 0.894330 0.999270 0.621182
O15   O     O_R   0.032920 0.562940 0.138050 -0.539704
O16   O     O_R   0.967080 0.062940 0.861950 -0.540079
O17   O     O_R   0.084790 0.730500 0.002090 -0.549742
O18   O     O_R   0.915210 0.230500 0.997910 -0.542017
C51   C     C_R   0.043712 0.392686 0.174969 0.694498
C52   C     C_R   0.955325 0.893058 0.825352 0.701585
O19   O     O_3   0.016820 0.396170 0.955260 -0.380466
O20   O     O_3   0.983180 0.896170 0.044740 -0.373991
V3    V     V_3+5 0.996880 0.672090 0.008300 1.413649
V4    V     V_3+5 0.003120 0.172090 0.991700 1.422709
O21   O     O_3   0.726429 0.499326 0.361437 -0.609492
H7    H     H_    0.682396 0.480845 0.363938 0.298477
O22   O     O_3   0.275066 0.979838 0.623184 -0.623806
H8    H     H_    0.318836 0.975913 0.618673 0.294541
O23   O     O_3   0.738457 0.849610 0.709886 -0.662093
H9    H     H_    0.768162 0.743616 0.727252 0.282919
O24   O     O_3   0.254312 0.428144 0.296240 -0.671756
H10   H     H_    0.228423 0.313658 0.272761 0.287247
O25   O     O_3   0.537873 0.094131 0.471768 -0.559386
C53   C     C_3   0.477980 0.018814 0.469918 -0.141471
H11   H     H_    0.466793 0.879271 0.437045 0.202511
H12   H     H_    0.439512 0.115376 0.432087 0.136248
H13   H     H_    0.477247 0.007912 0.542499 0.151092
O26   O     O_3   0.464947 0.604596 0.531978 -0.550238
C54   C     C_3   0.522364 0.518818 0.533256 -0.149992
H14   H     H_    0.526841 0.373064 0.558609 0.169331
H15   H     H_    0.564095 0.601234 0.577550 0.166917
H16   H     H_    0.524846 0.519182 0.461411 0.142217
O27   O     O_3   0.221250 0.054648 0.043053 -0.547347
C55   C     C_3   0.200100 0.208972 0.983528 -0.084087
H17   H     H_    0.170826 0.299538 0.012040 0.118274
H18   H     H_    0.172949 0.170796 0.909734 0.109418
H19   H     H_    0.242672 0.291462 0.982256 0.198525
O28   O     O_3   0.819842 0.371915 0.109120 -0.549074
C56   C     C_3   0.867737 0.484974 0.171006 -0.189166
H20   H     H_    0.867562 0.628530 0.143359 0.134267
H21   H     H_    0.915670 0.422225 0.187144 0.107473
H22   H     H_    0.857244 0.495172 0.237335 0.179729
O29   O     O_3   0.317990 0.576937 0.066530 -0.582045
C57   C     C_3   0.302560 0.545436 0.148200 -0.140573
H23   H     H_    0.253881 0.482181 0.131265 0.157456
H24   H     H_    0.306295 0.675652 0.189031 0.166121
H25   H     H_    0.337212 0.445781 0.192583 0.194210
O30   O     O_3   0.675140 0.095134 0.914061 -0.576808
C58   C     C_3   0.715614 0.942878 0.919954 -0.172635
H26   H     H_    0.746302 0.916930 0.993254 0.147795
H27   H     H_    0.745640 0.962968 0.874517 0.164281
H28   H     H_    0.685229 0.817237 0.894381 0.201827
O31   O     O_3   0.282890 0.985468 0.918869 -0.559728
C59   C     C_3   0.266647 0.916867 0.827048 -0.172551
H29   H     H_    0.236900 0.787132 0.817371 0.113913
H30   H     H_    0.310368 0.892726 0.807708 0.171364
H31   H     H_    0.237493 0.022282 0.778753 0.203341
O32   O     O_3   0.710349 0.550007 0.020361 -0.581410
C60   C     C_3   0.709263 0.612187 0.108041 -0.100826
H32   H     H_    0.707519 0.497096 0.156693 0.166908
H33   H     H_    0.668833 0.708170 0.098198 0.175815
H34   H     H_    0.753597 0.694979 0.141754 0.149860
O33   O     O_3   0.854356 0.498952 0.418828 -0.593950
H35   H     H_    0.883497 0.582180 0.398420 0.309088
O34   O     O_3   0.147267 0.954066 0.567824 -0.598318
H36   H     H_    0.116942 0.020711 0.591869 0.312659
O35   O     O_3   0.673323 0.787577 0.264233 -0.655688
H37   H     H_    0.715679 0.848895 0.293867 0.303342
O36   O     O_3   0.327854 0.257260 0.736193 -0.633412
H38   H     H_    0.284678 0.311514 0.710016 0.301648
O37   O     O_3   0.479339 0.026953 0.279034 -0.564382
C61   C     C_3   0.484557 0.220774 0.266585 -0.136027
H39   H     H_    0.527743 0.261900 0.247878 0.126907
H40   H     H_    0.484682 0.297588 0.329826 0.151235
H41   H     H_    0.441883 0.265172 0.208515 0.164905
O38   O     O_3   0.522260 0.529258 0.723834 -0.571924
C62   C     C_3   0.521046 0.723173 0.737874 -0.113544
H42   H     H_    0.478648 0.766901 0.756715 0.119186
H43   H     H_    0.522631 0.800699 0.675362 0.174646
H44   H     H_    0.564543 0.764009 0.796370 0.170370
O39   O     O_3   0.621397 0.992946 0.623212 -0.532827
C63   C     C_3   0.643622 0.170807 0.660125 -0.119101
H45   H     H_    0.610345 0.224512 0.694843 0.173126
H46   H     H_    0.644366 0.271114 0.604305 0.104343
H47   H     H_    0.691867 0.164990 0.713886 0.156088
O40   O     O_3   0.365758 0.603333 0.389846 -0.526675
C64   C     C_3   0.338128 0.781456 0.379134 -0.217033
H48   H     H_    0.348488 0.851320 0.447973 0.120448
H49   H     H_    0.285468 0.776412 0.342241 0.149403
H50   H     H_    0.359258 0.867819 0.335517 0.164356
O41   O     O_3   0.962474 0.579765 0.547647 -0.629056
H51   H     H_    0.008763 0.584726 0.584701 0.300842
O42   O     O_3   0.038359 0.025484 0.440617 -0.629850
H52   H     H_    0.992318 0.020564 0.402310 0.296526

loop_
_geom_bond_atom_site_label_1
_geom_bond_atom_site_label_2
_ccdc_geom_bond_type
O23   H9    S    
O27   C55   S    
C64   H49   S    
C27   C29   A    
C35   O23   S    
O29   C57   S    
O1    C3    A    
C61   H41   S    
C13   C52   S    
O2    C4    A    
C62   H44   S    
C2    O7    A    
C57   H24   S    
C54   H14   S    
O35   H37   S    
O22   H8    S    
C13   C19   A    
O5    C3    A    
O32   C60   S    
O21   H7    S    
C6    C10   S    
O12   V3    S    
C21   C23   A    
C61   H40   S    
C24   C28   A    
C58   H27   S    
C49   O18   A    
C22   H6    S    
C43   C45   A    
O28   C56   S    
C21   H5    S    
C44   C46   A    
O30   C58   S    
C55   H19   S    
C12   O32   S    
C27   C35   A    
O13   C49   A    
C44   O26   S    
C62   H43   S    
C15   C45   A    
C30   C32   A    
C35   C37   A    
C63   H47   S    
C16   C46   A    
C36   C38   A    
C56   H20   S    
C17   C19   A    
C8    C49   S    
C19   H3    S    
C32   O22   S    
C31   C33   A    
C14   C20   A    
O6    V2    S    
C18   O42   S    
C64   H50   S    
C56   H21   S    
C7    C50   S    
C31   O21   S    
C28   C30   A    
O16   V4    S    
C50   O17   A    
O15   V3    S    
C57   H23   S    
C54   H15   S    
C38   C40   A    
C62   H42   S    
C8    O28   S    
C39   C41   A    
O12   C52   A    
C15   C47   A    
C34   O34   S    
C61   H39   S    
O4    C2    A    
C58   H28   S    
O18   V4    S    
O25   C53   S    
C39   C43   A    
O17   V3    S    
C3    C12   S    
C13   C21   A    
C53   H13   S    
C5    H1    S    
C33   O33   S    
C37   C39   A    
C18   C20   A    
O4    V2    S    
C60   H33   S    
C14   C51   S    
O11   C51   A    
C30   C42   A    
C36   O24   S    
O41   H51   S    
O10   V1    S    
C45   O37   S    
O6    C4    A    
O26   C54   S    
C2    C15   S    
C20   H4    S    
O31   C59   S    
O1    V2    S    
C5    C9    S    
C55   H18   S    
O2    V1    S    
C29   C31   A    
C14   C22   A    
O40   C64   S    
C42   C48   A    
C28   C36   A    
C29   C41   A    
C10   O30   S    
C11   O31   S    
C16   C48   A    
O34   H36   S    
C56   H22   S    
C63   H46   S    
C59   H30   S    
O33   H35   S    
C54   H16   S    
O3    V1    S    
C47   O35   S    
C25   C33   A    
C1    C16   S    
C40   C44   A    
C26   C34   A    
C43   O25   S    
C6    H2    S    
C10   C12   D    
O20   V3    S    
O3    C1    A    
O19   V4    S    
O37   C61   S    
C40   C42   A    
C9    O29   S    
O36   H38   S    
C4    C11   S    
O38   C62   S    
C59   H31   S    
C22   C24   A    
O24   H10   S    
C60   H34   S    
C1    O8    A    
C23   C25   A    
O8    V2    S    
C58   H26   S    
C46   O38   S    
C24   C26   A    
C7    O27   S    
C53   H12   S    
O42   H52   S    
C41   C47   A    
O5    V1    S    
C53   H11   S    
C5    C7    D    
C17   C25   A    
C6    C8    D    
C18   C26   A    
C48   O36   S    
C23   C27   A    
C55   H17   S    
O14   V4    S    
O13   V3    S    
C32   C34   A    
C9    C11   D    
C37   O39   S    
O11   V4    S    
O16   C52   A    
O9    V2    S    
C64   H48   S    
O15   C51   A    
C63   H45   S    
O14   C50   A    
C59   H29   S    
O39   C63   S    
C38   O40   S    
C57   H25   S    
C17   O41   S    
C60   H32   S    
O7    V1    S    
