data_mof_unit_26247.cif
_audit_creation_date              2012-12-10T17:50:14-0500
_audit_creation_method            fapswitch 2.2
_symmetry_space_group_name_H-M    P1
_symmetry_Int_Tables_number       1
_space_group_crystal_system       triclinic
_cell_length_a                    10.622995
_cell_length_b                    14.818547
_cell_length_c                    14.792979
_cell_angle_alpha                 64.464709
_cell_angle_beta                  104.262683
_cell_angle_gamma                 102.703151
_cell_volume                      2019.15485045

loop_
_atom_site_label
_atom_site_type_symbol
_atom_type_description
_atom_site_fract_x
_atom_site_fract_y
_atom_site_fract_z
_atom_type_partial_charge
C1    C     C_R   0.477083 0.119760 0.312252 0.804275
C2    C     C_R   0.520507 0.880313 0.687661 0.801559
C3    C     C_R   0.474460 0.291947 0.177327 -0.227886
C4    C     C_R   0.504183 0.708407 0.822092 -0.227357
C5    C     C_R   0.449829 0.360596 0.075475 0.052299
C6    C     C_R   0.486198 0.639226 0.920561 0.055845
C7    C     C_R   0.417607 0.322390 0.998347 0.148326
C8    C     C_R   0.498824 0.677261 0.996095 0.147476
C9    C     C_R   0.460932 0.466198 0.048839 0.030093
C10   C     C_R   0.458359 0.533500 0.945668 0.031806
C11   C     C_R   0.423969 0.493291 0.870388 -0.248875
C12   C     C_R   0.470696 0.506188 0.121969 -0.247813
C13   C     C_R   0.402214 0.389392 0.895562 0.133317
C14   C     C_R   0.488285 0.610026 0.096628 0.132699
C15   C     C_R   0.744587 0.297751 0.642677 -0.319730
C16   C     C_R   0.256203 0.703517 0.355414 -0.312529
C17   C     C_R   0.697347 0.209460 0.627549 0.027213
C18   C     C_R   0.303466 0.791383 0.371405 0.026034
C19   C     C_R   0.510641 0.282064 0.512224 0.310811
C20   C     C_R   0.488659 0.717512 0.487949 0.309689
C21   C     C_R   0.546867 0.370799 0.533942 -0.060368
C22   C     C_R   0.452742 0.629520 0.465044 -0.066037
C23   C     C_R   0.260015 0.000329 0.500053 0.810692
C24   C     C_R   0.740005 0.999606 0.500053 0.810735
C25   C     C_R   0.672416 0.379543 0.593294 0.149022
C26   C     C_R   0.327773 0.621403 0.404886 0.147228
C27   C     C_R   0.470458 0.453414 0.495146 0.076882
C28   C     C_R   0.529073 0.547019 0.503500 0.078134
C29   C     C_R   0.662866 0.555603 0.546266 -0.249674
C30   C     C_R   0.336757 0.445292 0.451786 -0.260828
C31   C     C_R   0.729675 0.472138 0.596862 -0.184469
C32   C     C_R   0.270484 0.529060 0.400739 -0.193655
C33   C     C_3   0.014464 0.013555 0.406356 -0.198382
C34   C     C_3   0.985588 0.986269 0.593910 -0.198801
C35   C     C_3   0.962158 0.086146 0.433094 0.202516
C36   C     C_3   0.037923 0.913682 0.567178 0.202237
C37   C     C_3   0.876397 0.998525 0.500374 -0.023133
C38   C     C_3   0.123659 0.001314 0.499880 -0.022593
C39   C     C_3   0.927523 0.923556 0.475414 -0.226947
C40   C     C_3   0.072534 0.076261 0.524862 -0.225827
C41   C     C_R   0.457667 0.187918 0.203948 -0.048980
C42   C     C_R   0.521426 0.812400 0.795201 -0.049195
C43   C     C_R   0.402187 0.217427 0.025702 -0.177746
C44   C     C_R   0.520478 0.782341 0.969153 -0.179058
C45   C     C_R   0.420391 0.150869 0.127549 -0.214181
C46   C     C_R   0.530141 0.849216 0.869364 -0.208215
Cu1   Cu    Cu3+1 0.465750 0.918270 0.475680 0.952373
Cu2   Cu    Cu3+1 0.534250 0.081730 0.524320 0.952632
H1    H     H_    0.247430 0.854440 0.334583 0.132430
H2    H     H_    0.753971 0.146746 0.664146 0.133066
H3    H     H_    0.838979 0.303152 0.690408 0.142486
H4    H     H_    0.162306 0.698706 0.306922 0.144077
H5    H     H_    0.720200 0.626533 0.539753 0.136024
H6    H     H_    0.278880 0.374681 0.458016 0.140230
H7    H     H_    0.028765 0.026826 0.329534 0.136987
H8    H     H_    0.971309 0.973007 0.670734 0.136711
H9    H     H_    0.867768 0.860089 0.457162 0.137408
H10   H     H_    0.132190 0.139694 0.543210 0.137744
H11   H     H_    0.507328 0.683004 0.764787 0.159393
H12   H     H_    0.511176 0.318184 0.237535 0.163133
H13   H     H_    0.543170 0.929564 0.850192 0.159300
H14   H     H_    0.406828 0.070577 0.146319 0.158463
H15   H     H_    0.376314 0.186046 0.968641 0.163281
H16   H     H_    0.528406 0.813601 0.024643 0.162527
H17   H     H_    0.407136 0.541051 0.790494 0.140810
H18   H     H_    0.459982 0.458103 0.199390 0.134438
H19   H     H_    0.830160 0.481637 0.634324 0.138598
H20   H     H_    0.170251 0.519937 0.362674 0.142954
N1    N     N_R   0.585750 0.204560 0.560800 -0.171436
N2    N     N_R   0.414250 0.795440 0.439200 -0.171093
O1    O     O_R   0.454850 0.022100 0.338110 -0.591991
O2    O     O_R   0.545150 0.977900 0.661890 -0.592320
O3    O     O_R   0.512700 0.160150 0.379180 -0.551994
O4    O     O_R   0.487300 0.839850 0.620820 -0.550611
O5    O     O_R   0.287930 0.931000 0.479440 -0.591839
O6    O     O_R   0.712070 0.069000 0.520560 -0.591446
O7    O     O_R   0.345780 0.069050 0.520520 -0.576950
O8    O     O_R   0.654220 0.930950 0.479480 -0.577493
N3    N     N_3   0.916752 0.180901 0.358620 -0.591944
H21   H     H_    0.996586 0.226720 0.324916 0.209932
H22   H     H_    0.892161 0.216280 0.398430 0.223742
N4    N     N_3   0.083441 0.818969 0.641672 -0.589600
H23   H     H_    0.003625 0.773062 0.675342 0.209385
H24   H     H_    0.108227 0.783643 0.601893 0.223681
N5    N     N_3   0.586151 0.720297 0.573313 -0.552497
H25   H     H_    0.586600 0.649580 0.633934 0.193655
H26   H     H_    0.677724 0.750517 0.551772 0.204304
N6    N     N_3   0.411354 0.277642 0.428419 -0.548192
H27   H     H_    0.320545 0.247991 0.451455 0.204207
H28   H     H_    0.409999 0.347638 0.366917 0.186221
N7    N     N_3   0.366674 0.351746 0.816531 -0.601742
H29   H     H_    0.376042 0.410196 0.745461 0.225241
H30   H     H_    0.267480 0.322462 0.813449 0.207641
N8    N     N_3   0.496644 0.647339 0.173402 -0.599071
H31   H     H_    0.470176 0.589070 0.240116 0.230209
H32   H     H_    0.594891 0.674213 0.191877 0.210332

loop_
_geom_bond_atom_site_label_1
_geom_bond_atom_site_label_2
_ccdc_geom_bond_type
C18   N2    A    
C38   C40   S    
C17   N1    A    
C34   C37   S    
Cu2   O6    S    
Cu2   N1    S    
C43   H15   S    
N5    H25   S    
C44   H16   S    
C31   H19   S    
C30   H6    S    
C33   C39   S    
C4    C42   A    
C34   C40   S    
C28   C29   A    
C35   C37   S    
C15   C25   A    
C39   H9    S    
C45   H14   S    
C25   C31   A    
C42   C46   A    
C36   N4    S    
C15   H3    S    
C9    C10   A    
C2    O4    A    
C34   H8    S    
C32   H20   S    
C3    H12   S    
C21   C27   A    
C22   C28   A    
C13   N7    S    
C27   C30   A    
C20   N2    A    
Cu2   O2    S    
C2    O2    A    
C44   C46   A    
N5    H26   S    
C16   C26   A    
C40   H10   S    
C46   H13   S    
C16   H4    S    
C4    C6    A    
C19   N6    S    
C23   O5    A    
N7    H29   S    
C5    C7    A    
C26   C32   A    
C24   O6    A    
C6    C8    A    
C12   H18   S    
Cu2   O7    S    
Cu1   N2    S    
C5    C9    A    
N7    H30   S    
Cu1   Cu2   S    
C20   N5    S    
C24   C37   S    
C33   H7    S    
C16   C18   A    
C1    O1    A    
C23   O7    A    
N8    H32   S    
C43   C45   A    
Cu1   O1    S    
C1    C41   S    
C12   C14   A    
C7    C43   A    
C19   N1    A    
C20   C22   A    
N3    H22   S    
C24   O8    A    
C15   C17   A    
C21   C25   A    
C3    C41   A    
C8    C14   A    
C19   C21   A    
Cu2   O3    S    
C36   C39   S    
C8    C44   A    
Cu1   O4    S    
N6    H28   S    
C3    C5    A    
C17   H2    S    
C6    C10   A    
C23   C38   S    
N4    H24   S    
C33   C38   S    
C1    O3    A    
C36   C38   S    
C35   C40   S    
Cu1   O5    S    
C37   C39   S    
C30   C32   A    
C11   C13   A    
C29   H5    S    
C2    C42   S    
C4    H11   S    
C35   N3    S    
C33   C35   S    
C34   C36   S    
N8    H31   S    
C9    C12   A    
C10   C11   A    
N3    H21   S    
C7    C13   A    
N6    H27   S    
C29   C31   A    
N4    H23   S    
C22   C26   A    
C27   C28   A    
C41   C45   A    
Cu1   O8    S    
C14   N8    S    
C11   H17   S    
C18   H1    S    
