data_mof_unit_61050.cif
_audit_creation_date              2012-12-10T16:58:39-0500
_audit_creation_method            fapswitch 2.2
_symmetry_space_group_name_H-M    P1
_symmetry_Int_Tables_number       1
_space_group_crystal_system       triclinic
_cell_length_a                    13.121524
_cell_length_b                    13.169343
_cell_length_c                    15.528303
_cell_angle_alpha                 108.823268
_cell_angle_beta                  74.696522
_cell_angle_gamma                 90.833196
_cell_volume                      2442.41364984

loop_
_atom_site_label
_atom_site_type_symbol
_atom_type_description
_atom_site_fract_x
_atom_site_fract_y
_atom_site_fract_z
_atom_type_partial_charge
C1    C     C_R   0.218266 0.543508 0.534413 0.535739
C2    C     C_R   0.534408 0.492883 0.111270 -0.114924
C3    C     C_R   0.567961 0.305280 0.091462 -0.110871
C4    C     C_R   0.780678 0.456953 0.464470 0.525644
C5    C     C_R   0.441103 0.583464 0.855231 0.025064
C6    C     C_2   0.893701 0.437893 0.450684 0.101384
C7    C     C_2   0.949596 0.521141 0.481598 -0.114082
C8    C     C_2   0.105707 0.566323 0.543734 0.091577
C9    C     C_2   0.061367 0.504982 0.477757 -0.112784
C10   C     C_2   0.537651 0.895078 0.540664 -0.071346
C11   C     C_2   0.505077 0.938073 0.484648 -0.140324
C12   C     C_R   0.441574 0.727580 0.998938 -0.130426
C13   C     C_2   0.462216 0.102965 0.456544 -0.088983
C14   C     C_2   0.508160 0.054127 0.501636 -0.134585
C15   C     C_R   0.470268 0.218425 0.472042 0.533691
C16   C     C_R   0.529160 0.781312 0.528155 0.508767
C17   C     C_R   0.544177 0.441596 0.247564 0.498770
C18   C     C_R   0.454758 0.555028 0.752860 0.510567
C19   C     C_R   0.549714 0.274989 0.002925 -0.117086
C20   C     C_R   0.557636 0.413864 0.146556 0.039297
C21   C     C_R   0.429014 0.693258 0.908446 -0.116092
C22   C     C_1   0.391321 0.352612 0.783753 0.221793
C23   C     C_R   0.470237 0.653649 0.036660 -0.106880
C24   C     C_R   0.480240 0.541618 0.986579 0.027353
C25   C     C_R   0.456660 0.505731 0.897320 0.017755
C26   C     C_R   0.512034 0.464211 0.022638 0.031115
C27   C     C_R   0.518032 0.352965 0.969667 0.036265
C28   C     C_R   0.484555 0.319431 0.887709 -0.128045
C29   C     C_R   0.448617 0.393909 0.854188 -0.005481
H1    H     H_    0.584205 0.243621 0.119418 0.120963
H2    H     H_    0.415302 0.753521 0.878120 0.142343
H3    H     H_    0.483527 0.687438 0.105392 0.107968
H4    H     H_    0.433933 0.812779 0.038565 0.127349
H5    H     H_    0.108614 0.438516 0.419395 0.175201
H6    H     H_    0.910319 0.601802 0.513913 0.151238
H7    H     H_    0.548740 0.100504 0.552582 0.168255
H8    H     H_    0.474094 0.887879 0.427909 0.132801
H9    H     H_    0.419897 0.057318 0.406896 0.113364
H10   H     H_    0.563425 0.945382 0.600601 0.099029
H11   H     H_    0.481167 0.234129 0.852186 0.114355
H12   H     H_    0.554372 0.190041 0.962814 0.116470
H13   H     H_    0.526282 0.574797 0.158040 0.101182
I1    I     I_    0.018855 0.696171 0.662748 -0.324339
I2    I     I_    0.955375 0.274343 0.400143 -0.328918
N1    N     N_1   0.345234 0.319216 0.727689 -0.281844
O1    O     O_3   0.500000 0.500000 0.500000 -0.453869
O2    O     O_R   0.468210 0.402800 0.293550 -0.541584
O3    O     O_R   0.410220 0.615430 0.721590 -0.541030
O4    O     O_R   0.602670 0.506150 0.290200 -0.533747
O5    O     O_R   0.518910 0.475630 0.694660 -0.527805
O6    O     O_R   0.526920 0.270960 0.524520 -0.525255
O7    O     O_R   0.454490 0.752910 0.584610 -0.533791
O8    O     O_R   0.270990 0.462040 0.468400 -0.547946
O9    O     O_R   0.747590 0.514090 0.422470 -0.539887
O10   O     O_R   0.265290 0.607490 0.589320 -0.503790
O11   O     O_R   0.716130 0.416380 0.519810 -0.516142
O12   O     O_R   0.423930 0.265320 0.430520 -0.531774
O13   O     O_R   0.594650 0.710810 0.460350 -0.528865
Zn1   Zn    Zn3+2 0.564370 0.417180 0.558730 0.981756
Zn2   Zn    Zn3+2 0.417220 0.409120 0.424430 0.963277
Zn3   Zn    Zn3+2 0.609330 0.556780 0.419650 0.954355
Zn4   Zn    Zn3+2 0.409080 0.616930 0.597190 0.977806

loop_
_geom_bond_atom_site_label_1
_geom_bond_atom_site_label_2
_ccdc_geom_bond_type
C15   O12   A    
C3    H1    S    
C23   C24   A    
O11   Zn1   S    
C11   H8    S    
C3    C19   A    
C6    C7    D    
C22   C29   S    
C15   O6    A    
O1    Zn1   S    
C1    C8    S    
C19   C27   A    
O3    Zn4   S    
C8    I1    S    
C4    O9    A    
C23   H3    S    
C17   C20   S    
O13   Zn3   S    
C26   C27   A    
C5    C21   A    
C3    C20   A    
C2    C26   A    
C16   O13   A    
C13   C14   D    
C4    O11   A    
C14   H7    S    
C21   H2    S    
C12   C23   A    
C13   H9    S    
O1    Zn4   S    
C5    C25   A    
O5    Zn1   S    
C28   C29   A    
O9    Zn3   S    
O8    Zn2   S    
C2    H13   S    
C1    O10   A    
C13   C15   S    
C12   H4    S    
C25   C29   A    
C9    H5    S    
C11   C14   S    
O4    Zn3   S    
C10   C11   D    
C28   H11   S    
O1    Zn3   S    
C2    C20   A    
O10   Zn4   S    
C16   O7    A    
C22   N1    T    
O6    Zn1   S    
C24   C25   A    
C18   O5    A    
C4    C6    S    
C6    I2    S    
C17   O4    A    
C27   C28   A    
C7    C9    S    
C1    O8    A    
C8    C9    D    
O12   Zn2   S    
C10   C16   S    
C5    C18   S    
O1    Zn2   S    
O2    Zn2   S    
C7    H6    S    
C12   C21   A    
O7    Zn4   S    
C19   H12   S    
C17   O2    A    
C24   C26   A    
C10   H10   S    
C18   O3    A    
