data_mof_unit_21204.cif
_audit_creation_date              2012-12-10T19:42:32-0500
_audit_creation_method            fapswitch 2.2
_symmetry_space_group_name_H-M    P1
_symmetry_Int_Tables_number       1
_space_group_crystal_system       triclinic
_cell_length_a                    10.840934
_cell_length_b                    10.897106
_cell_length_c                    9.798295
_cell_angle_alpha                 98.849817
_cell_angle_beta                  98.314985
_cell_angle_gamma                 91.694954
_cell_volume                      1130.12531454

loop_
_atom_site_label
_atom_site_type_symbol
_atom_type_description
_atom_site_fract_x
_atom_site_fract_y
_atom_site_fract_z
_atom_type_partial_charge
C1    C     C_R   0.500735 0.262020 0.499483 0.806103
C2    C     C_R   0.499804 0.738018 0.500483 0.784732
C3    C     C_R   0.871548 0.494659 0.500199 -0.049917
C4    C     C_R   0.128272 0.503649 0.499551 -0.084094
C5    C     C_R   0.952870 0.468074 0.617399 0.070641
C6    C     C_R   0.046873 0.529559 0.382115 -0.014092
C7    C     C_R   0.293626 0.111058 0.031947 -0.175470
C8    C     C_R   0.712462 0.890849 0.966442 -0.151534
C9    C     C_R   0.320736 0.074617 0.163300 -0.146808
C10   C     C_R   0.683740 0.926893 0.835033 -0.167760
C11   C     C_R   0.444681 0.079206 0.230381 0.113936
C12   C     C_R   0.559308 0.921159 0.769212 0.132021
C13   C     C_R   0.541141 0.121451 0.164808 -0.062203
C14   C     C_R   0.463955 0.878927 0.836379 -0.048516
C15   C     C_R   0.513457 0.159072 0.034135 -0.101957
C16   C     C_R   0.493221 0.841896 0.967169 -0.111618
C17   C     C_R   0.389917 0.152988 0.967249 -0.160630
C18   C     C_R   0.617289 0.848574 0.032574 -0.165449
C19   C     C_R   0.471774 0.915640 0.375795 -0.195259
C20   C     C_R   0.530380 0.084486 0.623913 -0.261114
C21   C     C_R   0.499791 0.872294 0.503123 -0.073407
C22   C     C_R   0.501815 0.127804 0.496691 -0.071308
C23   C     C_R   0.262289 0.502445 0.500389 0.803018
C24   C     C_R   0.737654 0.497038 0.499599 0.794762
C25   C     C_R   0.529090 0.958138 0.629379 -0.000252
C26   C     C_R   0.473260 0.042013 0.370324 0.021668
C27   C     C_2   0.511785 0.508537 0.078794 -0.080979
C28   C     C_2   0.488096 0.491593 0.921208 -0.080067
C29   C     C_R   0.180934 0.719944 0.138147 -0.120246
C30   C     C_R   0.816967 0.285728 0.868336 -0.234513
C31   C     C_R   0.130765 0.691815 0.255208 0.034637
C32   C     C_R   0.866419 0.309299 0.749341 0.046283
C33   C     C_R   0.092623 0.566970 0.258408 0.022979
C34   C     C_R   0.907261 0.433029 0.742323 0.091187
C35   C     C_R   0.106586 0.473781 0.146458 -0.059052
C36   C     C_R   0.896023 0.528748 0.852873 -0.121996
C37   C     C_R   0.158015 0.503281 0.032377 -0.140194
C38   C     C_R   0.845050 0.503387 0.968881 -0.131188
C39   C     C_R   0.194547 0.626130 0.027772 -0.175605
C40   C     C_R   0.806216 0.382055 0.977062 -0.113423
C41   C     C_R   0.919211 0.524126 0.383615 -0.245033
C42   C     C_R   0.080615 0.473813 0.615988 -0.201689
Cu1   Cu    Cu3+1 0.521120 0.521140 0.639640 0.951835
Cu2   Cu    Cu3+1 0.478880 0.478860 0.360360 0.958656
H1    H     H_    0.233724 0.648596 0.938547 0.135235
H2    H     H_    0.767433 0.362667 0.067760 0.140993
H3    H     H_    0.637217 0.126063 0.215442 0.126010
H4    H     H_    0.367505 0.873873 0.786879 0.112923
H5    H     H_    0.587733 0.192239 0.984372 0.119461
H6    H     H_    0.419727 0.808736 0.018146 0.116390
H7    H     H_    0.448983 0.850751 0.279108 0.149269
H8    H     H_    0.553484 0.149396 0.720555 0.155039
H9    H     H_    0.414305 0.425353 0.865569 0.152711
H10   H     H_    0.585518 0.574856 0.134428 0.149493
H11   H     H_    0.624063 0.612999 0.904445 0.212539
H12   H     H_    0.375944 0.386972 0.095578 0.212242
H13   H     H_    0.210552 0.814387 0.132221 0.147353
H14   H     H_    0.785834 0.192311 0.876901 0.114926
H15   H     H_    0.079558 0.377715 0.148910 0.137638
H16   H     H_    0.924881 0.623804 0.847857 0.124340
H17   H     H_    0.169469 0.430445 0.947489 0.111152
H18   H     H_    0.835839 0.578242 0.052567 0.108620
H19   H     H_    0.857080 0.546418 0.294874 0.140217
H20   H     H_    0.142854 0.452013 0.704881 0.136774
H21   H     H_    0.368728 0.181573 0.865812 0.132028
H22   H     H_    0.639694 0.820416 0.134106 0.123143
H23   H     H_    0.197918 0.107439 0.980641 0.136586
H24   H     H_    0.808527 0.895236 0.016788 0.137939
H25   H     H_    0.245233 0.044167 0.213212 0.182822
H26   H     H_    0.758299 0.958243 0.784155 0.108784
N1    N     N_2   0.447120 0.447110 0.150550 -0.272131
N2    N     N_2   0.552880 0.552890 0.849450 -0.272751
O1    O     O_R   0.517830 0.337490 0.617920 -0.583033
O2    O     O_R   0.482170 0.662510 0.382080 -0.584116
O3    O     O_R   0.482150 0.301790 0.382070 -0.566334
O4    O     O_R   0.517850 0.698210 0.617930 -0.569885
O5    O     O_R   0.337480 0.517860 0.617920 -0.594351
O6    O     O_R   0.662520 0.482140 0.382080 -0.588523
O7    O     O_R   0.301810 0.482160 0.382070 -0.559683
O8    O     O_R   0.698190 0.517840 0.617930 -0.571602
C43   C     C_2   0.120019 0.791994 0.373508 0.296412
H27   H     H_    0.079977 0.771611 0.463267 0.079193
O9    O     O_2   0.156011 0.899017 0.372581 -0.559211
C44   C     C_2   0.871357 0.202522 0.636216 0.302473
H28   H     H_    0.832065 0.111843 0.645053 0.066618
O10   O     O_2   0.919022 0.213023 0.532864 -0.534785

loop_
_geom_bond_atom_site_label_1
_geom_bond_atom_site_label_2
_ccdc_geom_bond_type
Cu1   O1    S    
C30   C32   A    
C5    C42   A    
Cu1   N2    S    
C43   H27   S    
C27   H10   S    
C27   N1    D    
C40   H2    S    
C19   C21   A    
C16   H6    S    
C20   C25   A    
Cu2   N1    S    
C35   H15   S    
C19   C26   A    
C24   O8    A    
C7    C17   A    
C6    C41   A    
C31   C33   A    
H11   N2    S    
C2    O2    A    
C39   H1    S    
C1    C22   S    
C3    C24   S    
C28   N2    D    
C43   O9    D    
Cu2   O7    S    
C32   C44   S    
C29   H13   S    
C1    O3    A    
C44   H28   S    
C4    C6    A    
C13   H3    S    
C4    C23   S    
C14   H4    S    
C11   C26   S    
C3    C5    A    
Cu1   O8    S    
C8    C18   A    
C32   C34   A    
Cu2   O3    S    
Cu1   Cu2   S    
C29   C31   A    
H12   N1    S    
C5    C34   S    
C29   C39   A    
C2    C21   S    
C30   C40   A    
C23   O5    A    
Cu2   O2    S    
C9    C11   A    
C10   C12   A    
C10   H26   S    
C16   C18   A    
C12   C14   A    
C8    H24   S    
C13   C15   A    
C9    H25   S    
C14   C16   A    
C18   H22   S    
C41   H19   S    
C42   H20   S    
C2    O4    A    
C24   O6    A    
Cu1   O4    S    
C7    C9    A    
C21   C25   A    
C3    C41   A    
C35   C37   A    
C8    C10   A    
C20   C22   A    
C36   H16   S    
C37   H17   S    
C28   H9    S    
C15   C17   A    
Cu1   O5    S    
C17   H21   S    
C31   C43   S    
C6    C33   S    
C12   C25   S    
C1    O1    A    
C36   C38   A    
C37   C39   A    
C38   C40   A    
C11   C13   A    
C4    C42   A    
C30   H14   S    
Cu2   O6    S    
C33   C35   A    
C34   C36   A    
C15   H5    S    
C7    H23   S    
C19   H7    S    
C20   H8    S    
C22   C26   A    
C27   C28   S    
C44   O10   D    
C23   O7    A    
C38   H18   S    
