data_mof_unit_47234.cif
_audit_creation_date              2012-12-10T20:31:59-0500
_audit_creation_method            fapswitch 2.2
_symmetry_space_group_name_H-M    P1
_symmetry_Int_Tables_number       1
_space_group_crystal_system       triclinic
_cell_length_a                    9.866692
_cell_length_b                    10.809526
_cell_length_c                    15.618008
_cell_angle_alpha                 90.43777
_cell_angle_beta                  68.637289
_cell_angle_gamma                 88.500386
_cell_volume                      1550.48499078

loop_
_atom_site_label
_atom_site_type_symbol
_atom_type_description
_atom_site_fract_x
_atom_site_fract_y
_atom_site_fract_z
_atom_type_partial_charge
C1    C     C_R   0.497511 0.739966 0.502026 0.913809
C2    C     C_R   0.713211 0.403376 0.042991 0.194176
C3    C     C_R   0.573323 0.456518 0.092742 0.087121
C4    C     C_R   0.409564 0.498423 0.675134 0.869637
C5    C     C_R   0.817031 0.390144 0.084762 -0.231856
C6    C     C_R   0.781621 0.426673 0.176362 -0.190192
C7    C     C_R   0.550249 0.509436 0.179171 -0.278181
C8    C     C_R   0.394669 0.941735 0.481796 0.109052
C9    C     C_R   0.496704 0.872053 0.504225 -0.078469
C10   C     C_R   0.607270 0.931050 0.523257 -0.243761
C11   C     C_R   0.609315 0.058880 0.528258 0.158184
C12   C     C_R   0.406905 0.461503 0.913092 0.098850
C13   C     C_R   0.505439 0.128324 0.503354 -0.135286
C14   C     C_R   0.404490 0.067807 0.475762 0.072512
C15   C     C_3   0.243048 0.088925 0.510620 -0.533906
C16   C     C_R   0.500417 0.260342 0.503167 0.875011
C17   C     C_3   0.230966 0.950745 0.524581 -0.198554
C18   C     C_R   0.884811 0.545753 0.574620 0.165718
C19   C     C_R   0.967165 0.435134 0.435256 -0.057621
C20   C     C_R   0.110675 0.433023 0.436575 -0.068682
C21   C     C_R   0.027830 0.546074 0.573662 0.150674
C22   C     C_3   0.011588 0.673122 0.611211 -0.538948
C23   C     C_R   0.263150 0.504368 0.965196 0.117105
C24   C     C_3   0.854778 0.674675 0.615468 -0.087003
C25   C     C_R   0.590640 0.499993 0.324373 0.870101
C26   C     C_R   0.353400 0.493794 0.774764 -0.047304
C27   C     C_R   0.645902 0.484136 0.224365 -0.057036
C28   C     C_R   0.164995 0.536166 0.922125 -0.202738
C29   C     C_R   0.210453 0.532008 0.826928 -0.172827
C30   C     C_R   0.447875 0.454139 0.817601 -0.267987
C31   C     C_3   0.713942 0.112905 0.568822 -0.364436
C32   C     C_3   0.864260 0.128260 0.494986 -0.856975
C33   C     C_2   0.164715 0.922679 0.626053 0.415370
C34   C     C_R   0.506785 0.433977 0.957394 0.070704
C35   C     C_3   0.743014 0.681850 0.715432 -0.359275
C36   C     C_3   0.607601 0.760145 0.724071 -0.805189
C37   C     C_2   0.245823 0.467405 0.204483 0.339953
C38   C     C_R   0.463770 0.459804 0.053106 -0.040976
C39   C     C_R   0.312971 0.486055 0.104786 -0.005428
C40   C     C_R   0.217064 0.512669 0.059935 -0.230941
C41   C     C_R   0.648256 0.382155 0.909365 -0.227259
C42   C     C_R   0.747932 0.364668 0.952293 -0.240596
H1    H     H_    0.103529 0.535960 0.099478 0.187983
H2    H     H_    0.456335 0.568978 0.213852 0.170846
H3    H     H_    0.080684 0.734618 0.558124 0.199760
H4    H     H_    0.836494 0.743030 0.568031 0.178860
H5    H     H_    0.858135 0.407244 0.210042 0.169669
H6    H     H_    0.854317 0.323487 0.913395 0.147983
H7    H     H_    0.054346 0.567322 0.961976 0.149221
H8    H     H_    0.135482 0.561360 0.794256 0.156512
H9    H     H_    0.554927 0.422005 0.774006 0.141022
H10   H     H_    0.684995 0.350534 0.838846 0.136669
H11   H     H_    0.856248 0.181113 0.436346 0.268329
H12   H     H_    0.923342 0.347668 0.047646 0.145549
H13   H     H_    0.933974 0.178529 0.524713 0.236685
H14   H     H_    0.916217 0.036079 0.469221 0.246239
H15   H     H_    0.671421 0.200858 0.607310 0.215757
H16   H     H_    0.726273 0.050044 0.621730 0.179339
H17   H     H_    0.050561 0.946405 0.663228 0.062196
H18   H     H_    0.636671 0.858235 0.709317 0.235184
H19   H     H_    0.556850 0.726796 0.676056 0.282562
H20   H     H_    0.526723 0.755147 0.795283 0.255133
H21   H     H_    0.710670 0.587901 0.741637 0.214589
H22   H     H_    0.791338 0.725027 0.762092 0.208636
H23   H     H_    0.688121 0.877957 0.539723 0.163819
H24   H     H_    0.293493 0.399257 0.236398 0.061650
H25   H     H_    0.200730 0.146461 0.574911 0.207838
H26   H     H_    0.205865 0.121627 0.455254 0.193775
H27   H     H_    0.177037 0.906331 0.481590 0.127108
H28   H     H_    0.945271 0.385718 0.381466 0.150868
H29   H     H_    0.195963 0.378257 0.386369 0.136662
H30   H     H_    0.027162 0.676040 0.678171 0.209589
N1    N     N_R   0.856900 0.500860 0.500610 -0.118737
N2    N     N_R   0.142540 0.500820 0.500610 -0.106644
O1    O     O_R   0.385310 0.683210 0.499990 -0.598608
O2    O     O_2   0.137582 0.528047 0.251123 -0.591365
O3    O     O_R   0.614650 0.683240 0.500000 -0.633396
O4    O     O_R   0.319830 0.499970 0.632240 -0.612417
O5    O     O_R   0.549170 0.500000 0.632250 -0.626629
O6    O     O_R   0.385350 0.316760 0.500000 -0.620946
O7    O     O_R   0.614690 0.316790 0.500010 -0.622960
O8    O     O_R   0.450830 0.500000 0.367750 -0.618479
O9    O     O_R   0.680170 0.500030 0.367760 -0.604111
O10   O     O_2   0.235605 0.873677 0.667020 -0.580899
Zn1   Zn    Zn3+2 0.346870 0.499980 0.499990 0.958128
Zn2   Zn    Zn3+2 0.653130 0.500020 0.500010 0.950476

loop_
_geom_bond_atom_site_label_1
_geom_bond_atom_site_label_2
_ccdc_geom_bond_type
C30   H9    S    
C17   H27   S    
C18   C21   A    
C1    O3    A    
C41   C42   A    
C19   C20   A    
C12   C23   A    
C18   C24   S    
C31   H16   S    
C28   C29   A    
C3    C7    A    
C5    C6    A    
C23   C40   A    
C7    C27   A    
O1    Zn1   S    
C40   H1    S    
C31   C32   S    
C3    C38   A    
C8    C9    A    
C20   H29   S    
C35   H22   S    
C9    C10   A    
C41   H10   S    
O7    Zn2   S    
C11   C31   S    
C33   H17   S    
C13   C14   A    
C34   C41   A    
C17   C33   S    
C36   H20   S    
C22   H30   S    
C29   H8    S    
C24   C35   S    
C6    H5    S    
C1    O1    A    
C5    H12   S    
C19   N1    A    
C1    C9    S    
C4    O5    A    
C39   C40   A    
C23   C28   A    
C21   N2    A    
C16   O6    A    
C35   C36   S    
C4    O4    A    
O6    Zn1   S    
C28   H7    S    
C6    C27   A    
C15   H25   S    
C37   H24   S    
C22   H3    S    
C20   N2    A    
C42   H6    S    
C7    H2    S    
O4    Zn1   S    
C37   O2    D    
O3    Zn2   S    
C26   C30   A    
C18   N1    A    
C25   O8    A    
C22   C24   S    
C2    C5    A    
C12   C34   A    
C36   H19   S    
C32   H11   S    
C10   H23   S    
C15   C17   S    
C8    C14   A    
C32   H13   S    
C12   C30   A    
C34   C38   A    
C36   H18   S    
C4    C26   S    
C25   C27   S    
O8    Zn1   S    
C8    C17   S    
C24   H4    S    
C31   H15   S    
C2    C3    A    
C37   C39   S    
C11   C13   A    
C38   C39   A    
C2    C42   A    
C15   H26   S    
C16   O7    A    
N2    Zn1   S    
C33   O10   D    
N1    Zn2   S    
C10   C11   A    
O9    Zn2   S    
C26   C29   A    
C13   C16   S    
C25   O9    A    
C14   C15   S    
C19   H28   S    
C35   H21   S    
C21   C22   S    
C32   H14   S    
O5    Zn2   S    
