data_mof_unit_16947.cif
_audit_creation_date              2012-12-11T14:03:32-0500
_audit_creation_method            fapswitch 2.2
_symmetry_space_group_name_H-M    P1
_symmetry_Int_Tables_number       1
_space_group_crystal_system       triclinic
_cell_length_a                    6.935536
_cell_length_b                    11.434974
_cell_length_c                    18.684907
_cell_angle_alpha                 90.000014
_cell_angle_beta                  92.786731
_cell_angle_gamma                 89.999965
_cell_volume                      1480.10410142

loop_
_atom_site_label
_atom_site_type_symbol
_atom_type_description
_atom_site_fract_x
_atom_site_fract_y
_atom_site_fract_z
_atom_type_partial_charge
O1    O     O_R   0.330540 0.606360 0.598870 -0.520093
O2    O     O_R   0.669460 0.106360 0.401130 -0.520093
O3    O     O_R   0.026770 0.620470 0.750430 -0.535822
O4    O     O_R   0.973230 0.120470 0.249570 -0.535824
O5    O     O_R   0.856460 0.393640 0.750930 -0.545425
O6    O     O_R   0.143540 0.893640 0.249070 -0.545425
C1    C     C_R   0.198584 0.648141 0.774657 0.679458
C2    C     C_R   0.801416 0.148141 0.225343 0.679457
O7    O     O_R   0.000920 0.620350 0.599420 -0.535602
O8    O     O_R   0.999080 0.120350 0.400580 -0.535603
O9    O     O_R   0.830430 0.393520 0.598850 -0.547329
O10   O     O_R   0.169570 0.893520 0.401150 -0.547329
C3    C     C_R   0.167414 0.646126 0.573665 0.806801
C4    C     C_R   0.832586 0.146126 0.426335 0.806801
O11   O     O_R   0.356570 0.606480 0.750960 -0.535627
O12   O     O_R   0.643430 0.106480 0.249040 -0.535627
O13   O     O_3   0.176990 0.425580 0.674890 -0.378956
O14   O     O_3   0.823010 0.925580 0.325110 -0.378956
V1    V     V_3+5 0.902170 0.513810 0.674910 1.505441
V2    V     V_3+5 0.097830 0.013810 0.325090 1.505439
O15   O     O_R   0.500800 0.379530 0.599380 -0.526932
O16   O     O_R   0.499200 0.879530 0.400620 -0.526932
C5    C     C_R   0.667039 0.349228 0.576289 0.764578
C6    C     C_R   0.332961 0.849228 0.423711 0.764580
O17   O     O_R   0.526650 0.379650 0.750390 -0.546872
O18   O     O_R   0.473350 0.879650 0.249610 -0.546872
C7    C     C_R   0.698531 0.351607 0.774411 0.705177
C8    C     C_R   0.301469 0.851607 0.225589 0.705176
V3    V     V_3+5 0.402160 0.486190 0.674900 1.508975
V4    V     V_3+5 0.597840 0.986190 0.325100 1.508975
O19   O     O_3   0.677210 0.574420 0.674910 -0.354209
O20   O     O_3   0.322790 0.074420 0.325090 -0.354210
C9    C     C_R   0.719748 0.069781 0.877965 0.253082
C10   C     C_R   0.280256 0.569781 0.122035 0.253082
H1    H     H_    0.693705 0.116781 0.766572 0.148698
H2    H     H_    0.306302 0.616782 0.233427 0.148697
H3    H     H_    0.742089 0.938730 0.998266 0.183466
H4    H     H_    0.257895 0.438729 0.001734 0.183466
C11   C     C_R   0.714548 0.268828 0.834087 -0.085305
C12   C     C_R   0.285453 0.768827 0.165913 -0.085306
C13   C     C_R   0.793762 0.350121 0.180361 -0.059976
C14   C     C_R   0.206256 0.850121 0.819639 -0.059976
C15   C     C_R   0.784240 0.431600 0.125165 -0.031209
C16   C     C_R   0.215789 0.931601 0.874835 -0.031208
C17   C     C_R   0.767377 0.395156 0.053989 -0.130758
C18   C     C_R   0.232648 0.895156 0.946011 -0.130757
C19   C     C_R   0.759354 0.274650 0.035971 0.102822
C20   C     C_R   0.240651 0.774650 0.964029 0.102821
C21   C     C_R   0.768643 0.191672 0.092997 0.085646
C22   C     C_R   0.231352 0.691672 0.907003 0.085645
C23   C     C_R   0.743032 0.233875 0.963455 0.037295
C24   C     C_R   0.256969 0.733874 0.036545 0.037294
C25   C     C_R   0.736564 0.111148 0.949433 0.076424
C26   C     C_R   0.263434 0.611148 0.050567 0.076425
C27   C     C_R   0.746529 0.032234 0.006843 -0.176759
C28   C     C_R   0.253460 0.532234 0.993157 -0.176759
C29   C     C_R   0.762169 0.071566 0.077091 -0.216754
C30   C     C_R   0.237816 0.571565 0.922910 -0.216754
C31   C     C_R   0.732456 0.311030 0.904196 -0.226651
C32   C     C_R   0.267544 0.811029 0.095804 -0.226652
C33   C     C_R   0.707919 0.148906 0.821138 -0.204620
C34   C     C_R   0.292085 0.648907 0.178862 -0.204619
C35   C     C_R   0.785777 0.230600 0.165108 -0.052205
C36   C     C_R   0.214223 0.730600 0.834892 -0.052206
H5    H     H_    0.735928 0.404673 0.910302 0.115874
H6    H     H_    0.264066 0.904671 0.089698 0.115874
H7    H     H_    0.807884 0.380401 0.235320 0.111773
H8    H     H_    0.192141 0.880401 0.764680 0.111774
H9    H     H_    0.761436 0.463963 0.014658 0.116052
H10   H     H_    0.238606 0.963964 0.985342 0.116051
H11   H     H_    0.790489 0.524060 0.137606 0.126419
H12   H     H_    0.209558 0.024061 0.862394 0.126418
H13   H     H_    0.769282 0.006245 0.119086 0.122671
H14   H     H_    0.230695 0.506244 0.880914 0.122670
C37   C     C_2   0.825553 0.234455 0.483894 -0.352751
C38   C     C_2   0.174447 0.734455 0.516106 -0.352752
H15   H     H_    0.953330 0.288479 0.492896 0.150152
H16   H     H_    0.046668 0.788477 0.507102 0.150155
C39   C     C_2   0.668386 0.254090 0.523063 -0.023008
C40   C     C_2   0.331614 0.754092 0.476938 -0.023007
I1    I     I_    0.414899 0.146032 0.520649 -0.385441
I2    I     I_    0.585107 0.646039 0.479355 -0.385440
Br1   Br    Br    0.711849 0.906192 0.853815 -0.628497
Br2   Br    Br    0.288168 0.406193 0.146185 -0.628498

loop_
_geom_bond_atom_site_label_1
_geom_bond_atom_site_label_2
_ccdc_geom_bond_type
C21   C35   A    
C22   C36   A    
O4    C2    A    
V1    O19   S    
C21   C29   A    
C19   C21   A    
O9    V1    S    
C10   Br2   S    
C12   C32   A    
C38   H16   S    
O3    C1    A    
C8    C12   S    
O12   V4    S    
C9    Br1   S    
C10   C34   A    
C12   C34   A    
O17   V3    S    
C17   C19   A    
C29   H13   S    
O7    C3    A    
C24   C32   A    
O5    C7    A    
C6    C40   S    
O6    C8    A    
O8    V2    S    
O3    V1    S    
O14   V4    S    
C24   C26   A    
C20   C22   A    
C32   H6    S    
C2    O12   A    
C14   H8    S    
C13   C15   A    
C14   C16   A    
H2    C34   S    
O7    V1    S    
O11   V3    S    
C18   C20   A    
C25   C27   A    
C9    C25   A    
C11   C33   A    
C26   C28   A    
C17   H9    S    
C22   C30   A    
C13   H7    S    
C40   I2    S    
O8    C4    A    
C7    C11   S    
C39   I1    S    
C19   C23   A    
C1    O11   A    
C16   C18   A    
O15   V3    S    
C23   C25   A    
H3    C27   S    
O1    C3    A    
C37   H15   S    
C3    C38   S    
C11   C31   A    
O10   V2    S    
O1    V3    S    
H1    C33   S    
C15   C17   A    
C10   C26   A    
C27   C29   A    
O16   C6    A    
C23   C31   A    
C13   C35   A    
C14   C36   A    
C30   H14   S    
V2    O20   S    
C15   H11   S    
O16   V4    S    
C38   C40   D    
O18   V4    S    
O5    V1    S    
O17   C7    A    
O6    V2    S    
O10   C6    A    
O18   C8    A    
O2    V4    S    
C4    C37   S    
O15   C5    A    
V3    O19   S    
O13   V3    S    
C31   H5    S    
V4    O20   S    
O9    C5    A    
O13   V1    S    
C28   C30   A    
C16   H12   S    
O14   V2    S    
O2    C4    A    
C1    C36   S    
C18   H10   S    
C2    C35   S    
O4    V2    S    
C20   C24   A    
H4    C28   S    
C9    C33   A    
C5    C39   S    
C37   C39   D    
