data_mof_unit_56211.cif
_audit_creation_date              2012-12-11T15:55:40-0500
_audit_creation_method            fapswitch 2.2
_symmetry_space_group_name_H-M    P1
_symmetry_Int_Tables_number       1
_space_group_crystal_system       triclinic
_cell_length_a                    6.938594
_cell_length_b                    14.554995
_cell_length_c                    16.071186
_cell_angle_alpha                 89.975397
_cell_angle_beta                  89.903409
_cell_angle_gamma                 90.015371
_cell_volume                      1623.04586054

loop_
_atom_site_label
_atom_site_type_symbol
_atom_type_description
_atom_site_fract_x
_atom_site_fract_y
_atom_site_fract_z
_atom_type_partial_charge
O1    O     O_R   0.505680 0.583900 0.413320 -0.540869
O2    O     O_R   0.176010 0.594950 0.586080 -0.543362
O3    O     O_R   0.005680 0.416100 0.586680 -0.537249
C1    C     C_R   0.344988 0.617127 0.615059 0.684540
O4    O     O_R   0.175960 0.594930 0.413930 -0.542965
O5    O     O_R   0.005640 0.416080 0.413300 -0.540566
C2    C     C_R   0.345094 0.617069 0.384940 0.687334
O6    O     O_R   0.505720 0.583920 0.586700 -0.540853
O7    O     O_3   0.339190 0.441320 0.500000 -0.369064
V1    V     V_3+5 0.064350 0.510890 0.500000 1.395889
O8    O     O_R   0.675920 0.405050 0.413920 -0.543423
C3    C     C_R   0.845036 0.383078 0.384876 0.709529
O9    O     O_R   0.675960 0.405070 0.586070 -0.542750
C4    C     C_R   0.844612 0.383222 0.615081 0.696611
V2    V     V_3+5 0.564340 0.489110 0.500000 1.393472
O10   O     O_3   0.839370 0.558680 0.500000 -0.370575
C5    C     C_R   0.009523 0.253187 0.689913 0.103732
C6    C     C_R   0.852661 0.313069 0.681947 -0.112119
C7    C     C_R   0.700595 0.303187 0.739441 -0.174457
H1    H     H_    0.577659 0.348517 0.736277 0.130833
C8    C     C_R   0.712367 0.239431 0.805347 -0.181396
H2    H     H_    0.597056 0.236658 0.850624 0.123272
C9    C     C_R   0.877167 0.184135 0.815970 -0.107768
C10   C     C_R   0.021571 0.190369 0.755292 0.104859
C11   C     C_3   0.231706 0.207218 0.766131 -0.416331
C12   C     C_3   0.218738 0.275173 0.694628 -0.395218
H3    H     H_    0.319466 0.145496 0.751168 0.175274
H4    H     H_    0.264100 0.240276 0.826864 0.166061
H5    H     H_    0.298312 0.252590 0.638144 0.176315
H6    H     H_    0.244500 0.347545 0.713710 0.166692
C13   C     C_R   0.041329 0.210672 0.228364 -0.225163
H7    H     H_    0.177937 0.177729 0.215416 0.186809
C14   C     C_R   0.031481 0.273886 0.293841 -0.161482
H8    H     H_    0.161400 0.288631 0.328634 0.139019
C15   C     C_R   0.855841 0.315961 0.315225 -0.105886
C16   C     C_R   0.691302 0.294949 0.268188 -0.224303
H9    H     H_    0.554396 0.326881 0.282866 0.128497
C17   C     C_R   0.701312 0.234639 0.200194 0.432395
C18   C     C_R   0.876945 0.189039 0.181169 -0.151603
C19   C     C_R   0.188139 0.724685 0.717642 -0.157678
H10   H     H_    0.047509 0.706371 0.693710 0.116709
C20   C     C_R   0.199302 0.788257 0.782846 -0.152209
H11   H     H_    0.066683 0.817113 0.806951 0.118617
C21   C     C_R   0.378764 0.814289 0.816262 -0.045901
C22   C     C_R   0.546740 0.774937 0.782611 -0.157382
H12   H     H_    0.687369 0.793246 0.806547 0.116322
C23   C     C_R   0.535577 0.711365 0.717407 -0.152672
H13   H     H_    0.668196 0.682507 0.693304 0.118599
C24   C     C_R   0.356124 0.685388 0.683946 -0.046763
C25   C     C_R   0.188250 0.724455 0.282475 -0.155930
H14   H     H_    0.047612 0.706059 0.306566 0.116910
C26   C     C_R   0.199316 0.788052 0.217256 -0.151460
H15   H     H_    0.066677 0.816847 0.193282 0.118679
C27   C     C_R   0.378759 0.814203 0.183684 -0.048840
C28   C     C_R   0.546816 0.774896 0.217115 -0.154837
H16   H     H_    0.687446 0.793280 0.193008 0.116284
C29   C     C_R   0.535748 0.711291 0.282333 -0.152344
H17   H     H_    0.668375 0.682470 0.306293 0.118432
C30   C     C_R   0.356319 0.685267 0.316002 -0.047195
O11   O     O_R   0.229200 0.915950 0.913350 -0.541392
O12   O     O_R   0.559090 0.905000 0.086080 -0.542624
O13   O     O_R   0.729280 0.083880 0.086680 -0.516346
C31   C     C_R   0.389966 0.882671 0.114963 0.696723
O14   O     O_R   0.558920 0.904980 0.913920 -0.544432
O15   O     O_R   0.729110 0.083860 0.913300 -0.544225
C32   C     C_R   0.389922 0.882689 0.885034 0.682351
O16   O     O_R   0.229360 0.915970 0.086730 -0.540316
O17   O     O_3   0.395680 0.058580 0.000030 -0.368044
V3    V     V_3+5 0.670570 0.989070 0.999990 1.414306
O18   O     O_R   0.058820 0.094950 0.913870 -0.542367
C33   C     C_R   0.889769 0.117559 0.885576 0.681860
O19   O     O_R   0.058990 0.094970 0.086020 -0.540176
C34   C     C_R   0.889373 0.118550 0.113888 0.708384
V4    V     V_3+5 0.170560 0.010930 0.999930 1.411292
O20   O     O_3   0.895590 0.941310 0.999960 -0.373767
O21   O     O_3   0.535127 0.218245 0.155127 -0.576836
C35   C     C_3   0.533088 0.274125 0.082903 0.106574
H18   H     H_    0.462755 0.234188 0.032545 0.156352
H19   H     H_    0.679790 0.292423 0.059270 0.074126
C36   C     C_3   0.414478 0.361230 0.098246 -0.340070
H20   H     H_    0.269985 0.342147 0.122742 0.208777
H21   H     H_    0.487937 0.404950 0.145128 0.186824
C37   C     C_3   0.389383 0.416360 0.018197 -0.839502
H22   H     H_    0.532154 0.436896 0.992847 0.232441
H23   H     H_    0.304451 0.479386 0.031391 0.236496
H24   H     H_    0.311372 0.374943 0.970912 0.222515

loop_
_geom_bond_atom_site_label_1
_geom_bond_atom_site_label_2
_ccdc_geom_bond_type
C28   H16   S    
C4    C6    S    
C21   C32   S    
C15   C16   A    
C1    O6    A    
C23   C24   A    
C17   O21   S    
C35   H18   S    
C21   C22   A    
C11   H4    S    
C37   H22   S    
C5    C12   S    
C16   H9    S    
C7    C8    A    
O5    C3    A    
C17   C18   A    
C29   C30   A    
C27   C31   S    
O17   V4    S    
C19   C24   A    
C6    C7    A    
C22   C23   A    
O12   C31   A    
O8    V2    S    
C23   H13   S    
O17   V3    S    
O18   V4    S    
C25   C26   A    
C9    C10   A    
C13   C14   A    
O13   C34   A    
O18   C33   A    
O1    V2    S    
O7    V1    S    
C19   C20   A    
O11   C32   A    
O9    C4    A    
C20   C21   A    
C36   C37   S    
C2    C30   S    
C26   C27   A    
C14   H8    S    
C35   H19   S    
C31   O16   A    
C5    C10   A    
V4    O20   S    
C9    C33   S    
C10   C11   S    
O19   V4    S    
O4    C2    A    
C36   H20   S    
C25   H14   S    
C11   C12   S    
C22   H12   S    
O13   V3    S    
O14   C32   A    
O2    C1    A    
C28   C29   A    
C13   H7    S    
O9    V2    S    
C5    C6    A    
O16   V4    S    
O14   V3    S    
O21   C35   S    
C3    C15   S    
O3    C4    A    
C36   H21   S    
C19   H10   S    
C37   H23   S    
C12   H6    S    
O6    V2    S    
C8    C9    A    
C20   H11   S    
C25   C30   A    
O2    V1    S    
C26   H15   S    
C35   C36   S    
O12   V3    S    
C27   C28   A    
O1    C2    A    
O19   C34   A    
O5    V1    S    
O8    C3    A    
C11   H3    S    
C1    C24   S    
C7    H1    S    
C16   C17   A    
O7    V2    S    
O4    V1    S    
O3    V1    S    
O15   C33   A    
C29   H17   S    
O15   V3    S    
O11   V4    S    
C14   C15   A    
C13   C18   A    
V3    O20   S    
C18   C34   S    
C37   H24   S    
C12   H5    S    
V1    O10   S    
C8    H2    S    
V2    O10   S    
