data_mof_unit_57384.cif
_audit_creation_date              2013-03-05T16:48:45-0500
_audit_creation_method            fapswitch 2.2
_symmetry_space_group_name_H-M    P1
_symmetry_Int_Tables_number       1
_space_group_crystal_system       triclinic
_cell_length_a                    27.76702
_cell_length_b                    8.988125
_cell_length_c                    8.084565
_cell_angle_alpha                 89.999753
_cell_angle_beta                  89.999809
_cell_angle_gamma                 90.0
_cell_volume                      2017.69275158

loop_
_atom_site_label
_atom_site_type_symbol
_atom_site_description
_atom_site_fract_x
_atom_site_fract_y
_atom_site_fract_z
_atom_type_partial_charge
O1    O     O_R   0.500000 0.285350 0.636850 -0.619583
O2    O     O_R   0.500000 0.714650 0.363150 -0.619583
O3    O     O_R   0.500000 0.714650 0.636850 -0.620007
O4    O     O_R   0.500000 0.285350 0.363150 -0.620007
C1    C     C_R   0.500000 0.217812 0.500000 0.913547
C2    C     C_R   0.500000 0.782188 0.500000 0.913550
O5    O     O_R   0.428760 0.500000 0.636860 -0.565097
O6    O     O_R   0.571240 0.500000 0.363140 -0.565119
O7    O     O_R   0.571240 0.500000 0.636860 -0.565119
O8    O     O_R   0.428760 0.500000 0.363140 -0.565097
C3    C     C_R   0.405589 0.499999 0.500000 1.033336
C4    C     C_R   0.594410 0.499999 0.500000 1.033434
Zn1   Zn    Zn3+2 0.500000 0.500000 0.682780 1.107765
Zn2   Zn    Zn3+2 0.500000 0.500000 0.317220 1.107765
C5    C     C_R   0.176956 0.369681 0.470683 0.702169
C6    C     C_R   0.823068 0.630305 0.470921 0.702238
C7    C     C_R   0.176956 0.630260 0.529327 0.702164
C8    C     C_R   0.823067 0.369634 0.529069 0.702245
O9    O     O_2   0.201974 0.243393 0.442662 -0.492194
O10   O     O_2   0.798059 0.756674 0.443259 -0.491779
O11   O     O_2   0.201972 0.756549 0.557349 -0.492199
O12   O     O_2   0.798058 0.243266 0.556732 -0.491775
N1    N     N_R   0.200804 0.499971 0.500005 -0.292415
N2    N     N_R   0.799212 0.499970 0.499995 -0.292626
C9    C     C_R   0.276992 0.500337 0.650043 0.595488
C10   C     C_R   0.723006 0.496641 0.650008 0.595837
C11   C     C_R   0.276991 0.499620 0.349962 0.595487
C12   C     C_R   0.723006 0.503312 0.349985 0.595840
C13   C     C_R   0.327043 0.500367 0.650744 0.509460
C14   C     C_R   0.672955 0.496576 0.650703 0.509330
C15   C     C_R   0.327042 0.499609 0.349260 0.509459
C16   C     C_R   0.672955 0.503398 0.349293 0.509330
C17   C     C_R   0.252076 0.499974 0.500003 -0.207215
C18   C     C_R   0.747931 0.499972 0.499996 -0.207987
C19   C     C_R   0.101256 0.499969 0.500004 -0.065698
C20   C     C_R   0.898768 0.499969 0.499996 -0.065787
C21   C     C_R   0.126623 0.367041 0.470598 -0.129742
C22   C     C_R   0.873401 0.632924 0.470765 -0.129898
C23   C     C_R   0.126623 0.632898 0.529411 -0.129740
C24   C     C_R   0.873401 0.367013 0.529226 -0.129900
C25   C     C_R   0.101250 0.236100 0.437361 -0.218576
C26   C     C_R   0.898775 0.763887 0.437628 -0.218554
C27   C     C_R   0.101248 0.763839 0.562647 -0.218574
C28   C     C_R   0.898775 0.236050 0.562364 -0.218556
C29   C     C_R   0.352678 0.499993 0.500001 -0.569304
C30   C     C_R   0.647321 0.499992 0.499999 -0.569337
C31   C     C_R   0.974811 0.363767 0.512876 -0.056070
C32   C     C_R   0.025214 0.636163 0.512984 -0.056042
C33   C     C_R   0.974811 0.636169 0.487122 -0.056071
C34   C     C_R   0.025214 0.363774 0.487019 -0.056040
C35   C     C_R   0.949564 0.499968 0.499998 -0.054996
C36   C     C_R   0.050460 0.499969 0.500002 -0.055017
C37   C     C_R   0.948813 0.234673 0.557218 0.748054
C38   C     C_R   0.051210 0.765233 0.557431 0.747982
C39   C     C_R   0.948814 0.765263 0.442777 0.748054
C40   C     C_R   0.051212 0.234704 0.442574 0.747980
C41   C     C_1   0.500000 0.065053 0.500000 -0.129282
C42   C     C_1   0.500000 0.934947 0.500000 -0.129282
N3    N     N_1   0.500000 0.500000 0.073640 0.027232
N4    N     N_1   0.500000 0.500000 0.926360 0.027232
F1    F     F_    0.350080 0.499306 0.201069 -0.516923
F2    F     F_    0.649915 0.506928 0.201142 -0.517063
F3    F     F_    0.350081 0.500681 0.798934 -0.516923
F4    F     F_    0.649916 0.493057 0.798855 -0.517063
F5    F     F_    0.252511 0.499858 0.204606 -0.517678
F6    F     F_    0.747476 0.505923 0.204623 -0.517560
F7    F     F_    0.252512 0.500091 0.795401 -0.517677
F8    F     F_    0.747477 0.494022 0.795369 -0.517560
H1    H     H_    0.119959 0.134598 0.404189 0.219677
H2    H     H_    0.880066 0.865414 0.404550 0.219611
H3    H     H_    0.119957 0.865341 0.595822 0.219677
H4    H     H_    0.880065 0.134523 0.595441 0.219611
F9    F     F_    0.971315 0.112054 0.615534 -0.540177
F10   F     F_    0.028707 0.887848 0.615758 -0.540242
F11   F     F_    0.971316 0.887883 0.384463 -0.540178
F12   F     F_    0.028709 0.112088 0.384247 -0.540242

loop_
_geom_bond_atom_site_label_1
_geom_bond_atom_site_label_2
_geom_bond_distance
_ccdc_geom_bond_type
O5    Zn1   2.012659 S    
C13   F3    1.358143 S    
C5    O9    1.349932 S    
C40   F12   1.351798 S    
C14   F4    1.358259 S    
C15   F1    1.358138 S    
C12   F6    1.357683 S    
C9    F7    1.357583 S    
O3    C2    1.261964 A    
Zn1   N4    1.969238 S    
C11   C17   1.396441 A    
C32   C38   1.412809 A    
Zn2   N3    1.969238 S    
C7    N1    1.366039 A    
O1    C1    1.261965 A    
C19   C21   1.407176 A    
C22   C26   1.397773 A    
C32   C36   1.414545 A    
C26   H2    1.083565 S    
C7    C23   1.397796 A    
C8    C24   1.397799 A    
C5    C21   1.397793 A    
O7    Zn1   2.012654 S    
C38   F10   1.351798 S    
C28   C37   1.390098 A    
C10   C18   1.396681 A    
N1    C17   1.423673 S    
N2    C18   1.423926 S    
C34   C36   1.414545 A    
O3    Zn1   1.964707 S    
O6    C4    1.279904 A    
C31   C37   1.412778 A    
C39   F11   1.351782 S    
C5    N1    1.366040 A    
C12   C18   1.396682 A    
N3    N4    1.190694 T    
C6    N2    1.366145 A    
C21   C25   1.397763 A    
O2    C2    1.261965 A    
O5    C3    1.279910 A    
C31   C34   1.415080 A    
C9    C13   1.389773 A    
C11   C15   1.389776 A    
C20   C24   1.407142 A    
C4    C30   1.469175 S    
O8    Zn2   2.012656 S    
C31   C35   1.414535 A    
O6    Zn2   2.012656 S    
C33   C35   1.414535 A    
C33   C39   1.412777 A    
C7    O11   1.349931 S    
C13   C29   1.411346 A    
C19   C23   1.407173 A    
C25   C40   1.390102 A    
C11   F5    1.357585 S    
C26   C39   1.390096 A    
C27   C38   1.390100 A    
C12   C16   1.389768 A    
C6    O10   1.349942 S    
C20   C35   1.410467 A    
C32   C33   1.415076 A    
C10   C14   1.389770 A    
C8    N2    1.366143 A    
C3    C29   1.469186 S    
O1    Zn1   1.964711 S    
C25   H1    1.083566 S    
C27   H3    1.083566 S    
C8    O12   1.349942 S    
C16   C30   1.411397 A    
C14   C30   1.411398 A    
C37   F9    1.351783 S    
O4    C1    1.261964 A    
C23   C27   1.397761 A    
C1    C41   1.373021 S    
C10   F8    1.357684 S    
C20   C22   1.407141 A    
C16   F2    1.358260 S    
C41   C42   1.169408 T    
C28   H4    1.083566 S    
C2    C42   1.373021 S    
O4    Zn2   1.964708 S    
O2    Zn2   1.964710 S    
O7    C4    1.279906 A    
C34   C40   1.412810 A    
O8    C3    1.279911 A    
C24   C28   1.397774 A    
C15   C29   1.411349 A    
C6    C22   1.397796 A    
C19   C36   1.410451 A    
C9    C17   1.396444 A    
