data_mof_unit_40352.cif
_audit_creation_date              2012-12-10T18:09:31-0500
_audit_creation_method            fapswitch 2.2
_symmetry_space_group_name_H-M    P1
_symmetry_Int_Tables_number       1
_space_group_crystal_system       triclinic
_cell_length_a                    15.058399
_cell_length_b                    15.464239
_cell_length_c                    9.405617
_cell_angle_alpha                 89.958024
_cell_angle_beta                  89.652694
_cell_angle_gamma                 90.047663
_cell_volume                      2190.21322209

loop_
_atom_site_label
_atom_site_type_symbol
_atom_type_description
_atom_site_fract_x
_atom_site_fract_y
_atom_site_fract_z
_atom_type_partial_charge
C1    C     C_R   0.122770 0.383019 0.499752 0.945263
C2    C     C_R   0.121394 0.618734 0.499378 0.931978
C3    C     C_R   0.622767 0.883015 0.499751 0.945220
C4    C     C_R   0.621388 0.118741 0.499377 0.931920
C5    C     C_3   0.091411 0.515774 0.083033 -0.185715
C6    C     C_3   0.091672 0.514802 0.915277 -0.210785
C7    C     C_3   0.591411 0.015770 0.083032 -0.185671
C8    C     C_3   0.591669 0.014816 0.915276 -0.210859
C9    C     C_R   0.878906 0.380846 0.500272 0.918327
C10   C     C_R   0.881934 0.622287 0.500241 0.799934
C11   C     C_R   0.378911 0.880840 0.500270 0.918262
C12   C     C_R   0.381934 0.122288 0.500243 0.799922
C13   C     C_3   0.850110 0.225461 0.559849 0.042713
C14   C     C_3   0.780098 0.291666 0.343970 0.054648
C15   C     C_3   0.825906 0.755133 0.630344 0.102494
C16   C     C_3   0.822919 0.750398 0.363849 0.088285
C17   C     C_3   0.350082 0.725479 0.560025 0.042770
C18   C     C_3   0.280194 0.791569 0.343946 0.054718
C19   C     C_3   0.325770 0.255005 0.630564 0.102462
C20   C     C_3   0.323071 0.250539 0.364050 0.088321
C21   C     C_3   0.276056 0.655422 0.575354 0.217285
C22   C     C_3   0.214030 0.714756 0.341815 0.171814
C23   C     C_3   0.248735 0.321175 0.638376 0.231542
C24   C     C_3   0.254737 0.325895 0.366907 0.179615
C25   C     C_3   0.776092 0.155395 0.575186 0.217285
C26   C     C_3   0.713939 0.214848 0.341817 0.171780
C27   C     C_3   0.748853 0.821280 0.638231 0.231653
C28   C     C_3   0.754614 0.825778 0.366731 0.179496
C29   C     C_3   0.726019 0.338854 0.591592 0.735407
C30   C     C_3   0.715536 0.651860 0.505358 0.736227
C31   C     C_3   0.225974 0.838895 0.591416 0.735355
C32   C     C_3   0.215535 0.151861 0.505016 0.736213
C33   C     C_3   0.809623 0.311818 0.500700 -0.048317
C34   C     C_3   0.812407 0.691741 0.500529 -0.186858
C35   C     C_3   0.309630 0.811808 0.500691 -0.048362
C36   C     C_3   0.312409 0.191744 0.500541 -0.186823
C37   C     C_3   0.190801 0.686974 0.497743 -0.037349
C38   C     C_3   0.193017 0.316164 0.499578 -0.110066
C39   C     C_3   0.690792 0.186986 0.497739 -0.037329
C40   C     C_3   0.693011 0.816159 0.499571 -0.110033
C41   C     C_3   0.153965 0.767022 0.578121 -0.708515
C42   C     C_3   0.147087 0.226448 0.493423 -0.526313
C43   C     C_3   0.653997 0.266996 0.578269 -0.708536
C44   C     C_3   0.647075 0.726437 0.493739 -0.526306
C45   C     C_3   0.942276 0.567745 0.084050 -0.160669
C46   C     C_3   0.943050 0.568326 0.916925 -0.171171
C47   C     C_3   0.970618 0.415963 0.084001 -0.218201
C48   C     C_3   0.969911 0.416223 0.916526 -0.182792
C49   C     C_3   0.442281 0.067749 0.084050 -0.160756
C50   C     C_3   0.443037 0.068315 0.916924 -0.171016
C51   C     C_3   0.470616 0.915964 0.084001 -0.218211
C52   C     C_3   0.469924 0.916218 0.916526 -0.182775
Cu1   Cu    Cu3+1 0.000100 0.500000 0.642410 0.951100
Cu2   Cu    Cu3+1 0.000100 0.500000 0.357590 0.947009
Cu3   Cu    Cu3+1 0.500100 1.000000 0.642410 0.951036
Cu4   Cu    Cu3+1 0.500100 1.000000 0.357590 0.947082
H1    H     H_    0.899324 0.202059 0.479787 0.172839
H2    H     H_    0.840351 0.271987 0.282732 0.163490
H3    H     H_    0.888793 0.791323 0.610669 0.174074
H4    H     H_    0.891011 0.778583 0.365350 0.158668
H5    H     H_    0.399343 0.702035 0.480069 0.172853
H6    H     H_    0.340483 0.771853 0.282830 0.163452
H7    H     H_    0.388697 0.291187 0.611185 0.174041
H8    H     H_    0.391152 0.278744 0.365854 0.158636
H9    H     H_    0.258550 0.644882 0.689479 0.104244
H10   H     H_    0.151371 0.734178 0.287623 0.104263
H11   H     H_    0.203472 0.305438 0.729271 0.108189
H12   H     H_    0.212811 0.323572 0.269495 0.107554
H13   H     H_    0.758648 0.144793 0.689319 0.104293
H14   H     H_    0.651251 0.234291 0.287731 0.104295
H15   H     H_    0.703681 0.805581 0.729261 0.108166
H16   H     H_    0.712604 0.823403 0.269417 0.107575
H17   H     H_    0.129917 0.747920 0.685844 0.197620
H18   H     H_    0.094905 0.792057 0.520445 0.173862
H19   H     H_    0.096695 0.221162 0.580305 0.219510
H20   H     H_    0.109362 0.221135 0.392225 0.181767
H21   H     H_    0.629990 0.247842 0.685990 0.197586
H22   H     H_    0.594917 0.292069 0.520690 0.173862
H23   H     H_    0.596759 0.721225 0.580744 0.219494
H24   H     H_    0.609261 0.721034 0.392640 0.181718
H25   H     H_    0.963300 0.632349 0.123519 0.184665
H26   H     H_    0.966071 0.632689 0.878875 0.197604
H27   H     H_    0.013609 0.362618 0.123029 0.142805
H28   H     H_    0.011872 0.362459 0.875527 0.169839
H29   H     H_    0.463326 0.132352 0.123492 0.184831
H30   H     H_    0.466030 0.132682 0.878848 0.197544
H31   H     H_    0.513598 0.862617 0.123044 0.142794
H32   H     H_    0.511900 0.862461 0.875542 0.169871
H33   H     H_    0.873031 0.556825 0.121852 0.207058
H34   H     H_    0.873965 0.559066 0.878621 0.185916
H35   H     H_    0.902212 0.401577 0.121850 0.199680
H36   H     H_    0.901072 0.402873 0.880831 0.204138
H37   H     H_    0.373037 0.056850 0.121877 0.206930
H38   H     H_    0.373951 0.059025 0.878646 0.186080
H39   H     H_    0.402205 0.901586 0.121837 0.199826
H40   H     H_    0.401091 0.902852 0.880817 0.204121
H41   H     H_    0.116290 0.579580 0.118966 0.168883
H42   H     H_    0.118643 0.577489 0.876571 0.148416
H43   H     H_    0.138775 0.466538 0.123446 0.165582
H44   H     H_    0.137974 0.463942 0.876389 0.160858
H45   H     H_    0.616296 0.079570 0.118978 0.169001
H46   H     H_    0.618624 0.077513 0.876586 0.148407
H47   H     H_    0.638771 0.966526 0.123431 0.165623
H48   H     H_    0.637983 0.963970 0.876371 0.160826
N1    N     N_3   0.001260 0.500000 0.143650 -0.146829
N2    N     N_3   0.001260 0.500000 0.856350 -0.147295
N3    N     N_3   0.501260 1.000000 0.143650 -0.146868
N4    N     N_3   0.501260 1.000000 0.856350 -0.147321
O1    O     O_R   0.091250 0.408820 0.620260 -0.590795
O2    O     O_R   0.091250 0.408820 0.379740 -0.611133
O3    O     O_R   0.091250 0.591180 0.620260 -0.615491
O4    O     O_R   0.091250 0.591180 0.379740 -0.574255
O5    O     O_R   0.591250 0.908820 0.620260 -0.590899
O6    O     O_R   0.591250 0.908820 0.379740 -0.611056
O7    O     O_R   0.591250 0.091180 0.620260 -0.615566
O8    O     O_R   0.591250 0.091180 0.379740 -0.574109
O9    O     O_R   0.908940 0.408800 0.620260 -0.541250
O10   O     O_R   0.908940 0.408800 0.379740 -0.601315
O11   O     O_R   0.908940 0.591200 0.620260 -0.565700
O12   O     O_R   0.908940 0.591200 0.379740 -0.559897
O13   O     O_R   0.408940 0.908800 0.620260 -0.541234
O14   O     O_R   0.408940 0.908800 0.379740 -0.601249
O15   O     O_R   0.408940 0.091200 0.620260 -0.565695
O16   O     O_R   0.408940 0.091200 0.379740 -0.559844
O17   O     O_3   0.898634 0.236748 0.686383 -0.732901
H49   H     H_    0.857322 0.236903 0.768629 0.359743
O18   O     O_3   0.746411 0.365200 0.273429 -0.715513
H50   H     H_    0.682713 0.372313 0.297692 0.364937
O19   O     O_3   0.837444 0.713573 0.762252 -0.749183
H51   H     H_    0.779356 0.693128 0.798777 0.355556
O20   O     O_3   0.817362 0.703536 0.235657 -0.737962
H52   H     H_    0.754214 0.692183 0.213425 0.357100
O21   O     O_3   0.398530 0.736828 0.686617 -0.732898
H53   H     H_    0.357165 0.737058 0.768793 0.359729
O22   O     O_3   0.246553 0.865065 0.273241 -0.715569
H54   H     H_    0.182839 0.872191 0.297382 0.364912
O23   O     O_3   0.337119 0.213309 0.762399 -0.749216
H55   H     H_    0.278973 0.192887 0.798717 0.355517
O24   O     O_3   0.317694 0.203804 0.235717 -0.737931
H56   H     H_    0.254579 0.192425 0.213283 0.357112
O25   O     O_3   0.305472 0.576444 0.518429 -0.607947
H57   H     H_    0.354180 0.556001 0.580647 0.363122
O26   O     O_3   0.251437 0.644928 0.266569 -0.675870
H58   H     H_    0.252403 0.661708 0.164627 0.306060
O27   O     O_3   0.282440 0.405002 0.658839 -0.677655
H59   H     H_    0.302802 0.408079 0.758921 0.315317
O28   O     O_3   0.298759 0.406097 0.369519 -0.631049
H60   H     H_    0.322988 0.415964 0.272430 0.333377
O29   O     O_3   0.805478 0.076448 0.518105 -0.607919
H61   H     H_    0.854260 0.056000 0.580171 0.363135
O30   O     O_3   0.751319 0.145064 0.266428 -0.675871
H62   H     H_    0.752245 0.161901 0.164511 0.306051
O31   O     O_3   0.782542 0.905131 0.658478 -0.677645
H63   H     H_    0.802989 0.908282 0.758509 0.315340
O32   O     O_3   0.798669 0.905968 0.369098 -0.631156
H64   H     H_    0.822809 0.915766 0.271934 0.333259
O33   O     O_3   0.750515 0.349092 0.735074 -0.759931
H65   H     H_    0.697597 0.368955 0.789346 0.320077
O34   O     O_3   0.692479 0.417926 0.541054 -0.754185
H66   H     H_    0.637978 0.431993 0.596320 0.342644
O35   O     O_3   0.698916 0.607950 0.634174 -0.738798
H67   H     H_    0.742997 0.560849 0.643521 0.346669
O36   O     O_3   0.700611 0.594583 0.391293 -0.705133
H68   H     H_    0.742738 0.545737 0.399114 0.367011
O37   O     O_3   0.250393 0.849236 0.734912 -0.759888
H69   H     H_    0.197440 0.869117 0.789080 0.320120
O38   O     O_3   0.192454 0.917928 0.540679 -0.754196
H70   H     H_    0.137918 0.932024 0.595839 0.342697
O39   O     O_3   0.198780 0.107822 0.633674 -0.738745
H71   H     H_    0.242944 0.060803 0.643126 0.346652
O40   O     O_3   0.200735 0.094695 0.390759 -0.705280
H72   H     H_    0.242751 0.045766 0.398718 0.367048

loop_
_geom_bond_atom_site_label_1
_geom_bond_atom_site_label_2
_ccdc_geom_bond_type
C16   C28   S    
C9    C33   S    
C32   O39   S    
Cu3   O13   S    
C27   O31   S    
O33   H65   S    
Cu2   O12   S    
C9    O9    A    
O39   H71   S    
C4    O7    A    
O36   H68   S    
Cu3   Cu4   S    
C30   C44   S    
C14   C33   S    
O35   H67   S    
O22   H54   S    
C29   O34   S    
C5    N1    S    
C45   C46   S    
C43   H22   S    
C23   O27   S    
C2    O4    A    
C42   H19   S    
O37   H69   S    
Cu4   O16   S    
C20   O24   S    
C26   O30   S    
C38   C42   S    
C19   C36   S    
C5    C6    S    
Cu1   O9    S    
C26   C39   S    
C13   H1    S    
C28   C40   S    
O26   H58   S    
C29   C33   S    
Cu2   O2    S    
C25   O29   S    
C16   H4    S    
C23   H11   S    
C16   O20   S    
C20   C24   S    
C22   H10   S    
C10   O11   A    
O28   H60   S    
C17   H5    S    
C41   H18   S    
C46   H26   S    
Cu1   N2    S    
C48   N2    S    
C5    H43   S    
C19   H7    S    
C47   N1    S    
C12   O16   A    
C22   O26   S    
C28   O32   S    
C24   C38   S    
O30   H62   S    
C47   H27   S    
C12   C36   S    
C45   H33   S    
C18   C35   S    
C15   C34   S    
C13   O17   S    
Cu1   O3    S    
C7    H47   S    
C29   C43   S    
C50   N4    S    
C9    O10   A    
C13   C25   S    
C28   H16   S    
C15   H3    S    
C30   O36   S    
C8    N4    S    
C45   N1    S    
O27   H59   S    
C6    N2    S    
C14   H2    S    
Cu3   O15   S    
C2    O3    A    
C30   C34   S    
C51   C52   S    
C47   C48   S    
C49   H29   S    
C44   H24   S    
C49   N3    S    
C7    C8    S    
C3    O5    A    
C51   H31   S    
O38   H70   S    
C24   H12   S    
C50   H38   S    
C29   O33   S    
Cu3   O5    S    
Cu1   Cu2   S    
C22   C37   S    
C24   O28   S    
C1    O1    A    
C14   O18   S    
C48   H28   S    
Cu4   O14   S    
C20   H8    S    
C19   C23   S    
Cu4   N3    S    
C13   C33   S    
C1    O2    A    
C15   C27   S    
O34   H66   S    
C15   O19   S    
C4    C39   S    
C52   H32   S    
C27   C40   S    
C19   O23   S    
C16   C34   S    
Cu1   O11   S    
Cu4   O8    S    
Cu2   O4    S    
C18   O22   S    
C10   C34   S    
C14   C26   S    
C8    H48   S    
O40   H72   S    
C1    C38   S    
C11   O13   A    
C32   O40   S    
C5    H41   S    
C3    C40   S    
Cu2   O10   S    
C17   O21   S    
O21   H53   S    
C26   H14   S    
C7    N3    S    
C11   O14   A    
C25   H13   S    
O20   H52   S    
C6    H42   S    
C27   H15   S    
O19   H51   S    
Cu1   O1    S    
Cu4   O6    S    
C31   C41   S    
Cu2   N1    S    
C21   H9    S    
C18   C22   S    
C47   H35   S    
C4    O8    A    
C44   H23   S    
C45   H25   S    
C31   O38   S    
C3    O6    A    
C39   C43   S    
O24   H56   S    
C32   C36   S    
C31   O37   S    
C46   H34   S    
C43   H21   S    
C23   C38   S    
O23   H55   S    
C42   H20   S    
Cu3   N4    S    
C11   C35   S    
C21   O25   S    
O25   H57   S    
C25   C39   S    
C2    C37   S    
O17   H49   S    
C12   O15   A    
Cu3   O7    S    
C46   N2    S    
C52   H40   S    
C31   C35   S    
C37   C41   S    
C17   C21   S    
C10   O12   A    
C48   H36   S    
C50   H30   S    
C41   H17   S    
C20   C36   S    
C40   C44   S    
C21   C37   S    
C52   N4    S    
C51   N3    S    
C49   C50   S    
C7    H45   S    
C51   H39   S    
O32   H64   S    
C32   C42   S    
C18   H6    S    
C17   C35   S    
C30   O35   S    
C49   H37   S    
O31   H63   S    
O29   H61   S    
C8    H46   S    
O18   H50   S    
C6    H44   S    
