data_mof_unit_37594.cif
_audit_creation_date              2013-03-05T15:42:48-0500
_audit_creation_method            fapswitch 2.2
_symmetry_space_group_name_H-M    P1
_symmetry_Int_Tables_number       1
_space_group_crystal_system       triclinic
_cell_length_a                    6.935451
_cell_length_b                    14.641779
_cell_length_c                    16.362656
_cell_angle_alpha                 90.382819
_cell_angle_beta                  90.18333
_cell_angle_gamma                 90.170587
_cell_volume                      1661.53114108

loop_
_atom_site_label
_atom_site_type_symbol
_atom_site_description
_atom_site_fract_x
_atom_site_fract_y
_atom_site_fract_z
_atom_type_partial_charge
O1    O     O_R   0.494400 0.416610 0.413880 -0.563766
O2    O     O_R   0.823920 0.406790 0.585520 -0.503665
O3    O     O_R   0.994250 0.583390 0.586120 -0.532520
C1    C     C_R   0.655008 0.386141 0.614539 0.884625
O4    O     O_R   0.824110 0.405730 0.414490 -0.571646
O5    O     O_R   0.994440 0.582310 0.413870 -0.543918
C2    C     C_R   0.654281 0.383302 0.386622 0.854134
O6    O     O_R   0.494210 0.417690 0.586130 -0.567011
O7    O     O_3   0.660810 0.557940 0.500000 -0.270142
V1    V     V_3+5 0.935650 0.489250 0.500000 1.228176
O8    O     O_R   0.324160 0.593210 0.414480 -0.558060
C3    C     C_R   0.155625 0.613846 0.385591 0.897966
O9    O     O_R   0.323970 0.594270 0.585510 -0.569450
C4    C     C_R   0.155164 0.618441 0.611854 0.936404
V2    V     V_3+5 0.435660 0.510750 0.500000 1.197475
O10   O     O_3   0.160630 0.442060 0.500000 -0.270666
H1    H     H_    0.928536 0.922138 0.519741 0.128192
C5    C     C_R   0.272845 0.566061 0.770888 -0.137336
C6    C     C_R   0.322626 0.533454 0.846952 -0.125092
C7    C     C_R   0.295115 0.586685 0.916287 0.342737
C8    C     C_R   0.224288 0.676841 0.908539 0.282647
C9    C     C_R   0.181487 0.714570 0.829772 -0.083963
C10   C     C_R   0.201098 0.655603 0.760231 -0.029279
C11   C     C_R   0.118492 0.807255 0.817763 -0.087194
C12   C     C_R   0.067917 0.836621 0.737649 -0.038085
C13   C     C_R   0.080099 0.775585 0.669383 -0.050525
C14   C     C_R   0.146652 0.684942 0.681100 -0.104415
C15   C     C_R   0.006259 0.927594 0.723930 -0.092749
C16   C     C_R   0.955553 0.957302 0.646321 -0.155285
C17   C     C_R   0.966796 0.898145 0.580091 -0.056014
C18   C     C_R   0.029131 0.808615 0.590523 0.565675
H2    H     H_    0.290501 0.518683 0.720587 0.120273
H3    H     H_    0.375421 0.464145 0.852096 0.154197
H4    H     H_    0.996720 0.977503 0.772720 0.095213
H5    H     H_    0.908340 0.026979 0.637476 0.110804
C19   C     C_2   0.987728 0.714006 0.285921 -0.020828
C20   C     C_2   0.151511 0.677245 0.315669 -0.121286
H6    H     H_    0.850838 0.695273 0.313266 0.114732
H7    H     H_    0.288801 0.690443 0.286789 0.162312
C21   C     C_2   0.978217 0.775523 0.213575 -0.060934
C22   C     C_2   0.125752 0.827087 0.186016 0.519243
H8    H     H_    0.839412 0.779686 0.182922 0.105096
C23   C     C_2   0.778362 0.232328 0.800599 0.261598
C24   C     C_2   0.620099 0.180319 0.816779 -0.316636
H9    H     H_    0.495923 0.181969 0.776477 0.090091
C25   C     C_2   0.794161 0.289613 0.725310 0.529212
C26   C     C_2   0.640074 0.322991 0.684755 -0.313292
H10   H     H_    0.495505 0.308415 0.706188 0.083674
C27   C     C_2   0.774829 0.191705 0.229620 0.341536
C28   C     C_2   0.620304 0.180634 0.178775 -0.207785
H11   H     H_    0.498582 0.226625 0.183121 0.092676
C29   C     C_2   0.788700 0.268612 0.290094 -0.114419
C30   C     C_2   0.636130 0.312748 0.321789 -0.240404
H12   H     H_    0.931366 0.285172 0.313519 0.144885
H13   H     H_    0.491053 0.294393 0.302868 0.109733
O11   O     O_R   0.770210 0.079270 0.910680 -0.549595
O12   O     O_R   0.440150 0.091160 0.082270 -0.544194
O13   O     O_R   0.269970 0.914530 0.082860 -0.504006
C31   C     C_R   0.609503 0.111435 0.112041 0.908017
O14   O     O_R   0.440480 0.090100 0.911240 -0.543828
O15   O     O_R   0.270310 0.913460 0.910610 -0.567370
C32   C     C_R   0.609990 0.113656 0.884580 0.891585
O16   O     O_R   0.769870 0.080340 0.082930 -0.525585
O17   O     O_3   0.603660 0.938980 0.996790 -0.266755
V3    V     V_3+5 0.328750 0.007610 0.996740 1.297774
O18   O     O_R   0.940600 0.902510 0.911180 -0.557614
C33   C     C_R   0.109869 0.876131 0.886200 0.864660
O19   O     O_R   0.940270 0.903570 0.082200 -0.569247
C34   C     C_R   0.108924 0.886704 0.113662 0.931933
V4    V     V_3+5 0.828770 0.986010 0.996670 1.281220
O20   O     O_3   0.103730 0.054750 0.996710 -0.246934
F1    F     F_    0.297305 0.829551 0.226421 -0.691069
N1    N     N_R   0.938381 0.234448 0.856909 0.125125
O21   O     O_R   0.114257 0.227312 0.830270 -0.312547
O22   O     O_R   0.909788 0.254698 0.933490 -0.327276
F2    F     F_    0.974561 0.314020 0.701036 -0.654582
N2    N     N_R   0.932754 0.128186 0.227770 0.098417
O23   O     O_R   0.109279 0.157930 0.233504 -0.368074
O24   O     O_R   0.899445 0.041248 0.236277 -0.376540
N3    N     N_R   0.333775 0.547046 0.994930 0.129965
O25   O     O_R   0.473962 0.488911 0.003288 -0.318321
O26   O     O_R   0.213759 0.558311 0.055108 -0.267643
N4    N     N_R   0.189651 0.726747 0.981818 0.051610
O27   O     O_R   0.333106 0.741125 0.031739 -0.330366
O28   O     O_R   0.014085 0.729903 0.009383 -0.377388
F3    F     F_    0.041729 0.756269 0.522099 -0.728311

loop_
_geom_bond_atom_site_label_1
_geom_bond_atom_site_label_2
_geom_bond_distance
_ccdc_geom_bond_type
C23   N1    1.440293 S    
N1    O21   1.300893 A    
C30   H13   1.084322 S    
C6    C7    1.386149 A    
C1    O6    1.294513 A    
C25   F2    1.361346 S    
N2    O23   1.301099 A    
C24   H9    1.083444 S    
C12   C15   1.419247 A    
C13   C14   1.420456 A    
C28   C31   1.486190 S    
C15   C16   1.389572 A    
O5    C3    1.296182 A    
C17   C18   1.392947 A    
O12   C31   1.302807 A    
V2    O10   2.153716 S    
O14   C32   1.301629 A    
C5    C6    1.379261 A    
C3    C20   1.478395 S    
C11   C33   1.503411 S    
O8    V2    2.008747 S    
C26   H10   1.084354 S    
O19   C34   1.301442 A    
V4    O20   2.153623 S    
O1    V2    2.008148 S    
O17   V4    1.704488 S    
C4    C14   1.490437 S    
O7    V1    2.157846 S    
C21   H8    1.086138 S    
O18   C33   1.303103 A    
C15   H4    1.080997 S    
C13   C18   1.424896 A    
C18   F3    1.355772 S    
O9    C4    1.298218 A    
H1    C17   1.082806 S    
N1    O22   1.301699 A    
C29   H12   1.086104 S    
C10   C14   1.417336 A    
N2    O24   1.301502 A    
C7    N3    1.439905 S    
C5    C10   1.415373 A    
C8    N4    1.421458 S    
C19   C21   1.493682 S    
C11   C12   1.425409 A    
N3    O26   1.301353 A    
C6    H3    1.083574 S    
O4    C2    1.302054 A    
C24   C32   1.484237 S    
C12   C13   1.428720 A    
V3    O20   1.708311 S    
O2    C1    1.301000 A    
C23   C24   1.361742 D    
C16   C17   1.385329 A    
O15   C33   1.298865 A    
O13   V3    2.008810 S    
N4    O27   1.301025 A    
O16   V4    2.011875 S    
C27   C29   1.496744 S    
C28   H11   1.083657 S    
O3    C4    1.294935 A    
C22   F1    1.359569 S    
C21   C22   1.350265 D    
N4    O28   1.300676 A    
O14   V3    2.010076 S    
O6    V2    2.008217 S    
O11   V4    2.008619 S    
O9    V2    2.010686 S    
O11   C32   1.293753 A    
C5    H2    1.080347 S    
C2    C30   1.480570 S    
O2    V1    2.010041 S    
C29   C30   1.345120 D    
C22   C34   1.480107 S    
C25   C26   1.350601 D    
C19   C20   1.349273 D    
O1    C2    1.292204 A    
O12   V3    2.004148 S    
N3    O25   1.301597 A    
O5    V1    2.008738 S    
O8    C3    1.296712 A    
O13   C34   1.292741 A    
C16   H5    1.082880 S    
C31   O16   1.294109 A    
O17   V3    2.157866 S    
C19   H6    1.086083 S    
O7    V2    1.705672 S    
O4    V1    2.004028 S    
C20   H7    1.081792 S    
O3    V1    2.004458 S    
V1    O10   1.708356 S    
O18   V4    2.010662 S    
C27   N2    1.439245 S    
C9    C11   1.441425 A    
C23   C25   1.499094 S    
O15   V3    2.004452 S    
C7    C8    1.416183 A    
O19   V4    2.008685 S    
C27   C28   1.363249 D    
C9    C10   1.430824 A    
C8    C9    1.436105 A    
C1    C26   1.483272 S    
