data_mof_unit_8462.cif
_audit_creation_date              2012-10-26T20:31:59-0400
_audit_creation_method            fapswitch 2.2
_symmetry_space_group_name_H-M    P1
_symmetry_Int_Tables_number       1
_space_group_crystal_system       triclinic
_cell_length_a                    10.63046
_cell_length_b                    10.824478
_cell_length_c                    9.557521
_cell_angle_alpha                 90.258139
_cell_angle_beta                  89.643988
_cell_angle_gamma                 90.046483
_cell_volume                      1099.74337878

loop_
_atom_site_label
_atom_site_type_symbol
_atom_type_description
_atom_site_fract_x
_atom_site_fract_y
_atom_site_fract_z
_atom_type_partial_charge
C1    C     C_R   0.496989 0.262421 0.499684 0.544923
C2    C     C_R   0.480184 0.937444 0.625229 0.023466
C3    C     C_3   0.564823 0.932991 0.749270 -0.276056
C4    C     C_R   0.259399 0.500035 0.500477 0.553426
C5    C     C_3   0.563903 0.073124 0.748687 -0.263551
C6    C     C_R   0.608526 0.520644 0.073000 0.160382
C7    C     C_R   0.395709 0.467216 0.074731 -0.020755
C8    C     C_R   0.395649 0.467394 0.926213 -0.019611
C9    C     C_R   0.608776 0.519708 0.925770 0.161930
C10   C     C_3   0.690716 0.631234 0.919348 -0.281305
C11   C     C_3   0.689021 0.633387 0.078224 -0.277151
C12   C     C_3   0.960178 0.492330 0.366577 -0.103976
C13   C     C_R   0.497640 0.737734 0.500139 0.545341
C14   C     C_R   0.740626 0.499432 0.499579 0.548926
C15   C     C_3   0.039399 0.505661 0.633454 -0.125605
C16   C     C_3   0.957142 0.400569 0.572274 -0.111879
C17   C     C_3   0.877406 0.498658 0.498747 0.036101
C18   C     C_3   0.957162 0.603574 0.560107 -0.134748
C19   C     C_3   0.042304 0.597279 0.428245 -0.135275
C20   C     C_3   0.092154 0.277994 0.374173 -0.403257
C21   C     C_3   0.041859 0.395884 0.441111 0.003995
C22   C     C_3   0.122575 0.499529 0.501541 0.057087
C23   C     C_R   0.479641 0.064594 0.624712 0.019827
C24   C     C_R   0.483381 0.129460 0.499043 0.003891
C25   C     C_R   0.469087 0.063936 0.372797 -0.168352
C26   C     C_R   0.469756 0.935072 0.373173 -0.167327
C27   C     C_R   0.484566 0.870960 0.499815 0.005996
Cu1   Cu    Cu3+1 0.499990 0.499980 0.640670 0.928611
Cu2   Cu    Cu3+1 0.500010 0.500020 0.359330 0.924790
H1    H     H_    0.919517 0.319763 0.630222 0.103356
H2    H     H_    0.074111 0.511452 0.742612 0.107234
H3    H     H_    0.918930 0.688962 0.609073 0.103140
H4    H     H_    0.079952 0.677793 0.369826 0.107860
H5    H     H_    0.926307 0.485057 0.257283 0.107264
H6    H     H_    0.463947 0.111495 0.273534 0.134329
H7    H     H_    0.464983 0.886447 0.274047 0.132214
H8    H     H_    0.310587 0.441799 0.129785 0.115883
H9    H     H_    0.012393 0.218410 0.341791 0.125655
H10   H     H_    0.150045 0.301190 0.280900 0.131925
H11   H     H_    0.151043 0.227521 0.450492 0.132166
H12   H     H_    0.658651 0.893061 0.723923 0.126627
H13   H     H_    0.516745 0.893488 0.842506 0.133145
H14   H     H_    0.515295 0.113961 0.841237 0.139169
H15   H     H_    0.657063 0.114422 0.723168 0.135836
H16   H     H_    0.310504 0.442265 0.871892 0.115267
H17   H     H_    0.784999 0.610098 0.874317 0.124417
H18   H     H_    0.642458 0.711238 0.872048 0.141873
H19   H     H_    0.782662 0.614838 0.124410 0.119662
H20   H     H_    0.638839 0.714672 0.123052 0.144888
N1    N     N_R   0.500800 0.500930 0.147930 -0.231176
N2    N     N_R   0.500800 0.500890 0.852020 -0.230961
O1    O     O_R   0.500000 0.319640 0.618810 -0.498628
O2    O     O_R   0.500010 0.319680 0.381230 -0.506194
O3    O     O_R   0.316850 0.499950 0.618770 -0.516101
O4    O     O_R   0.316860 0.499990 0.381190 -0.513859
O5    O     O_R   0.499990 0.680320 0.618770 -0.497691
O6    O     O_R   0.500000 0.680360 0.381190 -0.508203
O7    O     O_R   0.683140 0.500010 0.618810 -0.505177
O8    O     O_R   0.683150 0.500050 0.381230 -0.503767

loop_
_geom_bond_atom_site_label_1
_geom_bond_atom_site_label_2
_ccdc_geom_bond_type
C12   C17   S    
C10   H17   S    
C15   C18   S    
C23   C24   A    
C3    H13   S    
C15   H2    S    
C2    C27   A    
C11   H20   S    
Cu1   O7    S    
C20   H9    S    
C9    C10   S    
C9    N2    A    
C13   O5    A    
C6    C9    A    
C2    C3    S    
C7    H8    S    
C24   C25   A    
C7    C8    A    
C21   C22   S    
C6    N1    A    
C14   O8    A    
Cu1   O1    S    
C14   C17   S    
C11   H19   S    
C16   C21   S    
C18   H3    S    
Cu2   O2    S    
C25   H6    S    
C20   H11   S    
C12   C19   S    
C26   H7    S    
Cu1   Cu2   S    
Cu1   N2    S    
C5    H15   S    
Cu2   O6    S    
C17   C18   S    
Cu2   N1    S    
C6    C11   S    
C4    O4    A    
C26   C27   A    
C14   O7    A    
C1    O1    A    
C13   O6    A    
C10   C11   S    
C16   H1    S    
C15   C16   S    
C10   H18   S    
C19   C22   S    
C4    C22   S    
C20   C21   S    
C3    H12   S    
C1    C24   S    
C18   C19   S    
C19   H4    S    
C8    N2    A    
C2    C23   A    
C20   H10   S    
C1    O2    A    
C8    H16   S    
C5    H14   S    
Cu1   O3    S    
Cu2   O4    S    
C4    O3    A    
C25   C26   A    
C12   H5    S    
C12   C21   S    
C15   C22   S    
C13   C27   S    
Cu1   O5    S    
Cu2   O8    S    
C7    N1    A    
C16   C17   S    
C3    C5    S    
C5    C23   S    
