data_mof_unit_43968.cif
_audit_creation_date              2013-03-05T16:34:42-0500
_audit_creation_method            fapswitch 2.2
_symmetry_space_group_name_H-M    P1
_symmetry_Int_Tables_number       1
_space_group_crystal_system       triclinic
_cell_length_a                    25.506462
_cell_length_b                    25.528418
_cell_length_c                    26.455572
_cell_angle_alpha                 90.132335
_cell_angle_beta                  89.499396
_cell_angle_gamma                 89.781462
_cell_volume                      17225.4410999

loop_
_atom_site_label
_atom_site_type_symbol
_atom_site_description
_atom_site_fract_x
_atom_site_fract_y
_atom_site_fract_z
_atom_type_partial_charge
Zn1   Zn    Zn3+2 0.561040 0.000000 0.793350 1.040528
Zn2   Zn    Zn3+2 0.438960 0.000000 0.206650 1.017665
Zn3   Zn    Zn3+2 0.000000 0.561040 0.793350 1.007167
Zn4   Zn    Zn3+2 0.000000 0.438960 0.206650 1.023311
Zn5   Zn    Zn3+2 0.438960 0.000000 0.793350 1.023889
Zn6   Zn    Zn3+2 0.561040 0.000000 0.206650 1.031502
Zn7   Zn    Zn3+2 0.000000 0.438960 0.793350 1.034316
Zn8   Zn    Zn3+2 0.000000 0.561040 0.206650 1.042508
Zn9   Zn    Zn3+2 0.061040 0.500000 0.293350 1.012056
Zn10  Zn    Zn3+2 0.938960 0.500000 0.706650 1.011215
Zn11  Zn    Zn3+2 0.500000 0.061040 0.293350 0.991502
Zn12  Zn    Zn3+2 0.500000 0.938960 0.706650 1.041431
Zn13  Zn    Zn3+2 0.938960 0.500000 0.293350 1.040208
Zn14  Zn    Zn3+2 0.061040 0.500000 0.706650 1.039380
Zn15  Zn    Zn3+2 0.500000 0.938960 0.293350 1.017353
Zn16  Zn    Zn3+2 0.500000 0.061040 0.706650 1.062358
C1    C     C_1   0.825986 0.668218 0.755156 0.043048
C2    C     C_1   0.168069 0.324979 0.254086 0.033538
C3    C     C_1   0.327416 0.830041 0.753231 0.035521
C4    C     C_1   0.671177 0.171512 0.249471 0.051820
C5    C     C_1   0.167489 0.324745 0.743834 0.046329
C6    C     C_1   0.834734 0.677901 0.257707 0.018975
C7    C     C_1   0.665720 0.176885 0.758580 0.042641
C8    C     C_1   0.327503 0.829718 0.249074 0.017172
C9    C     C_1   0.828031 0.329014 0.249177 0.054925
C10   C     C_1   0.168848 0.674845 0.747859 0.027431
C11   C     C_1   0.327388 0.169876 0.252647 0.035510
C12   C     C_1   0.670129 0.826629 0.751602 0.016709
C13   C     C_1   0.170771 0.672126 0.249793 0.047505
C14   C     C_1   0.824499 0.331749 0.752178 0.035290
C15   C     C_1   0.675725 0.832925 0.258401 0.039831
C16   C     C_1   0.322650 0.166006 0.745426 0.006961
C17   C     C_1   0.638193 0.861366 0.750574 -0.148896
C18   C     C_1   0.361603 0.137706 0.251279 -0.179927
C19   C     C_1   0.137872 0.639292 0.748755 -0.152153
C20   C     C_1   0.861644 0.361934 0.250158 -0.191314
C21   C     C_1   0.359353 0.136317 0.747702 -0.137307
C22   C     C_1   0.640499 0.863827 0.253283 -0.179159
C23   C     C_1   0.860084 0.362779 0.751030 -0.135643
C24   C     C_1   0.137655 0.638742 0.251027 -0.146378
C25   C     C_1   0.637643 0.138608 0.249022 -0.158084
C26   C     C_1   0.361354 0.862339 0.751531 -0.167553
C27   C     C_1   0.136482 0.359925 0.252121 -0.167561
C28   C     C_1   0.860812 0.636731 0.752967 -0.180466
C29   C     C_1   0.361879 0.861781 0.250078 -0.161333
C30   C     C_1   0.635876 0.140800 0.753397 -0.173671
C31   C     C_1   0.864247 0.641140 0.254006 -0.144509
C32   C     C_1   0.136947 0.360472 0.746731 -0.177778
O1    O     O_3   0.500000 0.000000 0.750000 -0.514970
O2    O     O_3   0.500000 0.000000 0.250000 -0.499864
O3    O     O_3   0.000000 0.500000 0.750000 -0.502725
O4    O     O_3   0.000000 0.500000 0.250000 -0.507886
O5    O     O_R   0.500000 0.957290 0.634170 -0.604606
O6    O     O_R   0.500000 0.042710 0.365830 -0.637485
O7    O     O_R   0.042710 0.500000 0.634170 -0.614167
O8    O     O_R   0.957290 0.500000 0.365830 -0.610071
O9    O     O_R   0.500000 0.042710 0.634170 -0.601295
O10   O     O_R   0.500000 0.957290 0.365830 -0.610419
O11   O     O_R   0.957290 0.500000 0.634170 -0.630762
O12   O     O_R   0.042710 0.500000 0.365830 -0.638193
O13   O     O_R   0.000000 0.457290 0.134170 -0.609734
O14   O     O_R   0.000000 0.542710 0.865830 -0.634358
O15   O     O_R   0.542710 0.000000 0.134170 -0.615186
O16   O     O_R   0.457290 0.000000 0.865830 -0.619584
O17   O     O_R   0.000000 0.542710 0.134170 -0.617155
O18   O     O_R   0.000000 0.457290 0.865830 -0.610892
O19   O     O_R   0.457290 0.000000 0.134170 -0.616648
O20   O     O_R   0.542710 0.000000 0.865830 -0.609916
C33   C     C_R   0.595473 0.972236 0.954397 0.297113
C34   C     C_R   0.402960 0.986267 0.048492 0.315168
C35   C     C_R   0.011168 0.597049 0.952147 0.310894
C36   C     C_R   0.026493 0.405202 0.044200 0.294608
C37   C     C_R   0.406292 0.033636 0.953294 0.305555
C38   C     C_R   0.595643 0.027740 0.045870 0.289060
C39   C     C_R   0.972161 0.403690 0.952611 0.300553
C40   C     C_R   0.963978 0.593878 0.047977 0.305974
C41   C     C_R   0.096240 0.528861 0.447399 0.307938
C42   C     C_R   0.908073 0.467809 0.548909 0.305489
C43   C     C_R   0.509896 0.098138 0.450143 0.314866
C44   C     C_R   0.535941 0.908932 0.544581 0.300127
C45   C     C_R   0.899269 0.514374 0.453696 0.307855
C46   C     C_R   0.093434 0.534605 0.549639 0.317668
C47   C     C_R   0.482130 0.903148 0.452831 0.329413
C48   C     C_R   0.466056 0.098936 0.546571 0.294036
O21   O     O_R   0.560130 0.102810 0.719600 -0.630761
O22   O     O_R   0.439870 0.897190 0.280400 -0.601694
O23   O     O_R   0.897190 0.560130 0.719600 -0.650089
O24   O     O_R   0.102810 0.439870 0.280400 -0.660752
O25   O     O_R   0.439870 0.897190 0.719600 -0.640498
O26   O     O_R   0.560130 0.102810 0.280400 -0.632486
O27   O     O_R   0.102810 0.439870 0.719600 -0.645189
O28   O     O_R   0.897190 0.560130 0.280400 -0.592654
O29   O     O_R   0.560130 0.897190 0.280400 -0.645447
O30   O     O_R   0.439870 0.102810 0.719600 -0.580584
O31   O     O_R   0.897190 0.439870 0.280400 -0.642783
O32   O     O_R   0.102810 0.560130 0.719600 -0.590680
O33   O     O_R   0.439870 0.102810 0.280400 -0.660441
O34   O     O_R   0.560130 0.897190 0.719600 -0.594523
O35   O     O_R   0.102810 0.560130 0.280400 -0.596130
O36   O     O_R   0.897190 0.439870 0.719600 -0.625520
O37   O     O_R   0.060130 0.602810 0.219600 -0.653654
O38   O     O_R   0.939870 0.397190 0.780400 -0.596739
O39   O     O_R   0.397190 0.060130 0.219600 -0.651021
O40   O     O_R   0.602810 0.939870 0.780400 -0.593788
O41   O     O_R   0.939870 0.397190 0.219600 -0.643731
O42   O     O_R   0.060130 0.602810 0.780400 -0.626785
O43   O     O_R   0.602810 0.939870 0.219600 -0.645638
O44   O     O_R   0.397190 0.060130 0.780400 -0.604780
O45   O     O_R   0.060130 0.397190 0.780400 -0.642991
O46   O     O_R   0.939870 0.602810 0.219600 -0.595623
O47   O     O_R   0.397190 0.939870 0.780400 -0.651006
O48   O     O_R   0.602810 0.060130 0.219600 -0.595275
O49   O     O_R   0.939870 0.602810 0.780400 -0.655247
O50   O     O_R   0.060130 0.397190 0.219600 -0.597136
O51   O     O_R   0.602810 0.060130 0.780400 -0.642485
O52   O     O_R   0.397190 0.939870 0.219600 -0.599701
C49   C     C_R   0.047372 0.515712 0.525672 -0.089823
C50   C     C_R   0.950310 0.506130 0.474694 -0.094212
C51   C     C_R   0.486081 0.049873 0.525756 -0.092807
C52   C     C_R   0.495120 0.952643 0.474037 -0.110364
C53   C     C_R   0.953372 0.490779 0.525774 -0.108311
C54   C     C_R   0.047543 0.516451 0.472321 -0.101020
C55   C     C_R   0.510230 0.954400 0.524865 -0.075350
C56   C     C_R   0.497781 0.049440 0.473745 -0.091586
C57   C     C_R   0.547966 0.008659 0.025356 -0.081599
C58   C     C_R   0.452716 0.012290 0.974629 -0.083213
C59   C     C_R   0.984958 0.547106 0.025871 -0.090305
C60   C     C_R   0.989566 0.451724 0.973917 -0.087605
C61   C     C_R   0.451810 0.000006 0.026070 -0.086060
C62   C     C_R   0.547981 0.993525 0.974516 -0.086979
C63   C     C_R   0.004042 0.452179 0.024703 -0.083467
C64   C     C_R   0.998023 0.547946 0.974400 -0.096148
C65   C     C_R   0.644324 0.982667 0.978155 0.014944
C66   C     C_R   0.355621 0.006938 0.028285 0.015587
C67   C     C_R   0.987532 0.643098 0.971803 0.037525
C68   C     C_R   0.015963 0.355952 0.020562 0.018506
C69   C     C_R   0.356918 0.026299 0.977910 0.012795
C70   C     C_R   0.644564 0.012995 0.023353 0.018850
C71   C     C_R   0.987255 0.355067 0.974511 0.017126
C72   C     C_R   0.970075 0.642924 0.022658 0.001505
C73   C     C_R   0.143685 0.517341 0.473079 0.013054
C74   C     C_R   0.857560 0.479284 0.529734 0.041506
C75   C     C_R   0.483258 0.144132 0.466408 0.039071
C76   C     C_R   0.532292 0.860003 0.518727 0.005275
C77   C     C_R   0.853655 0.494973 0.478657 -0.004697
C78   C     C_R   0.143162 0.527332 0.525682 0.004029
C79   C     C_R   0.504814 0.856628 0.472107 0.042211
C80   C     C_R   0.465573 0.146022 0.517216 -0.000113
C81   C     C_R   0.000734 0.500948 0.552837 -0.054427
C82   C     C_R   0.998753 0.510775 0.446340 -0.024552
C83   C     C_R   0.498370 0.001842 0.553145 -0.056046
C84   C     C_R   0.496686 0.000745 0.446586 -0.065922
C85   C     C_R   0.500014 0.003135 0.053303 -0.050143
C86   C     C_R   0.500139 0.001492 0.946858 -0.053225
C87   C     C_R   0.996229 0.499688 0.053070 -0.047456
C88   C     C_R   0.995251 0.499961 0.946569 -0.044427
C89   C     C_R   0.499257 0.000380 0.609371 0.887656
C90   C     C_R   0.498730 0.000187 0.390527 0.870996
C91   C     C_R   0.000301 0.499807 0.609322 0.910611
C92   C     C_R   0.999551 0.503158 0.390515 0.854161
C93   C     C_R   0.999346 0.499872 0.109360 0.895331
C94   C     C_R   0.998530 0.500010 0.890472 0.883634
C95   C     C_R   0.500184 0.000844 0.109473 0.878488
C96   C     C_R   0.499883 0.999960 0.890619 0.882484
C97   C     C_R   0.598985 0.098870 0.749893 0.815482
C98   C     C_R   0.401299 0.901085 0.249985 0.857482
C99   C     C_R   0.901270 0.598735 0.750317 0.827733
C100  C     C_R   0.098665 0.400963 0.250128 0.834314
C101  C     C_R   0.401044 0.901225 0.750243 0.815200
C102  C     C_R   0.598582 0.099087 0.249555 0.871990
C103  C     C_R   0.099050 0.401330 0.749865 0.818917
C104  C     C_R   0.901036 0.598990 0.250231 0.873797
C105  C     C_R   0.598929 0.901060 0.249889 0.818622
C106  C     C_R   0.401014 0.098970 0.750150 0.870464
C107  C     C_R   0.901221 0.401033 0.250251 0.815727
C108  C     C_R   0.099209 0.598808 0.750106 0.874609
C109  C     C_R   0.401406 0.098909 0.250015 0.817671
C110  C     C_R   0.599067 0.901298 0.749748 0.866500
C111  C     C_R   0.098498 0.599119 0.250471 0.848016
C112  C     C_R   0.901098 0.401003 0.749883 0.869878
C113  C     C_R   0.738545 0.697368 0.727310 0.064085
C114  C     C_R   0.248198 0.287319 0.290764 0.080326
C115  C     C_R   0.293417 0.746472 0.722943 0.077128
C116  C     C_R   0.702484 0.257928 0.278070 0.063401
C117  C     C_R   0.246491 0.283407 0.707232 0.078768
C118  C     C_R   0.758068 0.717355 0.299107 0.053342
C119  C     C_R   0.690587 0.268367 0.739841 0.063858
C120  C     C_R   0.280560 0.758246 0.290063 0.067959
C121  C     C_R   0.739046 0.299805 0.272581 0.065413
C122  C     C_R   0.249388 0.714386 0.713886 0.081026
C123  C     C_R   0.292162 0.253765 0.283675 0.070414
C124  C     C_R   0.703884 0.740481 0.719980 0.075026
C125  C     C_R   0.248948 0.712995 0.285406 0.069032
C126  C     C_R   0.732676 0.304487 0.731935 0.077541
C127  C     C_R   0.713933 0.751554 0.295716 0.088105
C128  C     C_R   0.279068 0.238422 0.702654 0.071094
C129  C     C_R   0.239480 0.198364 0.226869 0.074782
C130  C     C_R   0.746609 0.785972 0.790965 0.072611
C131  C     C_R   0.798217 0.241336 0.222143 0.054289
C132  C     C_R   0.198775 0.761979 0.780325 0.083097
C133  C     C_R   0.766364 0.808192 0.238588 0.062124
C134  C     C_R   0.234817 0.198070 0.776115 0.078043
C135  C     C_R   0.211385 0.748896 0.206624 0.068836
C136  C     C_R   0.790027 0.248742 0.784797 0.063293
C137  C     C_R   0.240255 0.799601 0.782682 0.063198
C138  C     C_R   0.759593 0.200661 0.224205 0.060726
C139  C     C_R   0.790241 0.751742 0.786042 0.082941
C140  C     C_R   0.202945 0.240248 0.221683 0.077530
C141  C     C_R   0.748028 0.213028 0.792969 0.081954
C142  C     C_R   0.251679 0.787759 0.205657 0.072745
C143  C     C_R   0.193810 0.236144 0.771850 0.065040
C144  C     C_R   0.804175 0.767341 0.232391 0.086885
C145  C     C_R   0.784133 0.705562 0.756796 0.069700
C146  C     C_R   0.206210 0.283460 0.255896 0.066887
C147  C     C_R   0.286796 0.791157 0.753833 0.051580
C148  C     C_R   0.711803 0.210061 0.251311 0.084331
C149  C     C_R   0.202761 0.280968 0.740862 0.063001
C150  C     C_R   0.799084 0.721661 0.262888 0.072860
C151  C     C_R   0.700667 0.220591 0.765814 0.074408
C152  C     C_R   0.285769 0.792026 0.247983 0.076838
C153  C     C_R   0.787708 0.290047 0.247125 0.083485
C154  C     C_R   0.205024 0.718172 0.746760 0.073189
C155  C     C_R   0.285865 0.207810 0.254388 0.059087
C156  C     C_R   0.707225 0.784099 0.753553 0.078349
C157  C     C_R   0.210722 0.711618 0.246793 0.071837
C158  C     C_R   0.781932 0.294445 0.755305 0.063483
C159  C     C_R   0.718766 0.796994 0.264687 0.067060
C160  C     C_R   0.278216 0.200896 0.741894 0.081778
N1    N     N_R   0.592821 0.930521 0.918012 0.205403
O53   O     O_R   0.565000 0.889134 0.927951 -0.413655
O54   O     O_R   0.621752 0.931243 0.877417 -0.401493
N2    N     N_R   0.401390 0.938375 0.076953 0.219718
O55   O     O_R   0.431465 0.899285 0.063672 -0.403682
O56   O     O_R   0.376471 0.935599 0.119623 -0.403504
N3    N     N_R   0.058565 0.600681 0.922110 0.240109
O57   O     O_R   0.092954 0.562961 0.923252 -0.397811
O58   O     O_R   0.072551 0.644727 0.901340 -0.426760
N4    N     N_R   0.070375 0.409771 0.077752 0.206928
O59   O     O_R   0.107094 0.443552 0.067823 -0.403504
O60   O     O_R   0.073942 0.381383 0.118202 -0.408154
N5    N     N_R   0.411540 0.074858 0.916565 0.211510
O61   O     O_R   0.447562 0.110364 0.922322 -0.406910
O62   O     O_R   0.380489 0.078300 0.878164 -0.411753
N6    N     N_R   0.593225 0.070626 0.081317 0.209026
O63   O     O_R   0.559916 0.108633 0.074251 -0.402029
O64   O     O_R   0.622671 0.071748 0.121094 -0.405265
N7    N     N_R   0.929607 0.405143 0.917214 0.211707
O65   O     O_R   0.889783 0.436084 0.925510 -0.409602
O66   O     O_R   0.929885 0.375939 0.877104 -0.408420
N8    N     N_R   0.925198 0.589844 0.087796 0.221768
O67   O     O_R   0.891352 0.551838 0.086982 -0.415616
O68   O     O_R   0.921811 0.624397 0.123637 -0.408829
N9    N     N_R   0.096834 0.570409 0.410415 0.241127
O69   O     O_R   0.138677 0.580458 0.383673 -0.412937
O70   O     O_R   0.058473 0.604190 0.409550 -0.368912
N10   N     N_R   0.914940 0.424070 0.583068 0.224689
O71   O     O_R   0.957550 0.395829 0.580298 -0.429762
O72   O     O_R   0.877052 0.407417 0.611987 -0.421629
N11   N     N_R   0.558303 0.102341 0.421647 0.243266
O73   O     O_R   0.592599 0.064653 0.423202 -0.397561
O74   O     O_R   0.573190 0.146963 0.403283 -0.436507
N12   N     N_R   0.573885 0.914352 0.584069 0.203169
O75   O     O_R   0.608029 0.951949 0.582360 -0.415009
O76   O     O_R   0.572969 0.883415 0.622886 -0.403214
N13   N     N_R   0.892367 0.554577 0.416099 0.219618
O77   O     O_R   0.918847 0.597987 0.419320 -0.386931
O78   O     O_R   0.860123 0.548700 0.378777 -0.411778
N14   N     N_R   0.087728 0.575323 0.586620 0.210625
O79   O     O_R   0.051667 0.611088 0.581509 -0.399016
O80   O     O_R   0.117227 0.576300 0.625968 -0.423743
N15   N     N_R   0.431584 0.899315 0.428827 0.208361
O81   O     O_R   0.389494 0.900834 0.457013 -0.407571
O82   O     O_R   0.426925 0.892857 0.380511 -0.403599
N16   N     N_R   0.436520 0.100293 0.592884 0.215796
O83   O     O_R   0.391890 0.076546 0.595765 -0.447420
O84   O     O_R   0.450046 0.132401 0.628318 -0.375554
C161  C     C_3   0.666450 0.736600 0.674631 -0.459283
C162  C     C_3   0.626354 0.779192 0.664441 -0.769391
H1    H     H_    0.597680 0.782431 0.696085 0.266040
H2    H     H_    0.645774 0.816918 0.655460 0.291716
H3    H     H_    0.603945 0.767049 0.630961 0.243972
H4    H     H_    0.691239 0.733411 0.639913 0.212067
H5    H     H_    0.642957 0.700351 0.677628 0.204186
C163  C     C_3   0.345107 0.266122 0.308332 -0.412483
C164  C     C_3   0.391536 0.267262 0.270957 -0.836862
H6    H     H_    0.411701 0.228688 0.269542 0.256588
H7    H     H_    0.378728 0.278205 0.232367 0.268229
H8    H     H_    0.421264 0.296049 0.283676 0.239274
H9    H     H_    0.345133 0.305350 0.326285 0.199120
H10   H     H_    0.352783 0.237204 0.338726 0.201510
C165  C     C_3   0.250900 0.678119 0.667561 -0.460040
C166  C     C_3   0.198820 0.670041 0.640732 -0.752927
H11   H     H_    0.180729 0.634256 0.655988 0.298973
H12   H     H_    0.171988 0.704028 0.645483 0.267049
H13   H     H_    0.205622 0.663742 0.599669 0.234616
H14   H     H_    0.276263 0.696027 0.637944 0.210549
H15   H     H_    0.268360 0.639748 0.677910 0.209970
C167  C     C_3   0.721916 0.353896 0.294552 -0.410145
C168  C     C_3   0.754830 0.403226 0.287732 -0.844846
H16   H     H_    0.790824 0.400543 0.310689 0.270265
H17   H     H_    0.763413 0.410743 0.247214 0.271003
H18   H     H_    0.732463 0.437475 0.302584 0.241907
H19   H     H_    0.683800 0.364259 0.277125 0.211390
H20   H     H_    0.715677 0.350198 0.335980 0.202323
C169  C     C_3   0.313049 0.228723 0.655241 -0.440647
C170  C     C_3   0.301211 0.175905 0.629881 -0.754284
H21   H     H_    0.321104 0.143136 0.649375 0.287686
H22   H     H_    0.258307 0.168592 0.629343 0.247491
H23   H     H_    0.316012 0.176114 0.590299 0.243312
H24   H     H_    0.305520 0.257744 0.625208 0.197716
H25   H     H_    0.355285 0.230866 0.664848 0.223905
C171  C     C_3   0.663964 0.736077 0.325387 -0.406614
C172  C     C_3   0.611062 0.761434 0.313704 -0.845510
H26   H     H_    0.609102 0.801738 0.329417 0.271671
H27   H     H_    0.602971 0.760585 0.272545 0.266687
H28   H     H_    0.579460 0.738932 0.332833 0.236376
H29   H     H_    0.657564 0.693512 0.318684 0.207133
H30   H     H_    0.670949 0.741935 0.366378 0.206021
C173  C     C_3   0.721929 0.351734 0.696921 -0.446752
C174  C     C_3   0.766904 0.384227 0.675375 -0.773217
H31   H     H_    0.782207 0.411513 0.704357 0.262597
H32   H     H_    0.798076 0.358709 0.659058 0.295896
H33   H     H_    0.751543 0.409199 0.644560 0.232785
H34   H     H_    0.701783 0.336614 0.662791 0.208561
H35   H     H_    0.694894 0.379391 0.716558 0.206885
C175  C     C_3   0.256762 0.666652 0.321721 -0.384042
C176  C     C_3   0.257347 0.612225 0.296740 -0.818965
H36   H     H_    0.218294 0.593543 0.300427 0.279285
H37   H     H_    0.269041 0.614373 0.256278 0.256816
H38   H     H_    0.285433 0.585991 0.316334 0.236454
H39   H     H_    0.295793 0.669179 0.339715 0.196198
H40   H     H_    0.226533 0.668117 0.352174 0.234699
C177  C     C_3   0.655235 0.267812 0.314493 -0.460584
C178  C     C_3   0.615094 0.225537 0.326683 -0.732970
H41   H     H_    0.589554 0.218107 0.293685 0.249664
H42   H     H_    0.634898 0.189584 0.340365 0.301292
H43   H     H_    0.588818 0.239837 0.357528 0.252420
H44   H     H_    0.671700 0.278435 0.351896 0.214788
H45   H     H_    0.631881 0.301508 0.300686 0.206035
C179  C     C_3   0.346620 0.733882 0.697464 -0.400076
C180  C     C_3   0.394436 0.736635 0.732570 -0.823909
H46   H     H_    0.414944 0.774685 0.727689 0.258530
H47   H     H_    0.383046 0.731236 0.772830 0.263918
H48   H     H_    0.423412 0.705697 0.721979 0.238998
H49   H     H_    0.347338 0.693113 0.682814 0.200683
H50   H     H_    0.352714 0.760412 0.664646 0.209188
C181  C     C_3   0.248618 0.326827 0.334827 -0.397273
C182  C     C_3   0.195788 0.340330 0.359874 -0.867556
H51   H     H_    0.178090 0.374922 0.341378 0.266789
H52   H     H_    0.168510 0.306583 0.359000 0.266270
H53   H     H_    0.201847 0.351704 0.399980 0.243130
H54   H     H_    0.271416 0.309363 0.366262 0.201710
H55   H     H_    0.268719 0.363347 0.322837 0.204806
C183  C     C_3   0.723743 0.644672 0.702226 -0.405715
C184  C     C_3   0.754181 0.594454 0.713414 -0.847696
H56   H     H_    0.791902 0.594087 0.692262 0.273419
H57   H     H_    0.759686 0.589000 0.754608 0.267808
H58   H     H_    0.731420 0.560421 0.699536 0.234097
H59   H     H_    0.683072 0.635645 0.714767 0.207888
H60   H     H_    0.723666 0.649392 0.660518 0.203682
C185  C     C_3   0.308741 0.770283 0.339993 -0.432150
C186  C     C_3   0.299897 0.826338 0.359816 -0.743173
H61   H     H_    0.332589 0.852193 0.348054 0.282637
H62   H     H_    0.262215 0.842922 0.346410 0.247929
H63   H     H_    0.299393 0.826609 0.401822 0.261727
H64   H     H_    0.294123 0.745074 0.371019 0.204897
H65   H     H_    0.351417 0.762562 0.335447 0.211473
C187  C     C_3   0.636337 0.281566 0.717233 -0.406500
C188  C     C_3   0.587083 0.256812 0.740509 -0.819354
H66   H     H_    0.578284 0.219089 0.721641 0.268187
H67   H     H_    0.590821 0.251863 0.781982 0.265625
H68   H     H_    0.552565 0.282381 0.733400 0.238420
H69   H     H_    0.628989 0.324137 0.722075 0.205067
H70   H     H_    0.637090 0.273322 0.675987 0.204644
C189  C     C_3   0.760495 0.673933 0.339424 -0.445641
C190  C     C_3   0.811410 0.674623 0.370179 -0.704923
H71   H     H_    0.839627 0.645401 0.354863 0.296681
H72   H     H_    0.830179 0.713784 0.369681 0.249258
H73   H     H_    0.803429 0.663606 0.410073 0.245469
H74   H     H_    0.728454 0.676843 0.367665 0.196403
H75   H     H_    0.756025 0.635140 0.320904 0.218667
C191  C     C_3   0.258057 0.332319 0.674970 -0.399184
C192  C     C_3   0.256817 0.385049 0.703085 -0.838789
H76   H     H_    0.218314 0.404699 0.698043 0.263825
H77   H     H_    0.265290 0.380276 0.743873 0.266088
H78   H     H_    0.286495 0.412040 0.686600 0.237807
H79   H     H_    0.298499 0.330509 0.659427 0.201755
H80   H     H_    0.230699 0.333630 0.642555 0.205731
C193  C     C_3   0.161641 0.235940 0.179683 -0.464616
C194  C     C_3   0.140844 0.286078 0.155562 -0.726134
H81   H     H_    0.105107 0.299770 0.176102 0.278036
H82   H     H_    0.171417 0.317055 0.153533 0.272810
H83   H     H_    0.128615 0.277227 0.116281 0.232565
H84   H     H_    0.180115 0.215241 0.146966 0.206252
H85   H     H_    0.128085 0.211867 0.193378 0.206369
C195  C     C_3   0.842036 0.764358 0.812871 -0.407457
C196  C     C_3   0.891463 0.760625 0.779419 -0.849913
H86   H     H_    0.910253 0.721586 0.783034 0.261485
H87   H     H_    0.882533 0.768495 0.739173 0.270209
H88   H     H_    0.921190 0.789368 0.792255 0.239494
H89   H     H_    0.842189 0.805515 0.826273 0.203976
H90   H     H_    0.846257 0.738682 0.846476 0.204366
C197  C     C_3   0.771099 0.149158 0.193802 -0.406307
C198  C     C_3   0.742564 0.097762 0.205197 -0.814267
H91   H     H_    0.739322 0.090894 0.246649 0.259746
H92   H     H_    0.704015 0.096955 0.186054 0.299102
H93   H     H_    0.765231 0.064297 0.188581 0.229660
H94   H     H_    0.766446 0.157698 0.152731 0.208656
H95   H     H_    0.812506 0.137465 0.199855 0.201125
C199  C     C_3   0.238019 0.846584 0.819412 -0.387882
C200  C     C_3   0.241157 0.900298 0.793430 -0.834559
H96   H     H_    0.281088 0.916987 0.797854 0.262025
H97   H     H_    0.231644 0.897709 0.752646 0.265106
H98   H     H_    0.213499 0.928413 0.811883 0.237137
H99   H     H_    0.202506 0.847576 0.843657 0.191300
H100  H     H_    0.270921 0.842767 0.846518 0.207394
C201  C     C_3   0.848265 0.775841 0.193092 -0.455286
C202  C     C_3   0.879211 0.729441 0.172002 -0.763248
H101  H     H_    0.908913 0.715889 0.199457 0.267253
H102  H     H_    0.852633 0.697437 0.160027 0.288376
H103  H     H_    0.901436 0.742799 0.138327 0.234181
H104  H     H_    0.830121 0.793490 0.159006 0.206507
H105  H     H_    0.876917 0.804179 0.208632 0.210836
C203  C     C_3   0.143477 0.228462 0.804311 -0.405920
C204  C     C_3   0.092281 0.255953 0.789829 -0.839474
H106  H     H_    0.090381 0.295500 0.807135 0.273026
H107  H     H_    0.087290 0.257261 0.748241 0.266577
H108  H     H_    0.058434 0.234219 0.806054 0.235896
H109  H     H_    0.132579 0.186508 0.802613 0.204634
H110  H     H_    0.152120 0.237971 0.844357 0.203026
C205  C     C_3   0.254988 0.822624 0.157909 -0.475221
C206  C     C_3   0.293649 0.867377 0.153770 -0.719913
H111  H     H_    0.286909 0.896644 0.184279 0.251802
H112  H     H_    0.334375 0.851992 0.152925 0.295720
H113  H     H_    0.287145 0.887591 0.117193 0.252983
H114  H     H_    0.263835 0.796811 0.125037 0.218523
H115  H     H_    0.216283 0.841453 0.151923 0.205284
C207  C     C_3   0.756689 0.167872 0.830676 -0.399429
C208  C     C_3   0.709693 0.137179 0.851269 -0.836838
H116  H     H_    0.676047 0.163322 0.860358 0.271266
H117  H     H_    0.698518 0.105839 0.824379 0.267991
H118  H     H_    0.721191 0.116692 0.886537 0.238147
H119  H     H_    0.784650 0.139127 0.813902 0.198836
H120  H     H_    0.775009 0.185210 0.864872 0.223288
C209  C     C_3   0.149505 0.772381 0.813393 -0.422298
C210  C     C_3   0.102223 0.735555 0.812411 -0.780911
H121  H     H_    0.085875 0.732089 0.773716 0.253065
H122  H     H_    0.113095 0.696924 0.828449 0.306493
H123  H     H_    0.070700 0.751742 0.837295 0.241110
H124  H     H_    0.161740 0.773565 0.853578 0.211801
H125  H     H_    0.133708 0.811559 0.802861 0.215612
C211  C     C_3   0.849907 0.228671 0.192831 -0.404570
C212  C     C_3   0.891355 0.270490 0.179635 -0.817670
H126  H     H_    0.873027 0.304688 0.159752 0.269685
H127  H     H_    0.914053 0.281613 0.214159 0.261579
H128  H     H_    0.921000 0.252947 0.153127 0.232661
H129  H     H_    0.871324 0.197724 0.214436 0.201172
H130  H     H_    0.838842 0.212485 0.155103 0.203639
C213  C     C_3   0.741644 0.823410 0.836325 -0.446838
C214  C     C_3   0.689231 0.818435 0.864839 -0.745202
H131  H     H_    0.659622 0.845284 0.848929 0.296534
H132  H     H_    0.674146 0.777763 0.863350 0.252711
H133  H     H_    0.694106 0.829758 0.905074 0.240863
H134  H     H_    0.771347 0.814722 0.865396 0.201884
H135  H     H_    0.747527 0.864491 0.823798 0.214249
C215  C     C_3   0.231365 0.145960 0.198845 -0.392016
C216  C     C_3   0.240312 0.096331 0.231063 -0.840696
H136  H     H_    0.280488 0.080069 0.223994 0.260261
H137  H     H_    0.234464 0.104234 0.272185 0.263516
H138  H     H_    0.212630 0.065014 0.219588 0.236833
H139  H     H_    0.190034 0.142060 0.185421 0.196387
H140  H     H_    0.257522 0.144867 0.164393 0.200089
C217  C     C_3   0.845812 0.235597 0.802794 -0.436136
C218  C     C_3   0.867756 0.274482 0.841464 -0.759871
H141  H     H_    0.899747 0.297428 0.823454 0.278243
H142  H     H_    0.837298 0.301840 0.856147 0.278863
H143  H     H_    0.885272 0.253263 0.873747 0.229726
H144  H     H_    0.849788 0.196012 0.819109 0.193736
H145  H     H_    0.872179 0.234329 0.769139 0.208327
C219  C     C_3   0.171271 0.750279 0.163006 -0.414192
C220  C     C_3   0.129095 0.708877 0.157110 -0.837978
H146  H     H_    0.146569 0.669198 0.153218 0.268729
H147  H     H_    0.099609 0.711633 0.188110 0.270220
H148  H     H_    0.108333 0.717110 0.121438 0.240466
H149  H     H_    0.150015 0.788310 0.165092 0.205036
H150  H     H_    0.193125 0.748642 0.126596 0.212703
C221  C     C_3   0.227361 0.154545 0.815986 -0.459268
C222  C     C_3   0.272036 0.117620 0.829472 -0.764844
H151  H     H_    0.280860 0.090288 0.797849 0.263615
H152  H     H_    0.306931 0.139964 0.841755 0.295144
H153  H     H_    0.258891 0.092935 0.861492 0.237411
H154  H     H_    0.215975 0.173511 0.852331 0.209322
H155  H     H_    0.194712 0.128947 0.803845 0.205635
C223  C     C_3   0.774651 0.861781 0.212688 -0.400689
C224  C     C_3   0.761200 0.910096 0.245137 -0.823887
H156  H     H_    0.722260 0.926039 0.234543 0.258848
H157  H     H_    0.761565 0.900965 0.286132 0.265765
H158  H     H_    0.789744 0.942023 0.237814 0.236715
H159  H     H_    0.816213 0.867693 0.201808 0.199254
H160  H     H_    0.751837 0.862890 0.177084 0.203798
C225  C     C_3   0.306021 0.036875 0.949095 -0.357861
C226  C     C_3   0.296131 0.995517 0.908227 -0.814173
H161  H     H_    0.323142 0.999935 0.875560 0.301698
H162  H     H_    0.300474 0.955501 0.924141 0.253479
H163  H     H_    0.255250 0.999473 0.894292 0.223493
H164  H     H_    0.270173 0.035734 0.972722 0.178399
H165  H     H_    0.305996 0.077036 0.933466 0.234679
C227  C     C_3   0.695934 0.027892 0.048959 -0.330774
C228  C     C_3   0.709984 0.988829 0.090763 -0.826144
H166  H     H_    0.680845 0.990429 0.122189 0.297963
H167  H     H_    0.711290 0.948195 0.075737 0.241594
H168  H     H_    0.749104 0.998332 0.106457 0.231341
H169  H     H_    0.728985 0.030675 0.021696 0.186134
H170  H     H_    0.694323 0.068128 0.064615 0.239763
C229  C     C_3   0.972576 0.303216 0.948525 -0.322992
C230  C     C_3   0.008283 0.290135 0.902632 -0.810964
H171  H     H_    0.990294 0.303010 0.866668 0.287071
H172  H     H_    0.047510 0.308393 0.905827 0.257930
H173  H     H_    0.013725 0.246921 0.899351 0.219091
H174  H     H_    0.972740 0.269398 0.974367 0.183122
H175  H     H_    0.931035 0.304022 0.936750 0.225653
C231  C     C_3   0.963443 0.694640 0.051355 -0.343492
C232  C     C_3   0.005121 0.701530 0.092329 -0.792306
H176  H     H_    0.989130 0.693337 0.130512 0.287165
H177  H     H_    0.039362 0.675518 0.084955 0.258858
H178  H     H_    0.019380 0.742759 0.092701 0.216727
H179  H     H_    0.968498 0.729467 0.027057 0.176886
H180  H     H_    0.923165 0.698336 0.066751 0.226493
C233  C     C_3   0.695072 0.959949 0.955232 -0.330383
C234  C     C_3   0.713077 0.989066 0.907126 -0.767790
H181  H     H_    0.717876 0.960807 0.875268 0.266109
H182  H     H_    0.684633 0.019696 0.895498 0.269556
H183  H     H_    0.751792 0.007826 0.912947 0.213025
H184  H     H_    0.728015 0.958803 0.981999 0.185030
H185  H     H_    0.689310 0.917866 0.946445 0.220427
C235  C     C_3   0.304159 0.011624 0.058920 -0.389139
C236  C     C_3   0.306578 0.018885 0.116439 -0.736212
H186  H     H_    0.298401 0.981601 0.136130 0.272512
H187  H     H_    0.344161 0.036309 0.128427 0.288114
H188  H     H_    0.274292 0.045472 0.129123 0.206769
H189  H     H_    0.285363 0.049066 0.047692 0.192814
H190  H     H_    0.277147 0.979217 0.048989 0.204720
C237  C     C_3   0.977924 0.691358 0.938601 -0.374132
C238  C     C_3   0.959553 0.679754 0.884662 -0.767932
H191  H     H_    0.992733 0.671429 0.858769 0.302442
H192  H     H_    0.931021 0.647080 0.884273 0.257960
H193  H     H_    0.939561 0.715384 0.869963 0.219310
H194  H     H_    0.944403 0.714188 0.954382 0.184374
H195  H     H_    0.012770 0.717271 0.938127 0.231536
C239  C     C_3   0.034945 0.305566 0.045554 -0.324913
C240  C     C_3   0.999177 0.289560 0.089930 -0.846090
H196  H     H_    0.005973 0.314271 0.123788 0.301238
H197  H     H_    0.957191 0.293008 0.079569 0.250948
H198  H     H_    0.007270 0.248243 0.100694 0.228135
H199  H     H_    0.038616 0.272110 0.019149 0.186940
H200  H     H_    0.075700 0.310095 0.058232 0.226035
C241  C     C_3   0.801831 0.488119 0.450004 -0.340038
C242  C     C_3   0.805583 0.446667 0.408044 -0.805886
H201  H     H_    0.818616 0.463970 0.371848 0.297765
H202  H     H_    0.832388 0.414225 0.418741 0.253477
H203  H     H_    0.766030 0.429404 0.401625 0.225162
H204  H     H_    0.769652 0.473171 0.473978 0.179841
H205  H     H_    0.787387 0.526090 0.435136 0.231253
C243  C     C_3   0.194192 0.540399 0.553311 -0.338038
C244  C     C_3   0.208793 0.500411 0.594008 -0.807519
H206  H     H_    0.190240 0.510652 0.630810 0.292692
H207  H     H_    0.197333 0.460096 0.582977 0.251422
H208  H     H_    0.252025 0.500873 0.599647 0.223528
H209  H     H_    0.228289 0.543737 0.527368 0.172876
H210  H     H_    0.191749 0.579994 0.569859 0.232321
C245  C     C_3   0.504064 0.802822 0.445435 -0.404118
C246  C     C_3   0.480621 0.796821 0.393064 -0.758165
H211  H     H_    0.437337 0.799676 0.394611 0.290577
H212  H     H_    0.498741 0.824739 0.366066 0.291814
H213  H     H_    0.489834 0.756567 0.379078 0.205344
H214  H     H_    0.545438 0.790349 0.439496 0.197524
H215  H     H_    0.484665 0.773718 0.470411 0.220957
C247  C     C_3   0.445590 0.197886 0.541340 -0.328233
C248  C     C_3   0.485004 0.223936 0.577279 -0.749597
H216  H     H_    0.468160 0.226536 0.616147 0.264404
H217  H     H_    0.522962 0.202634 0.578446 0.267154
H218  H     H_    0.492753 0.264997 0.565502 0.210423
H219  H     H_    0.435273 0.228741 0.514259 0.165782
H220  H     H_    0.407862 0.191011 0.561336 0.222283
C249  C     C_3   0.195842 0.506989 0.445535 -0.356833
C250  C     C_3   0.192995 0.477160 0.395242 -0.767323
H221  H     H_    0.159681 0.448675 0.395536 0.252238
H222  H     H_    0.189780 0.504633 0.362401 0.291536
H223  H     H_    0.230834 0.455100 0.389348 0.217855
H224  H     H_    0.217404 0.544324 0.439862 0.220281
H225  H     H_    0.220157 0.481547 0.470249 0.197203
C251  C     C_3   0.808483 0.478098 0.563943 -0.363576
C252  C     C_3   0.813500 0.509519 0.612994 -0.790110
H226  H     H_    0.837965 0.489387 0.641251 0.314915
H227  H     H_    0.829452 0.549135 0.605253 0.252235
H228  H     H_    0.773658 0.514496 0.630013 0.216192
H229  H     H_    0.774799 0.497918 0.546002 0.182718
H230  H     H_    0.796279 0.437226 0.571352 0.232806
C253  C     C_3   0.472946 0.189750 0.430080 -0.377839
C254  C     C_3   0.460838 0.174545 0.375244 -0.757244
H231  H     H_    0.496423 0.164496 0.353313 0.309716
H232  H     H_    0.432214 0.141884 0.374371 0.257168
H233  H     H_    0.442684 0.208873 0.356281 0.217037
H234  H     H_    0.436026 0.209912 0.440771 0.182602
H235  H     H_    0.505109 0.218878 0.431508 0.231468
C255  C     C_3   0.555326 0.810198 0.542715 -0.337242
C256  C     C_3   0.514939 0.782515 0.576617 -0.836275
H236  H     H_    0.512040 0.801836 0.614111 0.292582
H237  H     H_    0.475449 0.782475 0.559248 0.255194
H238  H     H_    0.526914 0.741037 0.582346 0.225303
H239  H     H_    0.569891 0.781586 0.514496 0.171180
H240  H     H_    0.591769 0.818574 0.563239 0.235508

loop_
_geom_bond_atom_site_label_1
_geom_bond_atom_site_label_2
_geom_bond_distance
_ccdc_geom_bond_type
C213  C214  1.535097 S    
C128  C160  1.414288 A    
C48   N16   1.433001 S    
C200  H97   1.109854 S    
C69   C225  1.534587 S    
C204  H106  1.108304 S    
C224  H156  1.110398 S    
O16   C96   1.273876 A    
C40   N8    1.442825 S    
C219  C220  1.519713 S    
C23   C112  1.433480 S    
C241  C242  1.534004 S    
C236  H188  1.114140 S    
O15   C95   1.271272 A    
C242  H203  1.116636 S    
C132  C137  1.433307 A    
C218  H143  1.108806 S    
C163  C164  1.536521 S    
C196  H87   1.109400 S    
Zn9   O24   1.894064 S    
N8    O68   1.295663 A    
C37   C58   1.423322 A    
C223  H160  1.111851 S    
Zn1   O20   1.969702 S    
N6    O63   1.302127 A    
C246  H212  1.109424 S    
N16   O83   1.293478 A    
C249  C250  1.533903 S    
O31   C107  1.274312 A    
C41   C54   1.437890 A    
C210  H123  1.112469 S    
C35   C64   1.425993 A    
N4    O59   1.301070 A    
Zn2   O52   1.901917 S    
O23   C99   1.281033 A    
C165  C166  1.526024 S    
C73   C249  1.533002 S    
C214  H131  1.104649 S    
O24   C100  1.279732 A    
Zn7   O38   1.904373 S    
C129  C140  1.423296 A    
C135  C142  1.431338 A    
C175  C176  1.537194 S    
O51   C97   1.281910 A    
C133  C144  1.425952 A    
C201  H104  1.112629 S    
C190  H73   1.110198 S    
C5    C32   1.199082 T    
C38   N6    1.440675 S    
C244  H207  1.110030 S    
C6    C31   1.204094 T    
C163  H10   1.110961 S    
C193  H84   1.113224 S    
C7    C30   1.205580 T    
C253  H234  1.105743 S    
C125  C157  1.418777 A    
O52   C98   1.281362 A    
Zn9   O4    1.941762 S    
C138  C197  1.565174 S    
Zn10  O3    1.941765 S    
C187  C188  1.533340 S    
C227  H169  1.107237 S    
Zn12  O1    1.932659 S    
C123  C155  1.414878 A    
O20   C96   1.269185 A    
C115  C147  1.410492 A    
C203  H109  1.108441 S    
C226  H162  1.111324 S    
C174  H33   1.109316 S    
C132  C209  1.546726 S    
C179  C180  1.541153 S    
C75   C253  1.535014 S    
C229  H174  1.102492 S    
C195  H90   1.111499 S    
C130  C213  1.536446 S    
C228  H167  1.110297 S    
C194  H82   1.113789 S    
C58   C61   1.397278 A    
C27   C100  1.422721 S    
Zn4   O13   1.974820 S    
C34   C61   1.420831 A    
C237  H195  1.109966 S    
Zn5   O16   1.977640 S    
Zn6   O15   1.977640 S    
C212  H128  1.118396 S    
C199  H100  1.112754 S    
C251  H229  1.106519 S    
C219  H150  1.109311 S    
C209  H125  1.113769 S    
C131  C153  1.430240 A    
C122  C165  1.534374 S    
N2    O56   1.292872 A    
C170  H21   1.107482 S    
C44   N12   1.437067 S    
C133  C223  1.545862 S    
C169  H24   1.105144 S    
C131  C211  1.556218 S    
C205  H114  1.110974 S    
C58   C86   1.435224 A    
C206  H111  1.110435 S    
C216  H137  1.114639 S    
N14   O80   1.289997 A    
C12   C17   1.202354 T    
O10   C90   1.274064 A    
C193  C194  1.526888 S    
C204  H108  1.111598 S    
C167  C168  1.526325 S    
C211  H130  1.118277 S    
C192  H76   1.110280 S    
C54   C82   1.434548 A    
C135  C157  1.428181 A    
C142  C205  1.548823 S    
C25   C102  1.420644 S    
C217  H144  1.104430 S    
C133  C159  1.421732 A    
C242  H201  1.104586 S    
C210  H122  1.109670 S    
C11   C155  1.432739 S    
C230  H171  1.109836 S    
N11   O74   1.296319 A    
C189  C190  1.538652 S    
C127  C159  1.427718 A    
C118  C127  1.425522 A    
O43   C105  1.279272 A    
Zn16  O30   1.892966 S    
O27   C103  1.273303 A    
C56   C84   1.434863 A    
O21   C97   1.283777 A    
C238  H191  1.103827 S    
C166  H12   1.109258 S    
C236  H186  1.105753 S    
C78   C243  1.535751 S    
C239  H199  1.105317 S    
C164  H7    1.110633 S    
C231  H180  1.105472 S    
Zn7   O18   1.972720 S    
C187  H70   1.110814 S    
C178  H43   1.111542 S    
C218  H141  1.110906 S    
C37   C69   1.425889 A    
O28   C104  1.278216 A    
C48   C51   1.455997 A    
C183  H60   1.110267 S    
O29   C105  1.275862 A    
C182  H51   1.107202 S    
C53   C81   1.433865 A    
C165  H14   1.111968 S    
C3    C147  1.437582 S    
C222  H153  1.107352 S    
C209  C210  1.532299 S    
C41   C73   1.423071 A    
C225  H164  1.103567 S    
C127  C171  1.544198 S    
C60   C88   1.436859 A    
C9    C20   1.203244 T    
O25   C101  1.278026 A    
C10   C19   1.205747 T    
C199  H99   1.105486 S    
C254  H231  1.102097 S    
C20   C107  1.422337 S    
C215  C216  1.545947 S    
O17   C93   1.274373 A    
C34   C66   1.424744 A    
C40   C59   1.428459 A    
C237  H194  1.110770 S    
C18   C109  1.415747 S    
C49   C81   1.436430 A    
Zn1   O51   1.901915 S    
N5    O62   1.296538 A    
C219  H149  1.111210 S    
N15   O81   1.302171 A    
C44   C55   1.432608 A    
C185  H64   1.107162 S    
C83   C89   1.488420 S    
C30   C97   1.431265 S    
C177  H44   1.111757 S    
C113  C183  1.548119 S    
O38   C112  1.285629 A    
C14   C158  1.448892 S    
C256  H236  1.108535 S    
C134  C143  1.430481 A    
C48   C80   1.432638 A    
C256  H238  1.111997 S    
C244  H206  1.109077 S    
C118  C150  1.417234 A    
C245  H214  1.110864 S    
C233  H185  1.109264 S    
C250  H222  1.121209 S    
C85   C95   1.487352 S    
C241  H204  1.102729 S    
C86   C96   1.488347 S    
C118  C189  1.541542 S    
C234  H181  1.113769 S    
Zn8   O46   1.892966 S    
C208  H117  1.109093 S    
C239  C240  1.537500 S    
C113  C124  1.423785 A    
C172  H27   1.110202 S    
C186  H61   1.108324 S    
C177  H45   1.108853 S    
C202  H103  1.106966 S    
C171  C172  1.528687 S    
C212  H127  1.122209 S    
N5    O61   1.302741 A    
Zn13  O28   1.898706 S    
C222  H151  1.109162 S    
Zn2   O2    1.941765 S    
C181  H54   1.112062 S    
C207  C208  1.531459 S    
C206  H113  1.111143 S    
C43   C75   1.418419 A    
C140  C193  1.541887 S    
C205  C206  1.515574 S    
C44   C76   1.426458 A    
C250  H223  1.125089 S    
N10   O72   1.300643 A    
C10   C154  1.443300 S    
C249  H224  1.112040 S    
C35   N3    1.444292 S    
C137  C199  1.542463 S    
O34   C110  1.283631 A    
C29   C98   1.423153 S    
Zn8   O4    1.936924 S    
Zn12  O5    1.974820 S    
C3    C26   1.198390 T    
C124  C161  1.543037 S    
Zn13  O8    1.977640 S    
Zn14  O7    1.977640 S    
C21   C106  1.426915 S    
Zn8   O17   1.972720 S    
C5    C149  1.433593 S    
C225  C226  1.532573 S    
N10   O71   1.303364 A    
C45   N13   1.442231 S    
C2    C146  1.437121 S    
C76   C79   1.426493 A    
C252  H227  1.110363 S    
C190  H72   1.110147 S    
C220  H146  1.109298 S    
C202  H102  1.110956 S    
C180  H47   1.110599 S    
C75   C80   1.414753 A    
O48   C102  1.273882 A    
C125  C175  1.539222 S    
C141  C151  1.423621 A    
C238  H193  1.113613 S    
C16   C160  1.442609 S    
C41   N9    1.444715 S    
C198  H91   1.113375 S    
C243  H209  1.106818 S    
C176  H37   1.110240 S    
C178  H41   1.110211 S    
C134  C160  1.426038 A    
C121  C167  1.556545 S    
C122  C154  1.423980 A    
C47   C79   1.417006 A    
C182  H53   1.111647 S    
C139  C195  1.539924 S    
C174  H32   1.109787 S    
C49   C54   1.411581 A    
C229  H175  1.107145 S    
C33   N1    1.436017 S    
O7    C91   1.270711 A    
C32   C103  1.421146 S    
C81   C91   1.494637 S    
C237  C238  1.534430 S    
C254  H233  1.112239 S    
C255  H240  1.101973 S    
C12   C156  1.438763 S    
C233  C234  1.542679 S    
C8    C152  1.438060 S    
C62   C86   1.442307 A    
C16   C21   1.204252 T    
Zn6   O2    1.925628 S    
N13   O78   1.299322 A    
C199  C200  1.537337 S    
Zn11  O6    1.974820 S    
C84   C90   1.483554 S    
C203  C204  1.532147 S    
C184  H57   1.109074 S    
C120  C125  1.417018 A    
C175  H40   1.110746 S    
Zn15  O10   1.972720 S    
C171  H30   1.110373 S    
C179  H49   1.109782 S    
C229  C230  1.546471 S    
O36   C112  1.280855 A    
C60   C63   1.396523 A    
Zn3   O14   1.974820 S    
C130  C139  1.417248 A    
C251  C252  1.530559 S    
C129  C155  1.415748 A    
C71   C229  1.539152 S    
C232  H176  1.106755 S    
N12   O75   1.299074 A    
C236  H187  1.106931 S    
C43   C56   1.426196 A    
C221  H155  1.109751 S    
C248  H218  1.112158 S    
C188  H68   1.111604 S    
C197  H94   1.115969 S    
C192  H78   1.112460 S    
C39   C71   1.424163 A    
C196  H86   1.108902 S    
C61   C85   1.432868 A    
C191  H79   1.107883 S    
C13   C24   1.202486 T    
C206  H112  1.109156 S    
C64   C88   1.430068 A    
N6    O64   1.298516 A    
C14   C23   1.207196 T    
C224  H158  1.111161 S    
C234  H182  1.110460 S    
C167  H19   1.110922 S    
C168  H18   1.111316 S    
C190  H71   1.108170 S    
Zn14  O27   1.898708 S    
C231  C232  1.535175 S    
O19   C95   1.269692 A    
C65   C70   1.423079 A    
C183  C184  1.527093 S    
O41   C107  1.274310 A    
C221  C222  1.521446 S    
O42   C108  1.277163 A    
C162  H1    1.109557 S    
C46   N14   1.431959 S    
Zn10  O11   1.969702 S    
C226  H163  1.113317 S    
O45   C103  1.279223 A    
C227  C228  1.534715 S    
C188  H67   1.109621 S    
O46   C104  1.278427 A    
C191  C192  1.536528 S    
C74   C251  1.538687 S    
C234  H183  1.110916 S    
O22   C98   1.280100 A    
C198  H93   1.116876 S    
C161  H4    1.113175 S    
Zn5   O1    1.925628 S    
C66   C69   1.422633 A    
C227  H170  1.107101 S    
C114  C181  1.539839 S    
C240  H197  1.110978 S    
C87   C93   1.491992 S    
C203  H110  1.110521 S    
C38   C70   1.426861 A    
C82   C92   1.489145 S    
C141  C207  1.542707 S    
C242  H202  1.110657 S    
C177  C178  1.523557 S    
C4    C148  1.432819 S    
Zn4   O50   1.898697 S    
C123  C163  1.538328 S    
C202  H101  1.109040 S    
C42   C74   1.418560 A    
C228  H166  1.110887 S    
C116  C148  1.428889 A    
C38   C57   1.423178 A    
C67   C237  1.534883 S    
C215  H139  1.120083 S    
C128  C169  1.537469 S    
C220  H148  1.106355 S    
O18   C94   1.269540 A    
C50   C82   1.445272 A    
C42   C53   1.431065 A    
C235  H189  1.109947 S    
C251  H230  1.107409 S    
C79   C245  1.543025 S    
C115  C179  1.542345 S    
O11   C91   1.273979 A    
C209  H124  1.110953 S    
C247  H220  1.108826 S    
C173  H35   1.110055 S    
C162  H3    1.102843 S    
O44   C106  1.279117 A    
C136  C141  1.424725 A    
C170  H22   1.111058 S    
N3    O57   1.300643 A    
C221  H154  1.111380 S    
C240  H198  1.112190 S    
Zn8   O37   1.904371 S    
N9    O69   1.301952 A    
Zn12  O34   1.898697 S    
C52   C55   1.402734 A    
C136  C217  1.540397 S    
C205  H115  1.109159 S    
C66   C235  1.540765 S    
C120  C152  1.415384 A    
C245  C246  1.521462 S    
C200  H98   1.113390 S    
C204  H107  1.109255 S    
C74   C77   1.414520 A    
C7    C151  1.444172 S    
C68   C71   1.427078 A    
Zn14  O32   1.903990 S    
C46   C78   1.424292 A    
C4    C25   1.201218 T    
N4    O60   1.297448 A    
N7    O66   1.295394 A    
Zn3   O42   1.900431 S    
C67   C72   1.413487 A    
C143  C149  1.427121 A    
C55   C83   1.451578 A    
C170  H23   1.110060 S    
C248  H216  1.112682 S    
C195  C196  1.536509 S    
C124  C156  1.426009 A    
C230  H172  1.109207 S    
C196  H88   1.111864 S    
C59   C87   1.439015 A    
C181  C182  1.534109 S    
Zn3   O3    1.932655 S    
C211  C212  1.543740 S    
N8    O67   1.301423 A    
C189  H74   1.104640 S    
C223  H159  1.107051 S    
C131  C138  1.434886 A    
C246  H211  1.106539 S    
O47   C101  1.270319 A    
C28   C99   1.414736 S    
C238  H192  1.109143 S    
C47   C52   1.422744 A    
C72   C231  1.529524 S    
C130  C156  1.417236 A    
C208  H116  1.109496 S    
C239  H200  1.101487 S    
C164  H6    1.109631 S    
C26   C101  1.420797 S    
C24   C111  1.424372 S    
C143  C203  1.551647 S    
C218  H142  1.109736 S    
Zn14  O3    1.925628 S    
C182  H52   1.109745 S    
Zn16  O1    1.936924 S    
Zn10  O36   1.901917 S    
C201  H105  1.111033 S    
C243  H210  1.101922 S    
C73   C78   1.414167 A    
Zn15  O22   1.904373 S    
C254  H232  1.110692 S    
C163  H9    1.107358 S    
C193  H85   1.114067 S    
C70   C227  1.529211 S    
C119  C126  1.432145 A    
C36   N4    1.439500 S    
C114  C123  1.419365 A    
C8    C29   1.202205 T    
C117  C128  1.419231 A    
C136  C158  1.420518 A    
C115  C122  1.414330 A    
C39   N7    1.440141 S    
C244  H208  1.114142 S    
C36   C63   1.426525 A    
C185  C186  1.538080 S    
C247  H219  1.098753 S    
C173  H34   1.111921 S    
C140  C146  1.428454 A    
O32   C108  1.276345 A    
Zn6   O48   1.903990 S    
C144  C201  1.541138 S    
C195  H89   1.108136 S    
O49   C99   1.275793 A    
C228  H168  1.111515 S    
C256  H237  1.110769 S    
O50   C100  1.281335 A    
C194  H81   1.111927 S    
C213  H134  1.106518 S    
C233  H184  1.103919 S    
C15   C22   1.202150 T    
Zn11  O33   1.898699 S    
Zn9   O12   1.969702 S    
C42   N10   1.449157 S    
C126  C158  1.427641 A    
C63   C87   1.437074 A    
C119  C187  1.548484 S    
C1    C28   1.196637 T    
Zn7   O3    1.936924 S    
C176  H36   1.109649 S    
N1    O54   1.297947 A    
Zn11  O2    1.932655 S    
C169  H25   1.110557 S    
C2    C27   1.201317 T    
C232  H177  1.110749 S    
C230  H173  1.114438 S    
C172  H26   1.109603 S    
O14   C94   1.271938 A    
C186  H62   1.110119 S    
Zn2   O39   1.894062 S    
C45   C50   1.434871 A    
C80   C247  1.550938 S    
N2    O55   1.302141 A    
C232  H178  1.114922 S    
C178  H42   1.108955 S    
Zn16  O9    1.972720 S    
C255  C256  1.535385 S    
C197  H95   1.109496 S    
C34   N2    1.437841 S    
C65   C233  1.535735 S    
C167  H20   1.110384 S    
C173  C174  1.525424 S    
C216  H138  1.112098 S    
C37   N5    1.439802 S    
N14   O79   1.301617 A    
C137  C147  1.421129 A    
C169  C170  1.536832 S    
C200  H96   1.112537 S    
C241  H205  1.109786 S    
C213  H135  1.110905 S    
C46   C49   1.425099 A    
C211  H129  1.119580 S    
C245  H215  1.110334 S    
C43   N11   1.445469 S    
Zn5   O44   1.898706 S    
C217  H145  1.111442 S    
C210  H121  1.112200 S    
C15   C159  1.438910 S    
C248  H217  1.109338 S    
C197  C198  1.532120 S    
C13   C157  1.437999 S    
C168  H16   1.107176 S    
C126  C173  1.547606 S    
C194  H83   1.110571 S    
C201  C202  1.523006 S    
C252  H226  1.104487 S    
C119  C151  1.424917 A    
C51   C56   1.405430 A    
O35   C111  1.278293 A    
Zn4   O4    1.932659 S    
N1    O53   1.301043 A    
C117  C149  1.422314 A    
Zn13  O31   1.903992 S    
C246  H213  1.114895 S    
O13   C93   1.271260 A    
C19   C108  1.431509 S    
C186  H63   1.111252 S    
C166  H11   1.100933 S    
C253  C254  1.535176 S    
C198  H92   1.110159 S    
C164  H8    1.111657 S    
C231  H179  1.105593 S    
C35   C67   1.414964 A    
C187  H69   1.109030 S    
C121  C153  1.427749 A    
C36   C68   1.430309 A    
C183  H59   1.111528 S    
Zn13  O4    1.925628 S    
C139  C145  1.418472 A    
C142  C152  1.427909 A    
Zn15  O2    1.936924 S    
C59   C64   1.399283 A    
O33   C109  1.277788 A    
C57   C62   1.398526 A    
O40   C110  1.278560 A    
C120  C185  1.540248 S    
C184  H56   1.108791 S    
C77   C241  1.539846 S    
C33   C62   1.424222 A    
C6    C150  1.443244 S    
C9    C153  1.434840 S    
C39   C60   1.422593 A    
N13   O77   1.302996 A    
N16   O84   1.293799 A    
C226  H161  1.106766 S    
C207  H119  1.110416 S    
C247  C248  1.541374 S    
C185  H65   1.110919 S    
Zn6   O43   1.898708 S    
C88   C94   1.485691 S    
Zn9   O35   1.901915 S    
N3    O58   1.302300 A    
C179  H50   1.112566 S    
C1    C145  1.428823 S    
C222  H152  1.109596 S    
C57   C85   1.431250 A    
C135  C219  1.549262 S    
C40   C72   1.429708 A    
C11   C18   1.196321 T    
C51   C83   1.460091 A    
Zn10  O23   1.894062 S    
C52   C84   1.428609 A    
C250  H221  1.120480 S    
Zn12  O25   1.900433 S    
C235  C236  1.534317 S    
Zn2   O19   1.969702 S    
Zn3   O49   1.898699 S    
C208  H118  1.111742 S    
C240  H196  1.109635 S    
N9    O70   1.302161 A    
C22   C105  1.424819 S    
N12   O76   1.297064 A    
Zn5   O47   1.903992 S    
C217  C218  1.534551 S    
Zn7   O45   1.892964 S    
C134  C221  1.544965 S    
O39   C109  1.279737 A    
C50   C53   1.410623 A    
C47   N15   1.445668 S    
C192  H77   1.109250 S    
O37   C111  1.283441 A    
O6    C90   1.268674 A    
C76   C255  1.539160 S    
C216  H136  1.118238 S    
C214  H133  1.110504 S    
C191  H80   1.110781 S    
C161  H5    1.106966 S    
C132  C154  1.433922 A    
O26   C102  1.273486 A    
C249  H225  1.113536 S    
C224  H157  1.109954 S    
C207  H120  1.113470 S    
C181  H55   1.111224 S    
C168  H17   1.109474 S    
Zn1   O40   1.894064 S    
O30   C106  1.277570 A    
C31   C104  1.427755 S    
C45   C77   1.423905 A    
C162  H2    1.109936 S    
Zn15  O29   1.892964 S    
N11   O73   1.298847 A    
C189  H75   1.110555 S    
C252  H228  1.114608 S    
C243  C244  1.532726 S    
C188  H66   1.108277 S    
C180  H48   1.113301 S    
C138  C148  1.428068 A    
C117  C191  1.542072 S    
N15   O82   1.294984 A    
O9    C89   1.263179 A    
C223  C224  1.537093 S    
C33   C65   1.426170 A    
C129  C215  1.543505 S    
C17   C110  1.424166 S    
C171  H29   1.113461 S    
C166  H13   1.109843 S    
C116  C177  1.555911 S    
O12   C92   1.277235 A    
C214  H132  1.109415 S    
C176  H38   1.111233 S    
C113  C145  1.421722 A    
N7    O65   1.301175 A    
Zn4   O41   1.900433 S    
O5    C89   1.282275 A    
C174  H31   1.109187 S    
O8    C92   1.267920 A    
C172  H28   1.110647 S    
Zn11  O26   1.900431 S    
Zn16  O21   1.904371 S    
C144  C150  1.425264 A    
C255  H239  1.104259 S    
C215  H140  1.125044 S    
C253  H235  1.110137 S    
C220  H147  1.109836 S    
C225  H165  1.106367 S    
C212  H126  1.122825 S    
C165  H15   1.110371 S    
C235  H190  1.111148 S    
C68   C239  1.526704 S    
C184  H58   1.110293 S    
C175  H39   1.109290 S    
C114  C146  1.423116 A    
C180  H46   1.112232 S    
C116  C121  1.428122 A    
C161  C162  1.516094 S    
Zn1   O1    1.941762 S    
