data_mof_unit_26147.cif
_audit_creation_date              2012-12-10T17:06:38-0500
_audit_creation_method            fapswitch 2.2
_symmetry_space_group_name_H-M    P1
_symmetry_Int_Tables_number       1
_space_group_crystal_system       triclinic
_cell_length_a                    15.840872
_cell_length_b                    11.129424
_cell_length_c                    9.802258
_cell_angle_alpha                 110.87683
_cell_angle_beta                  97.877129
_cell_angle_gamma                 91.255508
_cell_volume                      1594.76579423

loop_
_atom_site_label
_atom_site_type_symbol
_atom_type_description
_atom_site_fract_x
_atom_site_fract_y
_atom_site_fract_z
_atom_type_partial_charge
C1    C     C_R   0.493854 0.255323 0.441311 0.867031
C2    C     C_R   0.504277 0.745107 0.558519 0.857547
C3    C     C_2   0.517238 0.062455 0.500041 -0.021214
C4    C     C_2   0.485019 0.930794 0.482439 -0.010224
C5    C     C_2   0.508504 0.508762 0.080642 -0.063856
C6    C     C_2   0.493313 0.488298 0.918528 -0.089345
C7    C     C_R   0.339920 0.500078 0.501459 0.825214
C8    C     C_R   0.660030 0.499741 0.498531 0.836245
C9    C     C_3   0.966624 0.378987 0.480944 -0.215844
C10   C     C_3   0.033054 0.616063 0.521020 -0.212298
C11   C     C_3   0.018830 0.412239 0.374077 -0.199236
C12   C     C_3   0.980887 0.582754 0.627783 -0.197677
C13   C     C_1   0.250549 0.499346 0.504548 -0.198471
C14   C     C_1   0.749299 0.499061 0.495438 -0.188436
C15   C     C_3   0.032478 0.463988 0.614077 0.065078
C16   C     C_3   0.967266 0.530910 0.387865 0.065570
C17   C     C_3   0.083638 0.496948 0.508055 0.143930
C18   C     C_3   0.916207 0.498154 0.493891 0.139696
C19   C     C_1   0.175162 0.498216 0.506637 -0.093464
C20   C     C_1   0.824681 0.498671 0.494100 -0.089613
C21   C     C_2   0.478482 0.119613 0.411071 -0.399921
C22   C     C_2   0.512670 0.882438 0.587474 -0.406327
Cu1   Cu    Cu3+1 0.514700 0.521810 0.644910 0.936037
Cu2   Cu    Cu3+1 0.485300 0.478190 0.355090 0.943122
H1    H     H_    0.938470 0.281547 0.464069 0.131932
H2    H     H_    0.061090 0.713765 0.538746 0.131820
H3    H     H_    0.550646 0.941668 0.691622 0.150369
H4    H     H_    0.426718 0.070838 0.322185 0.150391
H5    H     H_    0.444060 0.415853 0.845831 0.159413
H6    H     H_    0.558699 0.579734 0.152915 0.159362
H7    H     H_    0.583156 0.622747 0.934240 0.186686
H8    H     H_    0.415595 0.379244 0.066328 0.184680
N1    N     N_2   0.463210 0.445420 0.137360 -0.282394
N2    N     N_2   0.536790 0.554580 0.862640 -0.288971
O1    O     O_R   0.507840 0.332340 0.577400 -0.562801
O2    O     O_R   0.492160 0.667660 0.422600 -0.558423
O3    O     O_R   0.483020 0.295500 0.332650 -0.580967
O4    O     O_R   0.516980 0.704500 0.667350 -0.582626
O5    O     O_R   0.391490 0.518400 0.622350 -0.586377
O6    O     O_R   0.608510 0.481600 0.377650 -0.584925
O7    O     O_R   0.366660 0.481570 0.377600 -0.565799
O8    O     O_R   0.633340 0.518430 0.622400 -0.563767
H9    H     H_    0.034606 0.341328 0.270051 0.126497
H10   H     H_    0.964747 0.653110 0.731990 0.129148
C23   C     C_R   0.935846 0.568101 0.257048 0.102033
C24   C     C_R   0.992343 0.635668 0.206139 -0.133608
C25   C     C_R   0.964658 0.669979 0.084202 -0.120751
C26   C     C_R   0.880496 0.636643 0.011610 -0.114362
C27   C     C_R   0.824157 0.568104 0.060173 -0.156883
C28   C     C_R   0.851801 0.532665 0.181339 -0.171671
H11   H     H_    0.057972 0.661244 0.260271 0.114968
H12   H     H_    0.008633 0.721684 0.045438 0.122099
H13   H     H_    0.859112 0.662894 0.917009 0.125866
H14   H     H_    0.759174 0.541321 0.002984 0.138180
H15   H     H_    0.807662 0.476450 0.213853 0.136867
C29   C     C_R   0.061073 0.426037 0.745363 0.101836
C30   C     C_R   0.999105 0.384492 0.812025 -0.142230
C31   C     C_R   0.023478 0.349891 0.934798 -0.117613
C32   C     C_R   0.109874 0.357492 0.992877 -0.110130
C33   C     C_R   0.171925 0.399226 0.927947 -0.146278
C34   C     C_R   0.147813 0.433422 0.804769 -0.171748
H16   H     H_    0.931826 0.379395 0.769196 0.125452
H17   H     H_    0.975312 0.318190 0.985559 0.124250
H18   H     H_    0.128877 0.331348 0.088272 0.122716
H19   H     H_    0.238838 0.405727 0.973551 0.131143
H20   H     H_    0.197183 0.467002 0.758559 0.137189
C35   C     C_R   0.420850 0.854763 0.350406 0.180913
C36   C     C_R   0.339267 0.816623 0.368813 -0.132694
C37   C     C_R   0.278964 0.747183 0.245557 -0.123209
C38   C     C_R   0.299326 0.716414 0.103339 -0.121412
C39   C     C_R   0.380376 0.753296 0.084035 -0.143123
C40   C     C_R   0.441335 0.821101 0.206958 -0.148432
H21   H     H_    0.322478 0.841031 0.478456 0.107430
H22   H     H_    0.216272 0.717981 0.260248 0.121855
H23   H     H_    0.252241 0.664428 0.008049 0.130516
H24   H     H_    0.395993 0.729195 0.973746 0.152324
H25   H     H_    0.504126 0.848550 0.190676 0.118581
C41   C     C_R   0.595941 0.126509 0.606750 0.162087
C42   C     C_R   0.592405 0.188756 0.758102 -0.105842
C43   C     C_R   0.666466 0.250465 0.856152 -0.139593
C44   C     C_R   0.744224 0.250667 0.803740 -0.122674
C45   C     C_R   0.747932 0.190409 0.653130 -0.134373
C46   C     C_R   0.674067 0.128552 0.554777 -0.160323
H26   H     H_    0.532365 0.189654 0.799540 0.114956
H27   H     H_    0.663584 0.298188 0.972690 0.129753
H28   H     H_    0.801642 0.297429 0.879685 0.126979
H29   H     H_    0.808063 0.191501 0.612612 0.122262
H30   H     H_    0.677602 0.082296 0.438216 0.119904

loop_
_geom_bond_atom_site_label_1
_geom_bond_atom_site_label_2
_ccdc_geom_bond_type
C1    C21   S    
C44   C45   A    
C9    H1    S    
C30   H16   S    
C23   C24   A    
C32   H18   S    
C43   H27   S    
Cu1   O8    S    
C8    O8    A    
C42   H26   S    
C10   C17   S    
C27   H14   S    
C29   C30   A    
C35   C40   A    
C17   C19   S    
C34   H20   S    
C36   C37   A    
C5    N1    D    
C2    C22   S    
Cu1   Cu2   S    
C11   H9    S    
C38   C39   A    
C44   H28   S    
C1    O3    A    
C10   H2    S    
C46   H30   S    
C32   C33   A    
Cu2   O7    S    
C41   C46   A    
C26   H13   S    
C13   C19   T    
C35   C36   A    
C14   C20   T    
C41   C42   A    
C36   H21   S    
C24   H11   S    
C6    N2    D    
C33   C34   A    
C40   H25   S    
C4    C22   D    
C11   C16   S    
C2    O4    A    
C25   C26   A    
C12   C15   S    
Cu1   N2    S    
Cu2   O3    S    
H7    N2    S    
C37   H22   S    
Cu2   O2    S    
C9    C11   S    
C10   C12   S    
C26   C27   A    
C21   H4    S    
C33   H19   S    
C45   C46   A    
Cu1   O1    S    
C22   H3    S    
C3    C21   D    
C3    C4    S    
C39   H24   S    
C1    O1    A    
C5    H6    S    
C2    O2    A    
C31   H17   S    
C15   C17   S    
C24   C25   A    
C11   C17   S    
C8    C14   S    
Cu2   N1    S    
C43   C44   A    
C16   C23   S    
C4    C35   S    
C25   H12   S    
Cu1   O4    S    
C28   H15   S    
C15   C29   S    
C9    C15   S    
C39   C40   A    
C12   H10   S    
C10   C16   S    
H8    N1    S    
C30   C31   A    
C5    C6    S    
C23   C28   A    
Cu1   O5    S    
Cu2   O6    S    
C18   C20   S    
C7    O7    A    
C37   C38   A    
C31   C32   A    
C42   C43   A    
C9    C18   S    
C7    C13   S    
C6    H5    S    
C16   C18   S    
C27   C28   A    
C12   C18   S    
C38   H23   S    
C7    O5    A    
C29   C34   A    
C8    O6    A    
C3    C41   S    
C45   H29   S    
