data_mof_unit_28359.cif
_audit_creation_date              2012-12-10T18:45:04-0500
_audit_creation_method            fapswitch 2.2
_symmetry_space_group_name_H-M    P1
_symmetry_Int_Tables_number       1
_space_group_crystal_system       triclinic
_cell_length_a                    10.774682
_cell_length_b                    9.912693
_cell_length_c                    10.591795
_cell_angle_alpha                 90.182256
_cell_angle_beta                  92.751173
_cell_angle_gamma                 89.931916
_cell_volume                      1129.9582535

loop_
_atom_site_label
_atom_site_type_symbol
_atom_type_description
_atom_site_fract_x
_atom_site_fract_y
_atom_site_fract_z
_atom_type_partial_charge
C1    C     C_R   0.260003 0.500199 0.499779 0.849455
C2    C     C_R   0.739992 0.500108 0.500074 0.844395
C3    C     C_R   0.935949 0.624089 0.497628 -0.198325
C4    C     C_R   0.063537 0.624136 0.497592 -0.198341
C5    C     C_R   0.574098 0.069246 0.586661 0.130541
C6    C     C_R   0.425866 0.068893 0.413386 0.129081
C7    C     C_R   0.566725 0.926399 0.589725 -0.108457
C8    C     C_R   0.433102 0.926002 0.410369 -0.104792
C9    C     C_R   0.517159 0.500493 0.261371 0.889756
C10   C     C_R   0.485430 0.501073 0.739531 0.889186
C11   C     C_R   0.576107 0.750875 0.118729 -0.124573
C12   C     C_R   0.444648 0.755601 0.887050 -0.127039
C13   C     C_R   0.548061 0.873656 0.060858 -0.176125
C14   C     C_R   0.478621 0.876159 0.946918 -0.175131
C15   C     C_R   0.481875 0.629900 0.939935 0.072594
C16   C     C_R   0.533530 0.628210 0.063338 0.073158
C17   C     C_R   0.540861 0.503681 0.127470 -0.208703
C18   C     C_R   0.467633 0.505549 0.874716 -0.207402
C19   C     C_R   0.534021 0.381912 0.059643 0.067742
C20   C     C_R   0.471755 0.383123 0.941510 0.065642
C21   C     C_R   0.063826 0.378671 0.502274 -0.211260
C22   C     C_R   0.936600 0.378591 0.500873 -0.212033
C23   C     C_R   0.872565 0.500976 0.499369 -0.008704
C24   C     C_R   0.127403 0.501095 0.500002 -0.009435
H1    H     H_    0.632379 0.752729 0.206160 0.153701
H2    H     H_    0.386763 0.762134 0.800987 0.156702
H3    H     H_    0.577862 0.966313 0.106415 0.136019
H4    H     H_    0.452611 0.970972 0.903431 0.128278
H5    H     H_    0.112054 0.283243 0.505300 0.165547
H6    H     H_    0.888743 0.283110 0.501085 0.165301
H7    H     H_    0.887493 0.719989 0.496184 0.154609
H8    H     H_    0.111618 0.720035 0.495791 0.154341
H9    H     H_    0.616347 0.869116 0.662655 0.149513
H10   H     H_    0.383115 0.868467 0.337572 0.149471
N1    N     N_R   0.500000 0.857200 0.500000 -0.111724
N2    N     N_R   0.500000 0.142810 0.500000 -0.118148
O1    O     O_R   0.316770 0.614620 0.499990 -0.626193
O2    O     O_R   0.683230 0.614620 0.500010 -0.627436
O3    O     O_R   0.316800 0.385290 0.500000 -0.633404
O4    O     O_R   0.683200 0.385290 0.500000 -0.634210
O5    O     O_R   0.500010 0.614690 0.316770 -0.622775
O6    O     O_R   0.499990 0.614690 0.683230 -0.624498
O7    O     O_R   0.500040 0.385360 0.316770 -0.628940
O8    O     O_R   0.499960 0.385360 0.683230 -0.628166
Zn1   Zn    Zn3+2 0.500000 0.653120 0.500000 0.923084
Zn2   Zn    Zn3+2 0.500000 0.346880 0.500000 0.912348
C25   C     C_3   0.599041 0.254092 0.107318 -0.420155
C26   C     C_3   0.730292 0.279062 0.166346 -0.289614
C27   C     C_3   0.776843 0.155657 0.240353 -0.903876
H11   H     H_    0.709532 0.126087 0.311567 0.271634
H12   H     H_    0.791213 0.069631 0.175200 0.251827
H13   H     H_    0.865759 0.180393 0.291880 0.250769
H14   H     H_    0.795052 0.302125 0.090726 0.209057
H15   H     H_    0.731739 0.365796 0.232732 0.222214
H16   H     H_    0.542088 0.204038 0.176315 0.219406
H17   H     H_    0.609138 0.182313 0.027671 0.177126
C28   C     C_3   0.402597 0.257601 0.893649 -0.418790
C29   C     C_3   0.270577 0.287106 0.839160 -0.291222
C30   C     C_3   0.219351 0.165916 0.764473 -0.903378
H18   H     H_    0.282652 0.137215 0.688994 0.272278
H19   H     H_    0.207525 0.078590 0.828249 0.253647
H20   H     H_    0.128533 0.193030 0.718219 0.251414
H21   H     H_    0.208749 0.310879 0.917323 0.209311
H22   H     H_    0.269088 0.374707 0.774266 0.220375
H23   H     H_    0.455997 0.206384 0.822021 0.220468
H24   H     H_    0.392924 0.184987 0.972257 0.177441
C31   C     C_3   0.661656 0.133591 0.685560 -0.398442
C32   C     C_3   0.794490 0.076661 0.686577 -0.390973
C33   C     C_3   0.876899 0.145967 0.788519 -0.892191
H25   H     H_    0.897590 0.251093 0.760351 0.266854
H26   H     H_    0.830949 0.147495 0.880241 0.265446
H27   H     H_    0.964666 0.088505 0.802688 0.256153
H28   H     H_    0.795116 0.967363 0.708605 0.221078
H29   H     H_    0.834228 0.089052 0.592696 0.219983
H30   H     H_    0.667594 0.242957 0.674271 0.274857
H31   H     H_    0.626408 0.111983 0.779844 0.169222
C34   C     C_3   0.338245 0.132847 0.314621 -0.399834
C35   C     C_3   0.205038 0.077588 0.315080 -0.390580
C36   C     C_3   0.121904 0.147858 0.214588 -0.890278
H32   H     H_    0.101820 0.252978 0.244009 0.267729
H33   H     H_    0.166940 0.149488 0.122368 0.264896
H34   H     H_    0.033805 0.091122 0.200710 0.256230
H35   H     H_    0.203447 0.968223 0.292565 0.219741
H36   H     H_    0.166645 0.090615 0.409601 0.220207
H37   H     H_    0.333368 0.242442 0.325148 0.275562
H38   H     H_    0.372620 0.109303 0.220178 0.169758

loop_
_geom_bond_atom_site_label_1
_geom_bond_atom_site_label_2
_ccdc_geom_bond_type
C15   C18   A    
C10   O6    A    
C3    C23   A    
C19   C20   A    
C28   H24   S    
C5    C31   S    
C34   C35   S    
O4    Zn2   S    
C4    C24   A    
C19   C25   S    
C11   H1    S    
C32   H29   S    
C15   C16   A    
C5    N2    A    
C33   H26   S    
O2    Zn1   S    
C35   H35   S    
C32   C33   S    
C27   H12   S    
N2    Zn2   S    
C1    O1    A    
C34   H37   S    
C30   H18   S    
C13   C14   A    
C7    H9    S    
O8    Zn2   S    
C5    C7    A    
C29   H22   S    
C26   H14   S    
C30   H19   S    
C9    O7    A    
C10   O8    A    
C31   C32   S    
C36   H33   S    
C35   C36   S    
C16   C17   A    
C6    C34   S    
C6    C8    A    
C32   H28   S    
C21   H5    S    
C12   H2    S    
O6    Zn1   S    
C33   H27   S    
C26   H15   S    
C35   H36   S    
C11   C16   A    
C2    O2    A    
C25   C26   S    
C12   C15   A    
C27   H13   S    
C8    H10   S    
C3    H7    S    
C4    H8    S    
O3    Zn2   S    
C9    C17   S    
C26   C27   S    
C12   C14   A    
C34   H38   S    
C31   H30   S    
O1    Zn1   S    
C3    C4    A    
N1    Zn1   S    
C25   H16   S    
C29   H21   S    
C30   H20   S    
C22   H6    S    
C7    N1    A    
C28   H23   S    
C36   H34   S    
C9    O5    A    
C29   C30   S    
C11   C13   A    
C28   C29   S    
C10   C18   S    
C17   C19   A    
C6    N2    A    
C18   C20   A    
C33   H25   S    
O7    Zn2   S    
C1    O3    A    
C36   H32   S    
C2    O4    A    
C1    C24   S    
C27   H11   S    
C21   C24   A    
C2    C23   S    
O5    Zn1   S    
C22   C23   A    
C13   H3    S    
C31   H31   S    
C14   H4    S    
C20   C28   S    
C21   C22   A    
C8    N1    A    
C25   H17   S    
