data_mof_unit_26959.cif
_audit_creation_date              2012-12-10T19:42:53-0500
_audit_creation_method            fapswitch 2.2
_symmetry_space_group_name_H-M    P1
_symmetry_Int_Tables_number       1
_space_group_crystal_system       triclinic
_cell_length_a                    10.814714
_cell_length_b                    12.960009
_cell_length_c                    11.653124
_cell_angle_alpha                 100.015298
_cell_angle_beta                  93.804678
_cell_angle_gamma                 90.774064
_cell_volume                      1604.33226127

loop_
_atom_site_label
_atom_site_type_symbol
_atom_type_description
_atom_site_fract_x
_atom_site_fract_y
_atom_site_fract_z
_atom_type_partial_charge
C1    C     C_R   0.502998 0.299184 0.478341 0.834464
C2    C     C_R   0.497000 0.700816 0.521658 0.834465
C3    C     C_R   0.871589 0.494301 0.499340 -0.066233
C4    C     C_R   0.128411 0.505700 0.500661 -0.066234
C5    C     C_R   0.944408 0.457576 0.588503 0.003799
C6    C     C_R   0.055592 0.542424 0.411499 0.003796
C7    C     C_R   0.488600 0.814025 0.533976 -0.115874
C8    C     C_R   0.511396 0.185975 0.466023 -0.115875
C9    C     C_R   0.581961 0.018443 0.369726 -0.208046
C10   C     C_R   0.418032 0.981556 0.630271 -0.208047
C11   C     C_R   0.573480 0.126251 0.375109 0.246401
C12   C     C_R   0.426514 0.873748 0.624889 0.246401
C13   C     C_R   0.460226 0.137375 0.550687 -0.304863
C14   C     C_R   0.539768 0.862625 0.449311 -0.304860
C15   C     C_R   0.469458 0.029941 0.545627 0.117096
C16   C     C_R   0.530535 0.970059 0.454370 0.117097
C17   C     C_R   0.380711 0.402981 0.021454 -0.334389
C18   C     C_R   0.619294 0.597014 0.978546 -0.334384
C19   C     C_R   0.392422 0.412126 0.143783 0.151505
C20   C     C_R   0.607581 0.587871 0.856216 0.151500
C21   C     C_R   0.551742 0.541862 0.157301 0.041194
C22   C     C_R   0.448259 0.458137 0.842699 0.041197
C23   C     C_R   0.262261 0.503029 0.500444 0.800586
C24   C     C_R   0.737738 0.496971 0.499556 0.800586
C25   C     C_R   0.543385 0.535223 0.034362 0.054999
C26   C     C_R   0.456618 0.464775 0.965637 0.054998
C27   C     C_R   0.241480 0.724587 0.262660 -0.111609
C28   C     C_R   0.758518 0.275391 0.737328 -0.111605
C29   C     C_R   0.186142 0.681823 0.349500 -0.101645
C30   C     C_R   0.813854 0.318167 0.650491 -0.101637
C31   C     C_R   0.109765 0.591185 0.319419 0.120706
C32   C     C_R   0.890234 0.408806 0.680581 0.120695
C33   C     C_R   0.087194 0.545696 0.201168 -0.164305
C34   C     C_R   0.912809 0.454281 0.798837 -0.164308
C35   C     C_R   0.142511 0.588878 0.114614 -0.142754
C36   C     C_R   0.857495 0.411085 0.885388 -0.142737
C37   C     C_R   0.220109 0.677894 0.145374 -0.093038
C38   C     C_R   0.779895 0.322070 0.854619 -0.093044
C39   C     C_R   0.927500 0.535053 0.411401 -0.221821
C40   C     C_R   0.072500 0.464949 0.588601 -0.221814
Cu1   Cu    Cu3+1 0.509250 0.507730 0.615930 0.972476
Cu2   Cu    Cu3+1 0.490750 0.492270 0.384070 0.972475
H1    H     H_    0.263645 0.710675 0.078322 0.152882
H2    H     H_    0.736362 0.289279 0.921669 0.152883
H3    H     H_    0.381916 0.404088 0.788916 0.111247
H4    H     H_    0.618084 0.595911 0.211084 0.111248
H5    H     H_    0.666600 0.635666 0.814001 0.129862
H6    H     H_    0.333404 0.364330 0.185999 0.129862
H7    H     H_    0.312736 0.348145 0.971087 0.140967
H8    H     H_    0.687269 0.651850 0.028912 0.140968
H9    H     H_    0.301390 0.793637 0.286362 0.142142
H10   H     H_    0.698607 0.206341 0.713620 0.142141
H11   H     H_    0.204098 0.718294 0.440146 0.126782
H12   H     H_    0.795896 0.281705 0.559841 0.126781
H13   H     H_    0.028711 0.475812 0.176331 0.131292
H14   H     H_    0.971295 0.524162 0.823680 0.131290
H15   H     H_    0.126095 0.552779 0.023765 0.132049
H16   H     H_    0.873914 0.447173 0.976240 0.132050
H17   H     H_    0.871152 0.564870 0.344454 0.148772
H18   H     H_    0.128848 0.435131 0.655547 0.148770
H19   H     H_    0.587080 0.816562 0.379298 0.156677
H20   H     H_    0.412913 0.183437 0.620699 0.156677
H21   H     H_    0.630159 0.972729 0.300275 0.167465
H22   H     H_    0.369834 0.027270 0.699722 0.167465
N1    N     N_R   0.523180 0.519350 0.790130 -0.175473
N2    N     N_R   0.476820 0.480650 0.209870 -0.175472
O1    O     O_R   0.506570 0.354460 0.582000 -0.599661
O2    O     O_R   0.493430 0.645540 0.418000 -0.599663
O3    O     O_R   0.490940 0.341410 0.386200 -0.545099
O4    O     O_R   0.509060 0.658590 0.613800 -0.545099
O5    O     O_R   0.327460 0.506540 0.597900 -0.576694
O6    O     O_R   0.672540 0.493460 0.402100 -0.576694
O7    O     O_R   0.311830 0.493480 0.402100 -0.586410
O8    O     O_R   0.688170 0.506520 0.597900 -0.586412
Br1   Br    Br    0.343616 0.812838 0.738958 -0.535453
Br2   Br    Br    0.656380 0.187160 0.261041 -0.535458

loop_
_geom_bond_atom_site_label_1
_geom_bond_atom_site_label_2
_ccdc_geom_bond_type
C33   H13   S    
C34   H14   S    
C8    C13   A    
C40   H18   S    
C21   N2    A    
C27   C29   A    
C1    C8    S    
Cu1   Cu2   S    
C2    C7    S    
Cu1   O1    S    
C30   H12   S    
C24   O6    A    
C17   C26   A    
C35   C37   A    
C9    C16   A    
C2    O2    A    
C11   Br2   S    
C33   C35   A    
C15   C16   A    
C19   N2    A    
C17   C19   A    
Cu1   O8    S    
C7    C14   A    
C13   H20   S    
C4    C40   A    
C31   C33   A    
C34   C36   A    
Cu1   O5    S    
C5    C32   S    
C6    C31   S    
C3    C39   A    
Cu2   O2    S    
C3    C24   S    
C18   C25   A    
C23   O7    A    
C27   H9    S    
C7    C12   A    
C23   O5    A    
C20   N1    A    
C4    C6    A    
C17   H7    S    
C4    C23   S    
C19   H6    S    
Cu1   N1    S    
C25   C26   A    
C14   H19   S    
Cu2   O3    S    
C1    O3    A    
C32   C34   A    
C37   H1    S    
C22   N1    A    
C38   H2    S    
C28   C38   A    
C39   H17   S    
Cu2   O6    S    
C9    C11   A    
C10   C12   A    
C13   C15   A    
C14   C16   A    
C12   Br1   S    
C18   H8    S    
C21   H4    S    
C21   C25   A    
Cu2   O7    S    
C10   C15   A    
C9    H21   S    
C10   H22   S    
C3    C5    A    
C36   H16   S    
C35   H15   S    
C28   C30   A    
C29   C31   A    
C30   C32   A    
C28   H10   S    
C24   O8    A    
C29   H11   S    
C27   C37   A    
C8    C11   A    
C36   C38   A    
C1    O1    A    
C18   C20   A    
C20   H5    S    
C22   H3    S    
C22   C26   A    
C5    C40   A    
Cu2   N2    S    
C6    C39   A    
C2    O4    A    
Cu1   O4    S    
